MODEL 1
REMARK VINA RESULT:      -8.4      0.000      0.000
REMARK  8 active torsions:
REMARK  status: ('A' for Active; 'I' for Inactive)
REMARK    1  A    between atoms: C_7  and  C_8 
REMARK       I    between atoms: C_8  and  N_9 
REMARK    2  A    between atoms: N_9  and  C_10 
REMARK    3  A    between atoms: C_11  and  C_12 
REMARK       I    between atoms: C_12  and  N_13 
REMARK    4  A    between atoms: N_13  and  C_14 
REMARK    5  A    between atoms: C_14  and  C_15 
REMARK    6  A    between atoms: C_15  and  C_16 
REMARK    7  A    between atoms: C_18  and  O_19 
REMARK    8  A    between atoms: C_21  and  O_22 
ROOT
HETATM    1  C   UNL     1      44.291 -19.741   4.025  1.00  0.00     0.050 A 
HETATM    2  C   UNL     1      43.929 -19.832   2.661  1.00  0.00     0.058 A 
HETATM    3  C   UNL     1      44.003 -21.063   1.982  1.00  0.00     0.019 A 
HETATM    4  C   UNL     1      44.406 -22.213   2.656  1.00  0.00     0.001 A 
HETATM    5  C   UNL     1      44.743 -22.138   4.002  1.00  0.00     0.002 A 
HETATM    6  C   UNL     1      44.689 -20.914   4.678  1.00  0.00     0.030 A 
ENDROOT
BRANCH   2   7
HETATM    7  C   UNL     1      43.469 -18.632   1.911  1.00  0.00     0.253 C 
HETATM    8  N   UNL     1      42.104 -18.481   1.782  1.00  0.00    -0.356 N 
HETATM    9  H   UNL     1      41.481 -19.097   2.290  1.00  0.00     0.162 HD
HETATM   10  O   UNL     1      44.277 -17.821   1.474  1.00  0.00    -0.268 OA
BRANCH   8  11
HETATM   11  C   UNL     1      41.540 -17.346   1.078  1.00  0.00     0.127 C 
BRANCH  11  12
HETATM   12  C   UNL     1      40.409 -16.661   1.852  1.00  0.00     0.058 C 
BRANCH  12  13
HETATM   13  C   UNL     1      40.626 -15.216   2.251  1.00  0.00    -0.054 A 
HETATM   14  C   UNL     1      41.476 -14.352   1.544  1.00  0.00     0.046 A 
HETATM   15  C   UNL     1      41.664 -13.024   1.954  1.00  0.00     0.102 A 
HETATM   16  C   UNL     1      41.010 -12.551   3.107  1.00  0.00     0.101 A 
HETATM   17  C   UNL     1      40.179 -13.413   3.827  1.00  0.00     0.040 A 
HETATM   18  C   UNL     1      39.993 -14.732   3.404  1.00  0.00     0.010 A 
BRANCH  15  19
HETATM   19  O   UNL     1      42.462 -12.117   1.301  1.00  0.00    -0.353 OA
HETATM   20  C   UNL     1      42.087 -11.728  -0.013  1.00  0.00     0.210 C 
ENDBRANCH  15  19
BRANCH  16  21
HETATM   21  O   UNL     1      41.245 -11.240   3.444  1.00  0.00    -0.353 OA
HETATM   22  C   UNL     1      41.164 -10.888   4.817  1.00  0.00     0.210 C 
ENDBRANCH  16  21
ENDBRANCH  12  13
ENDBRANCH  11  12
ENDBRANCH   8  11
ENDBRANCH   2   7
BRANCH   1  23
HETATM   23  N   UNL     1      44.243 -18.484   4.683  1.00  0.00    -0.321 N 
HETATM   24  C   UNL     1      43.142 -17.808   5.177  1.00  0.00     0.265 C 
HETATM   25  O   UNL     1      41.986 -18.208   5.074  1.00  0.00    -0.267 OA
HETATM   26  H   UNL     1      45.147 -18.020   4.814  1.00  0.00     0.169 HD
BRANCH  24  27
HETATM   27  C   UNL     1      43.465 -16.474   5.856  1.00  0.00     0.097 C 
HETATM   28  C   UNL     1      43.696 -16.393   7.193  1.00  0.00     0.064 C 
HETATM   29  C   UNL     1      43.638 -17.568   8.135  1.00  0.00     0.078 C 
HETATM   30  O   UNL     1      44.004 -15.234   7.891  1.00  0.00    -0.353 OA
HETATM   31  C   UNL     1      44.461 -14.116   7.133  1.00  0.00     0.185 C 
HETATM   32  C   UNL     1      43.473 -13.749   6.049  1.00  0.00     0.106 C 
HETATM   33  S   UNL     1      43.484 -15.064   4.814  1.00  0.00    -0.120 SA
ENDBRANCH  24  27
ENDBRANCH   1  23
TORSDOF 8
ENDMDL
MODEL 2
REMARK VINA RESULT:      -8.1      1.921      2.132
REMARK  8 active torsions:
REMARK  status: ('A' for Active; 'I' for Inactive)
REMARK    1  A    between atoms: C_7  and  C_8 
REMARK       I    between atoms: C_8  and  N_9 
REMARK    2  A    between atoms: N_9  and  C_10 
REMARK    3  A    between atoms: C_11  and  C_12 
REMARK       I    between atoms: C_12  and  N_13 
REMARK    4  A    between atoms: N_13  and  C_14 
REMARK    5  A    between atoms: C_14  and  C_15 
REMARK    6  A    between atoms: C_15  and  C_16 
REMARK    7  A    between atoms: C_18  and  O_19 
REMARK    8  A    between atoms: C_21  and  O_22 
ROOT
HETATM    1  C   UNL     1      44.290 -19.738   4.050  1.00  0.00     0.050 A 
HETATM    2  C   UNL     1      43.973 -19.817   2.674  1.00  0.00     0.058 A 
HETATM    3  C   UNL     1      44.055 -21.045   1.991  1.00  0.00     0.019 A 
HETATM    4  C   UNL     1      44.422 -22.204   2.670  1.00  0.00     0.001 A 
HETATM    5  C   UNL     1      44.715 -22.140   4.027  1.00  0.00     0.002 A 
HETATM    6  C   UNL     1      44.653 -20.919   4.709  1.00  0.00     0.030 A 
ENDROOT
BRANCH   2   7
HETATM    7  C   UNL     1      43.552 -18.607   1.916  1.00  0.00     0.253 C 
HETATM    8  N   UNL     1      42.194 -18.444   1.735  1.00  0.00    -0.356 N 
HETATM    9  H   UNL     1      41.547 -19.058   2.214  1.00  0.00     0.162 HD
HETATM   10  O   UNL     1      44.384 -17.801   1.517  1.00  0.00    -0.268 OA
BRANCH   8  11
HETATM   11  C   UNL     1      41.667 -17.299   1.018  1.00  0.00     0.127 C 
BRANCH  11  12
HETATM   12  C   UNL     1      40.976 -16.284   1.935  1.00  0.00     0.058 C 
BRANCH  12  13
HETATM   13  C   UNL     1      40.101 -15.242   1.269  1.00  0.00    -0.054 A 
HETATM   14  C   UNL     1      40.550 -14.434   0.214  1.00  0.00     0.046 A 
HETATM   15  C   UNL     1      39.714 -13.470  -0.367  1.00  0.00     0.102 A 
HETATM   16  C   UNL     1      38.409 -13.287   0.130  1.00  0.00     0.101 A 
HETATM   17  C   UNL     1      37.964 -14.075   1.194  1.00  0.00     0.040 A 
HETATM   18  C   UNL     1      38.804 -15.039   1.759  1.00  0.00     0.010 A 
BRANCH  15  19
HETATM   19  O   UNL     1      40.077 -12.658  -1.414  1.00  0.00    -0.353 OA
HETATM   20  C   UNL     1      41.069 -13.137  -2.311  1.00  0.00     0.210 C 
ENDBRANCH  15  19
BRANCH  16  21
HETATM   21  O   UNL     1      37.653 -12.323  -0.491  1.00  0.00    -0.353 OA
HETATM   22  C   UNL     1      36.545 -11.794   0.223  1.00  0.00     0.210 C 
ENDBRANCH  16  21
ENDBRANCH  12  13
ENDBRANCH  11  12
ENDBRANCH   8  11
ENDBRANCH   2   7
BRANCH   1  23
HETATM   23  N   UNL     1      44.235 -18.484   4.713  1.00  0.00    -0.321 N 
HETATM   24  C   UNL     1      43.127 -17.803   5.183  1.00  0.00     0.265 C 
HETATM   25  O   UNL     1      41.971 -18.193   5.049  1.00  0.00    -0.267 OA
HETATM   26  H   UNL     1      45.139 -18.028   4.870  1.00  0.00     0.169 HD
BRANCH  24  27
HETATM   27  C   UNL     1      43.443 -16.475   5.877  1.00  0.00     0.097 C 
HETATM   28  C   UNL     1      43.702 -16.411   7.209  1.00  0.00     0.064 C 
HETATM   29  C   UNL     1      43.685 -17.603   8.133  1.00  0.00     0.078 C 
HETATM   30  O   UNL     1      44.006 -15.259   7.920  1.00  0.00    -0.353 OA
HETATM   31  C   UNL     1      44.427 -14.121   7.171  1.00  0.00     0.185 C 
HETATM   32  C   UNL     1      43.410 -13.753   6.116  1.00  0.00     0.106 C 
HETATM   33  S   UNL     1      43.415 -15.048   4.859  1.00  0.00    -0.120 SA
ENDBRANCH  24  27
ENDBRANCH   1  23
TORSDOF 8
ENDMDL
MODEL 3
REMARK VINA RESULT:      -8.0      1.933      3.083
REMARK  8 active torsions:
REMARK  status: ('A' for Active; 'I' for Inactive)
REMARK    1  A    between atoms: C_7  and  C_8 
REMARK       I    between atoms: C_8  and  N_9 
REMARK    2  A    between atoms: N_9  and  C_10 
REMARK    3  A    between atoms: C_11  and  C_12 
REMARK       I    between atoms: C_12  and  N_13 
REMARK    4  A    between atoms: N_13  and  C_14 
REMARK    5  A    between atoms: C_14  and  C_15 
REMARK    6  A    between atoms: C_15  and  C_16 
REMARK    7  A    between atoms: C_18  and  O_19 
REMARK    8  A    between atoms: C_21  and  O_22 
ROOT
HETATM    1  C   UNL     1      44.153 -19.378   3.803  1.00  0.00     0.050 A 
HETATM    2  C   UNL     1      43.744 -19.338   2.451  1.00  0.00     0.058 A 
HETATM    3  C   UNL     1      43.769 -20.504   1.661  1.00  0.00     0.019 A 
HETATM    4  C   UNL     1      44.170 -21.718   2.214  1.00  0.00     0.001 A 
HETATM    5  C   UNL     1      44.554 -21.771   3.549  1.00  0.00     0.002 A 
HETATM    6  C   UNL     1      44.548 -20.612   4.334  1.00  0.00     0.030 A 
ENDROOT
BRANCH   2   7
HETATM    7  C   UNL     1      43.284 -18.067   1.828  1.00  0.00     0.253 C 
HETATM    8  N   UNL     1      41.935 -17.794   1.925  1.00  0.00    -0.356 N 
HETATM    9  H   UNL     1      41.345 -18.380   2.505  1.00  0.00     0.162 HD
HETATM   10  O   UNL     1      44.085 -17.308   1.296  1.00  0.00    -0.268 OA
BRANCH   8  11
HETATM   11  C   UNL     1      41.374 -16.582   1.362  1.00  0.00     0.127 C 
BRANCH  11  12
HETATM   12  C   UNL     1      40.990 -16.728  -0.114  1.00  0.00     0.058 C 
BRANCH  12  13
HETATM   13  C   UNL     1      41.244 -15.534  -1.012  1.00  0.00    -0.054 A 
HETATM   14  C   UNL     1      41.713 -14.304  -0.525  1.00  0.00     0.046 A 
HETATM   15  C   UNL     1      41.921 -13.217  -1.386  1.00  0.00     0.102 A 
HETATM   16  C   UNL     1      41.634 -13.347  -2.758  1.00  0.00     0.101 A 
HETATM   17  C   UNL     1      41.148 -14.564  -3.244  1.00  0.00     0.040 A 
HETATM   18  C   UNL     1      40.952 -15.643  -2.377  1.00  0.00     0.010 A 
BRANCH  15  19
HETATM   19  O   UNL     1      42.396 -11.991  -0.986  1.00  0.00    -0.353 OA
HETATM   20  C   UNL     1      42.080 -11.555   0.328  1.00  0.00     0.210 C 
ENDBRANCH  15  19
BRANCH  16  21
HETATM   21  O   UNL     1      41.863 -12.239  -3.535  1.00  0.00    -0.353 OA
HETATM   22  C   UNL     1      40.739 -11.605  -4.127  1.00  0.00     0.210 C 
ENDBRANCH  16  21
ENDBRANCH  12  13
ENDBRANCH  11  12
ENDBRANCH   8  11
ENDBRANCH   2   7
BRANCH   1  23
HETATM   23  N   UNL     1      44.152 -18.185   4.573  1.00  0.00    -0.321 N 
HETATM   24  C   UNL     1      43.090 -17.562   5.202  1.00  0.00     0.265 C 
HETATM   25  O   UNL     1      41.929 -17.957   5.146  1.00  0.00    -0.267 OA
HETATM   26  H   UNL     1      45.064 -17.730   4.681  1.00  0.00     0.169 HD
BRANCH  24  27
HETATM   27  C   UNL     1      43.462 -16.293   5.973  1.00  0.00     0.097 C 
HETATM   28  C   UNL     1      43.723 -16.319   7.307  1.00  0.00     0.064 C 
HETATM   29  C   UNL     1      43.654 -17.562   8.158  1.00  0.00     0.078 C 
HETATM   30  O   UNL     1      44.075 -15.226   8.084  1.00  0.00    -0.353 OA
HETATM   31  C   UNL     1      44.545 -14.064   7.403  1.00  0.00     0.185 C 
HETATM   32  C   UNL     1      43.545 -13.591   6.373  1.00  0.00     0.106 C 
HETATM   33  S   UNL     1      43.496 -14.808   5.042  1.00  0.00    -0.120 SA
ENDBRANCH  24  27
ENDBRANCH   1  23
TORSDOF 8
ENDMDL
MODEL 4
REMARK VINA RESULT:      -7.7      2.333      7.034
REMARK  8 active torsions:
REMARK  status: ('A' for Active; 'I' for Inactive)
REMARK    1  A    between atoms: C_7  and  C_8 
REMARK       I    between atoms: C_8  and  N_9 
REMARK    2  A    between atoms: N_9  and  C_10 
REMARK    3  A    between atoms: C_11  and  C_12 
REMARK       I    between atoms: C_12  and  N_13 
REMARK    4  A    between atoms: N_13  and  C_14 
REMARK    5  A    between atoms: C_14  and  C_15 
REMARK    6  A    between atoms: C_15  and  C_16 
REMARK    7  A    between atoms: C_18  and  O_19 
REMARK    8  A    between atoms: C_21  and  O_22 
ROOT
HETATM    1  C   UNL     1      41.814 -12.280   0.024  1.00  0.00     0.050 A 
HETATM    2  C   UNL     1      41.851 -13.415  -0.818  1.00  0.00     0.058 A 
HETATM    3  C   UNL     1      42.290 -13.303  -2.151  1.00  0.00     0.019 A 
HETATM    4  C   UNL     1      42.722 -12.075  -2.647  1.00  0.00     0.001 A 
HETATM    5  C   UNL     1      42.710 -10.958  -1.821  1.00  0.00     0.002 A 
HETATM    6  C   UNL     1      42.257 -11.059  -0.500  1.00  0.00     0.030 A 
ENDROOT
BRANCH   2   7
HETATM    7  C   UNL     1      41.422 -14.750  -0.320  1.00  0.00     0.253 C 
HETATM    8  N   UNL     1      42.420 -15.567   0.169  1.00  0.00    -0.356 N 
HETATM    9  H   UNL     1      43.356 -15.199   0.288  1.00  0.00     0.162 HD
HETATM   10  O   UNL     1      40.238 -15.066  -0.324  1.00  0.00    -0.268 OA
BRANCH   8  11
HETATM   11  C   UNL     1      42.120 -16.887   0.688  1.00  0.00     0.127 C 
BRANCH  11  12
HETATM   12  C   UNL     1      43.369 -17.753   0.885  1.00  0.00     0.058 C 
BRANCH  12  13
HETATM   13  C   UNL     1      43.675 -18.207   2.297  1.00  0.00    -0.054 A 
HETATM   14  C   UNL     1      43.582 -17.352   3.406  1.00  0.00     0.046 A 
HETATM   15  C   UNL     1      43.888 -17.806   4.697  1.00  0.00     0.102 A 
HETATM   16  C   UNL     1      44.320 -19.132   4.887  1.00  0.00     0.101 A 
HETATM   17  C   UNL     1      44.434 -19.981   3.783  1.00  0.00     0.040 A 
HETATM   18  C   UNL     1      44.117 -19.520   2.502  1.00  0.00     0.010 A 
BRANCH  15  19
HETATM   19  O   UNL     1      43.801 -17.035   5.831  1.00  0.00    -0.353 OA
HETATM   20  C   UNL     1      42.702 -16.142   5.943  1.00  0.00     0.210 C 
ENDBRANCH  15  19
BRANCH  16  21
HETATM   21  O   UNL     1      44.601 -19.500   6.180  1.00  0.00    -0.353 OA
HETATM   22  C   UNL     1      43.714 -20.409   6.814  1.00  0.00     0.210 C 
ENDBRANCH  16  21
ENDBRANCH  12  13
ENDBRANCH  11  12
ENDBRANCH   8  11
ENDBRANCH   2   7
BRANCH   1  23
HETATM   23  N   UNL     1      41.335 -12.406   1.353  1.00  0.00    -0.321 N 
HETATM   24  C   UNL     1      42.003 -12.868   2.473  1.00  0.00     0.265 C 
HETATM   25  O   UNL     1      43.156 -13.291   2.461  1.00  0.00    -0.267 OA
HETATM   26  H   UNL     1      40.366 -12.109   1.504  1.00  0.00     0.169 HD
BRANCH  24  27
HETATM   27  C   UNL     1      41.178 -12.843   3.763  1.00  0.00     0.097 C 
HETATM   28  C   UNL     1      40.398 -13.893   4.130  1.00  0.00     0.064 C 
HETATM   29  C   UNL     1      40.243 -15.156   3.322  1.00  0.00     0.078 C 
HETATM   30  O   UNL     1      39.626 -13.964   5.281  1.00  0.00    -0.353 OA
HETATM   31  C   UNL     1      39.928 -13.044   6.328  1.00  0.00     0.185 C 
HETATM   32  C   UNL     1      39.884 -11.616   5.834  1.00  0.00     0.106 C 
HETATM   33  S   UNL     1      41.275 -11.371   4.711  1.00  0.00    -0.120 SA
ENDBRANCH  24  27
ENDBRANCH   1  23
TORSDOF 8
ENDMDL
MODEL 5
REMARK VINA RESULT:      -7.7      3.525      7.924
REMARK  8 active torsions:
REMARK  status: ('A' for Active; 'I' for Inactive)
REMARK    1  A    between atoms: C_7  and  C_8 
REMARK       I    between atoms: C_8  and  N_9 
REMARK    2  A    between atoms: N_9  and  C_10 
REMARK    3  A    between atoms: C_11  and  C_12 
REMARK       I    between atoms: C_12  and  N_13 
REMARK    4  A    between atoms: N_13  and  C_14 
REMARK    5  A    between atoms: C_14  and  C_15 
REMARK    6  A    between atoms: C_15  and  C_16 
REMARK    7  A    between atoms: C_18  and  O_19 
REMARK    8  A    between atoms: C_21  and  O_22 
ROOT
HETATM    1  C   UNL     1      39.110 -14.077  -1.560  1.00  0.00     0.050 A 
HETATM    2  C   UNL     1      40.171 -14.988  -1.769  1.00  0.00     0.058 A 
HETATM    3  C   UNL     1      40.223 -15.770  -2.938  1.00  0.00     0.019 A 
HETATM    4  C   UNL     1      39.243 -15.634  -3.918  1.00  0.00     0.001 A 
HETATM    5  C   UNL     1      38.208 -14.726  -3.732  1.00  0.00     0.002 A 
HETATM    6  C   UNL     1      38.141 -13.958  -2.564  1.00  0.00     0.030 A 
ENDROOT
BRANCH   2   7
HETATM    7  C   UNL     1      41.253 -15.147  -0.758  1.00  0.00     0.253 C 
HETATM    8  N   UNL     1      41.430 -16.417  -0.250  1.00  0.00    -0.356 N 
HETATM    9  H   UNL     1      40.926 -17.195  -0.657  1.00  0.00     0.162 HD
HETATM   10  O   UNL     1      41.954 -14.193  -0.441  1.00  0.00    -0.268 OA
BRANCH   8  11
HETATM   11  C   UNL     1      42.458 -16.692   0.735  1.00  0.00     0.127 C 
BRANCH  11  12
HETATM   12  C   UNL     1      41.914 -17.370   1.996  1.00  0.00     0.058 C 
BRANCH  12  13
HETATM   13  C   UNL     1      42.831 -18.350   2.699  1.00  0.00    -0.054 A 
HETATM   14  C   UNL     1      43.332 -18.129   3.991  1.00  0.00     0.046 A 
HETATM   15  C   UNL     1      44.191 -19.053   4.603  1.00  0.00     0.102 A 
HETATM   16  C   UNL     1      44.581 -20.212   3.905  1.00  0.00     0.101 A 
HETATM   17  C   UNL     1      44.100 -20.427   2.611  1.00  0.00     0.040 A 
HETATM   18  C   UNL     1      43.238 -19.503   2.014  1.00  0.00     0.010 A 
BRANCH  15  19
HETATM   19  O   UNL     1      44.704 -18.914   5.870  1.00  0.00    -0.353 OA
HETATM   20  C   UNL     1      43.809 -19.046   6.965  1.00  0.00     0.210 C 
ENDBRANCH  15  19
BRANCH  16  21
HETATM   21  O   UNL     1      45.423 -21.067   4.571  1.00  0.00    -0.353 OA
HETATM   22  C   UNL     1      44.882 -22.292   5.042  1.00  0.00     0.210 C 
ENDBRANCH  16  21
ENDBRANCH  12  13
ENDBRANCH  11  12
ENDBRANCH   8  11
ENDBRANCH   2   7
BRANCH   1  23
HETATM   23  N   UNL     1      39.057 -13.323  -0.359  1.00  0.00    -0.321 N 
HETATM   24  C   UNL     1      38.226 -13.494   0.733  1.00  0.00     0.265 C 
HETATM   25  O   UNL     1      37.345 -14.345   0.802  1.00  0.00    -0.267 OA
HETATM   26  H   UNL     1      39.730 -12.553  -0.292  1.00  0.00     0.169 HD
BRANCH  24  27
HETATM   27  C   UNL     1      38.465 -12.502   1.876  1.00  0.00     0.097 C 
HETATM   28  C   UNL     1      39.265 -12.809   2.930  1.00  0.00     0.064 C 
HETATM   29  C   UNL     1      39.970 -14.131   3.102  1.00  0.00     0.078 C 
HETATM   30  O   UNL     1      39.546 -11.975   4.002  1.00  0.00    -0.353 OA
HETATM   31  C   UNL     1      39.279 -10.584   3.835  1.00  0.00     0.185 C 
HETATM   32  C   UNL     1      37.841 -10.346   3.435  1.00  0.00     0.106 C 
HETATM   33  S   UNL     1      37.618 -10.971   1.757  1.00  0.00    -0.120 SA
ENDBRANCH  24  27
ENDBRANCH   1  23
TORSDOF 8
ENDMDL
MODEL 6
REMARK VINA RESULT:      -7.4      3.181      7.921
REMARK  8 active torsions:
REMARK  status: ('A' for Active; 'I' for Inactive)
REMARK    1  A    between atoms: C_7  and  C_8 
REMARK       I    between atoms: C_8  and  N_9 
REMARK    2  A    between atoms: N_9  and  C_10 
REMARK    3  A    between atoms: C_11  and  C_12 
REMARK       I    between atoms: C_12  and  N_13 
REMARK    4  A    between atoms: N_13  and  C_14 
REMARK    5  A    between atoms: C_14  and  C_15 
REMARK    6  A    between atoms: C_15  and  C_16 
REMARK    7  A    between atoms: C_18  and  O_19 
REMARK    8  A    between atoms: C_21  and  O_22 
ROOT
HETATM    1  C   UNL     1      43.569 -11.548   8.948  1.00  0.00     0.050 A 
HETATM    2  C   UNL     1      44.777 -12.276   8.843  1.00  0.00     0.058 A 
HETATM    3  C   UNL     1      45.800 -12.106   9.795  1.00  0.00     0.019 A 
HETATM    4  C   UNL     1      45.622 -11.238  10.869  1.00  0.00     0.001 A 
HETATM    5  C   UNL     1      44.431 -10.534  10.993  1.00  0.00     0.002 A 
HETATM    6  C   UNL     1      43.416 -10.685  10.040  1.00  0.00     0.030 A 
ENDROOT
BRANCH   2   7
HETATM    7  C   UNL     1      44.998 -13.234   7.725  1.00  0.00     0.253 C 
HETATM    8  N   UNL     1      44.202 -14.360   7.721  1.00  0.00    -0.356 N 
HETATM    9  H   UNL     1      43.436 -14.435   8.380  1.00  0.00     0.162 HD
HETATM   10  O   UNL     1      45.822 -12.992   6.851  1.00  0.00    -0.268 OA
BRANCH   8  11
HETATM   11  C   UNL     1      44.323 -15.358   6.677  1.00  0.00     0.127 C 
BRANCH  11  12
HETATM   12  C   UNL     1      42.981 -15.991   6.294  1.00  0.00     0.058 C 
BRANCH  12  13
HETATM   13  C   UNL     1      42.980 -16.933   5.107  1.00  0.00    -0.054 A 
HETATM   14  C   UNL     1      42.093 -16.795   4.029  1.00  0.00     0.046 A 
HETATM   15  C   UNL     1      42.112 -17.697   2.955  1.00  0.00     0.102 A 
HETATM   16  C   UNL     1      43.017 -18.775   2.965  1.00  0.00     0.101 A 
HETATM   17  C   UNL     1      43.889 -18.929   4.046  1.00  0.00     0.040 A 
HETATM   18  C   UNL     1      43.866 -18.018   5.107  1.00  0.00     0.010 A 
BRANCH  15  19
HETATM   19  O   UNL     1      41.290 -17.614   1.858  1.00  0.00    -0.353 OA
HETATM   20  C   UNL     1      41.518 -16.556   0.937  1.00  0.00     0.210 C 
ENDBRANCH  15  19
BRANCH  16  21
HETATM   21  O   UNL     1      42.975 -19.614   1.879  1.00  0.00    -0.353 OA
HETATM   22  C   UNL     1      43.658 -20.854   1.977  1.00  0.00     0.210 C 
ENDBRANCH  16  21
ENDBRANCH  12  13
ENDBRANCH  11  12
ENDBRANCH   8  11
ENDBRANCH   2   7
BRANCH   1  23
HETATM   23  N   UNL     1      42.564 -11.708   7.960  1.00  0.00    -0.321 N 
HETATM   24  C   UNL     1      41.898 -10.734   7.237  1.00  0.00     0.265 C 
HETATM   25  O   UNL     1      42.068  -9.528   7.389  1.00  0.00    -0.267 OA
HETATM   26  H   UNL     1      42.302 -12.676   7.749  1.00  0.00     0.169 HD
BRANCH  24  27
HETATM   27  C   UNL     1      40.883 -11.274   6.226  1.00  0.00     0.097 C 
HETATM   28  C   UNL     1      39.664 -11.731   6.615  1.00  0.00     0.064 C 
HETATM   29  C   UNL     1      39.195 -11.780   8.047  1.00  0.00     0.078 C 
HETATM   30  O   UNL     1      38.680 -12.228   5.772  1.00  0.00    -0.353 OA
HETATM   31  C   UNL     1      38.792 -11.920   4.384  1.00  0.00     0.185 C 
HETATM   32  C   UNL     1      40.130 -12.356   3.832  1.00  0.00     0.106 C 
HETATM   33  S   UNL     1      41.402 -11.297   4.551  1.00  0.00    -0.120 SA
ENDBRANCH  24  27
ENDBRANCH   1  23
TORSDOF 8
ENDMDL
MODEL 7
REMARK VINA RESULT:      -7.4      2.847      6.163
REMARK  8 active torsions:
REMARK  status: ('A' for Active; 'I' for Inactive)
REMARK    1  A    between atoms: C_7  and  C_8 
REMARK       I    between atoms: C_8  and  N_9 
REMARK    2  A    between atoms: N_9  and  C_10 
REMARK    3  A    between atoms: C_11  and  C_12 
REMARK       I    between atoms: C_12  and  N_13 
REMARK    4  A    between atoms: N_13  and  C_14 
REMARK    5  A    between atoms: C_14  and  C_15 
REMARK    6  A    between atoms: C_15  and  C_16 
REMARK    7  A    between atoms: C_18  and  O_19 
REMARK    8  A    between atoms: C_21  and  O_22 
ROOT
HETATM    1  C   UNL     1      43.297 -18.398   3.644  1.00  0.00     0.050 A 
HETATM    2  C   UNL     1      43.783 -18.372   4.972  1.00  0.00     0.058 A 
HETATM    3  C   UNL     1      44.705 -19.339   5.416  1.00  0.00     0.019 A 
HETATM    4  C   UNL     1      45.173 -20.316   4.542  1.00  0.00     0.001 A 
HETATM    5  C   UNL     1      44.718 -20.337   3.229  1.00  0.00     0.002 A 
HETATM    6  C   UNL     1      43.788 -19.390   2.786  1.00  0.00     0.030 A 
ENDROOT
BRANCH   2   7
HETATM    7  C   UNL     1      43.328 -17.329   5.932  1.00  0.00     0.253 C 
HETATM    8  N   UNL     1      44.287 -16.431   6.355  1.00  0.00    -0.356 N 
HETATM    9  H   UNL     1      45.201 -16.431   5.919  1.00  0.00     0.162 HD
HETATM   10  O   UNL     1      42.156 -17.272   6.282  1.00  0.00    -0.268 OA
BRANCH   8  11
HETATM   11  C   UNL     1      43.957 -15.367   7.283  1.00  0.00     0.127 C 
BRANCH  11  12
HETATM   12  C   UNL     1      44.812 -14.111   7.084  1.00  0.00     0.058 C 
BRANCH  12  13
HETATM   13  C   UNL     1      44.602 -12.975   8.064  1.00  0.00    -0.054 A 
HETATM   14  C   UNL     1      43.434 -12.199   8.089  1.00  0.00     0.046 A 
HETATM   15  C   UNL     1      43.283 -11.145   9.001  1.00  0.00     0.102 A 
HETATM   16  C   UNL     1      44.329 -10.839   9.893  1.00  0.00     0.101 A 
HETATM   17  C   UNL     1      45.503 -11.596   9.858  1.00  0.00     0.040 A 
HETATM   18  C   UNL     1      45.638 -12.650   8.950  1.00  0.00     0.010 A 
BRANCH  15  19
HETATM   19  O   UNL     1      42.162 -10.357   9.098  1.00  0.00    -0.353 OA
HETATM   20  C   UNL     1      41.670  -9.756   7.909  1.00  0.00     0.210 C 
ENDBRANCH  15  19
BRANCH  16  21
HETATM   21  O   UNL     1      44.106  -9.794  10.755  1.00  0.00    -0.353 OA
HETATM   22  C   UNL     1      43.769 -10.108  12.098  1.00  0.00     0.210 C 
ENDBRANCH  16  21
ENDBRANCH  12  13
ENDBRANCH  11  12
ENDBRANCH   8  11
ENDBRANCH   2   7
BRANCH   1  23
HETATM   23  N   UNL     1      42.342 -17.436   3.226  1.00  0.00    -0.321 N 
HETATM   24  C   UNL     1      42.558 -16.165   2.722  1.00  0.00     0.265 C 
HETATM   25  O   UNL     1      43.666 -15.653   2.597  1.00  0.00    -0.267 OA
HETATM   26  H   UNL     1      41.362 -17.725   3.302  1.00  0.00     0.169 HD
BRANCH  24  27
HETATM   27  C   UNL     1      41.283 -15.405   2.346  1.00  0.00     0.097 C 
HETATM   28  C   UNL     1      40.814 -15.386   1.071  1.00  0.00     0.064 C 
HETATM   29  C   UNL     1      41.489 -16.073  -0.089  1.00  0.00     0.078 C 
HETATM   30  O   UNL     1      39.667 -14.735   0.640  1.00  0.00    -0.353 OA
HETATM   31  C   UNL     1      38.719 -14.355   1.635  1.00  0.00     0.185 C 
HETATM   32  C   UNL     1      39.358 -13.498   2.704  1.00  0.00     0.106 C 
HETATM   33  S   UNL     1      40.492 -14.537   3.648  1.00  0.00    -0.120 SA
ENDBRANCH  24  27
ENDBRANCH   1  23
TORSDOF 8
ENDMDL
MODEL 8
REMARK VINA RESULT:      -7.4      2.849      8.334
REMARK  8 active torsions:
REMARK  status: ('A' for Active; 'I' for Inactive)
REMARK    1  A    between atoms: C_7  and  C_8 
REMARK       I    between atoms: C_8  and  N_9 
REMARK    2  A    between atoms: N_9  and  C_10 
REMARK    3  A    between atoms: C_11  and  C_12 
REMARK       I    between atoms: C_12  and  N_13 
REMARK    4  A    between atoms: N_13  and  C_14 
REMARK    5  A    between atoms: C_14  and  C_15 
REMARK    6  A    between atoms: C_15  and  C_16 
REMARK    7  A    between atoms: C_18  and  O_19 
REMARK    8  A    between atoms: C_21  and  O_22 
ROOT
HETATM    1  C   UNL     1      40.084 -12.736   2.977  1.00  0.00     0.050 A 
HETATM    2  C   UNL     1      39.919 -14.033   3.515  1.00  0.00     0.058 A 
HETATM    3  C   UNL     1      39.828 -14.224   4.907  1.00  0.00     0.019 A 
HETATM    4  C   UNL     1      39.871 -13.133   5.770  1.00  0.00     0.001 A 
HETATM    5  C   UNL     1      40.011 -11.852   5.250  1.00  0.00     0.002 A 
HETATM    6  C   UNL     1      40.120 -11.656   3.868  1.00  0.00     0.030 A 
ENDROOT
BRANCH   2   7
HETATM    7  C   UNL     1      39.843 -15.225   2.626  1.00  0.00     0.253 C 
HETATM    8  N   UNL     1      40.886 -16.123   2.721  1.00  0.00    -0.356 N 
HETATM    9  H   UNL     1      41.577 -16.013   3.453  1.00  0.00     0.162 HD
HETATM   10  O   UNL     1      38.879 -15.392   1.889  1.00  0.00    -0.268 OA
BRANCH   8  11
HETATM   11  C   UNL     1      40.915 -17.324   1.910  1.00  0.00     0.127 C 
BRANCH  11  12
HETATM   12  C   UNL     1      42.323 -17.686   1.425  1.00  0.00     0.058 C 
BRANCH  12  13
HETATM   13  C   UNL     1      43.134 -18.617   2.303  1.00  0.00    -0.054 A 
HETATM   14  C   UNL     1      43.618 -18.242   3.565  1.00  0.00     0.046 A 
HETATM   15  C   UNL     1      44.378 -19.127   4.342  1.00  0.00     0.102 A 
HETATM   16  C   UNL     1      44.686 -20.407   3.842  1.00  0.00     0.101 A 
HETATM   17  C   UNL     1      44.223 -20.778   2.577  1.00  0.00     0.040 A 
HETATM   18  C   UNL     1      43.458 -19.890   1.815  1.00  0.00     0.010 A 
BRANCH  15  19
HETATM   19  O   UNL     1      44.868 -18.838   5.592  1.00  0.00    -0.353 OA
HETATM   20  C   UNL     1      44.039 -18.091   6.472  1.00  0.00     0.210 C 
ENDBRANCH  15  19
BRANCH  16  21
HETATM   21  O   UNL     1      45.434 -21.216   4.661  1.00  0.00    -0.353 OA
HETATM   22  C   UNL     1      44.825 -22.400   5.153  1.00  0.00     0.210 C 
ENDBRANCH  16  21
ENDBRANCH  12  13
ENDBRANCH  11  12
ENDBRANCH   8  11
ENDBRANCH   2   7
BRANCH   1  23
HETATM   23  N   UNL     1      40.208 -12.567   1.574  1.00  0.00    -0.321 N 
HETATM   24  C   UNL     1      41.358 -12.454   0.814  1.00  0.00     0.265 C 
HETATM   25  O   UNL     1      42.493 -12.444   1.282  1.00  0.00    -0.267 OA
HETATM   26  H   UNL     1      39.325 -12.532   1.054  1.00  0.00     0.169 HD
BRANCH  24  27
HETATM   27  C   UNL     1      41.116 -12.307  -0.691  1.00  0.00     0.097 C 
HETATM   28  C   UNL     1      41.031 -13.389  -1.507  1.00  0.00     0.064 C 
HETATM   29  C   UNL     1      41.184 -14.815  -1.042  1.00  0.00     0.078 C 
HETATM   30  O   UNL     1      40.806 -13.355  -2.876  1.00  0.00    -0.353 OA
HETATM   31  C   UNL     1      40.275 -12.148  -3.420  1.00  0.00     0.185 C 
HETATM   32  C   UNL     1      41.143 -10.960  -3.068  1.00  0.00     0.106 C 
HETATM   33  S   UNL     1      40.993 -10.665  -1.294  1.00  0.00    -0.120 SA
ENDBRANCH  24  27
ENDBRANCH   1  23
TORSDOF 8
ENDMDL
MODEL 9
REMARK VINA RESULT:      -7.3      3.443      7.769
REMARK  8 active torsions:
REMARK  status: ('A' for Active; 'I' for Inactive)
REMARK    1  A    between atoms: C_7  and  C_8 
REMARK       I    between atoms: C_8  and  N_9 
REMARK    2  A    between atoms: N_9  and  C_10 
REMARK    3  A    between atoms: C_11  and  C_12 
REMARK       I    between atoms: C_12  and  N_13 
REMARK    4  A    between atoms: N_13  and  C_14 
REMARK    5  A    between atoms: C_14  and  C_15 
REMARK    6  A    between atoms: C_15  and  C_16 
REMARK    7  A    between atoms: C_18  and  O_19 
REMARK    8  A    between atoms: C_21  and  O_22 
ROOT
HETATM    1  C   UNL     1      40.701 -11.931   6.067  1.00  0.00     0.050 A 
HETATM    2  C   UNL     1      41.176 -12.883   5.136  1.00  0.00     0.058 A 
HETATM    3  C   UNL     1      40.500 -13.092   3.919  1.00  0.00     0.019 A 
HETATM    4  C   UNL     1      39.371 -12.341   3.604  1.00  0.00     0.001 A 
HETATM    5  C   UNL     1      38.908 -11.388   4.504  1.00  0.00     0.002 A 
HETATM    6  C   UNL     1      39.564 -11.188   5.723  1.00  0.00     0.030 A 
ENDROOT
BRANCH   2   7
HETATM    7  C   UNL     1      42.395 -13.689   5.421  1.00  0.00     0.253 C 
HETATM    8  N   UNL     1      42.210 -14.824   6.182  1.00  0.00    -0.356 N 
HETATM    9  H   UNL     1      41.271 -15.131   6.406  1.00  0.00     0.162 HD
HETATM   10  O   UNL     1      43.482 -13.358   4.963  1.00  0.00    -0.268 OA
BRANCH   8  11
HETATM   11  C   UNL     1      43.324 -15.690   6.517  1.00  0.00     0.127 C 
BRANCH  11  12
HETATM   12  C   UNL     1      42.930 -17.168   6.601  1.00  0.00     0.058 C 
BRANCH  12  13
HETATM   13  C   UNL     1      43.445 -18.081   5.507  1.00  0.00    -0.054 A 
HETATM   14  C   UNL     1      43.163 -17.871   4.148  1.00  0.00     0.046 A 
HETATM   15  C   UNL     1      43.646 -18.747   3.165  1.00  0.00     0.102 A 
HETATM   16  C   UNL     1      44.406 -19.870   3.543  1.00  0.00     0.101 A 
HETATM   17  C   UNL     1      44.671 -20.094   4.897  1.00  0.00     0.040 A 
HETATM   18  C   UNL     1      44.192 -19.210   5.867  1.00  0.00     0.010 A 
BRANCH  15  19
HETATM   19  O   UNL     1      43.429 -18.595   1.817  1.00  0.00    -0.353 OA
HETATM   20  C   UNL     1      43.948 -17.431   1.189  1.00  0.00     0.210 C 
ENDBRANCH  15  19
BRANCH  16  21
HETATM   21  O   UNL     1      44.842 -20.680   2.524  1.00  0.00    -0.353 OA
HETATM   22  C   UNL     1      44.326 -22.001   2.465  1.00  0.00     0.210 C 
ENDBRANCH  16  21
ENDBRANCH  12  13
ENDBRANCH  11  12
ENDBRANCH   8  11
ENDBRANCH   2   7
BRANCH   1  23
HETATM   23  N   UNL     1      41.375 -11.759   7.303  1.00  0.00    -0.321 N 
HETATM   24  C   UNL     1      41.975 -10.620   7.810  1.00  0.00     0.265 C 
HETATM   25  O   UNL     1      42.043  -9.552   7.209  1.00  0.00    -0.267 OA
HETATM   26  H   UNL     1      41.417 -12.589   7.902  1.00  0.00     0.169 HD
BRANCH  24  27
HETATM   27  C   UNL     1      42.594 -10.792   9.201  1.00  0.00     0.097 C 
HETATM   28  C   UNL     1      41.958 -10.360  10.321  1.00  0.00     0.064 C 
HETATM   29  C   UNL     1      40.621  -9.664  10.321  1.00  0.00     0.078 C 
HETATM   30  O   UNL     1      42.434 -10.480  11.619  1.00  0.00    -0.353 OA
HETATM   31  C   UNL     1      43.481 -11.422  11.846  1.00  0.00     0.185 C 
HETATM   32  C   UNL     1      44.665 -11.154  10.946  1.00  0.00     0.106 C 
HETATM   33  S   UNL     1      44.178 -11.541   9.252  1.00  0.00    -0.120 SA
ENDBRANCH  24  27
ENDBRANCH   1  23
TORSDOF 8
ENDMDL
MODEL 10
REMARK VINA RESULT:      -7.3      3.663      7.643
REMARK  8 active torsions:
REMARK  status: ('A' for Active; 'I' for Inactive)
REMARK    1  A    between atoms: C_7  and  C_8 
REMARK       I    between atoms: C_8  and  N_9 
REMARK    2  A    between atoms: N_9  and  C_10 
REMARK    3  A    between atoms: C_11  and  C_12 
REMARK       I    between atoms: C_12  and  N_13 
REMARK    4  A    between atoms: N_13  and  C_14 
REMARK    5  A    between atoms: C_14  and  C_15 
REMARK    6  A    between atoms: C_15  and  C_16 
REMARK    7  A    between atoms: C_18  and  O_19 
REMARK    8  A    between atoms: C_21  and  O_22 
ROOT
HETATM    1  C   UNL     1      41.206 -14.097   4.662  1.00  0.00     0.050 A 
HETATM    2  C   UNL     1      41.907 -13.174   5.473  1.00  0.00     0.058 A 
HETATM    3  C   UNL     1      41.279 -11.998   5.926  1.00  0.00     0.019 A 
HETATM    4  C   UNL     1      39.949 -11.744   5.604  1.00  0.00     0.001 A 
HETATM    5  C   UNL     1      39.245 -12.655   4.825  1.00  0.00     0.002 A 
HETATM    6  C   UNL     1      39.868 -13.817   4.357  1.00  0.00     0.030 A 
ENDROOT
BRANCH   2   7
HETATM    7  C   UNL     1      43.323 -13.420   5.862  1.00  0.00     0.253 C 
HETATM    8  N   UNL     1      43.603 -13.358   7.211  1.00  0.00    -0.356 N 
HETATM    9  H   UNL     1      42.845 -13.277   7.878  1.00  0.00     0.162 HD
HETATM   10  O   UNL     1      44.163 -13.695   5.014  1.00  0.00    -0.268 OA
BRANCH   8  11
HETATM   11  C   UNL     1      44.946 -13.587   7.708  1.00  0.00     0.127 C 
BRANCH  11  12
HETATM   12  C   UNL     1      45.424 -12.496   8.671  1.00  0.00     0.058 C 
BRANCH  12  13
HETATM   13  C   UNL     1      44.414 -11.972   9.671  1.00  0.00    -0.054 A 
HETATM   14  C   UNL     1      43.471 -10.983   9.352  1.00  0.00     0.046 A 
HETATM   15  C   UNL     1      42.562 -10.512  10.310  1.00  0.00     0.102 A 
HETATM   16  C   UNL     1      42.607 -11.019  11.623  1.00  0.00     0.101 A 
HETATM   17  C   UNL     1      43.557 -11.989  11.951  1.00  0.00     0.040 A 
HETATM   18  C   UNL     1      44.453 -12.456  10.985  1.00  0.00     0.010 A 
BRANCH  15  19
HETATM   19  O   UNL     1      41.600  -9.563  10.065  1.00  0.00    -0.353 OA
HETATM   20  C   UNL     1      40.592  -9.870   9.113  1.00  0.00     0.210 C 
ENDBRANCH  15  19
BRANCH  16  21
HETATM   21  O   UNL     1      41.684 -10.508  12.503  1.00  0.00    -0.353 OA
HETATM   22  C   UNL     1      40.624 -11.358  12.913  1.00  0.00     0.210 C 
ENDBRANCH  16  21
ENDBRANCH  12  13
ENDBRANCH  11  12
ENDBRANCH   8  11
ENDBRANCH   2   7
BRANCH   1  23
HETATM   23  N   UNL     1      41.867 -15.259   4.188  1.00  0.00    -0.321 N 
HETATM   24  C   UNL     1      41.702 -16.573   4.589  1.00  0.00     0.265 C 
HETATM   25  O   UNL     1      40.946 -16.928   5.488  1.00  0.00    -0.267 OA
HETATM   26  H   UNL     1      42.554 -15.103   3.443  1.00  0.00     0.169 HD
BRANCH  24  27
HETATM   27  C   UNL     1      42.571 -17.583   3.835  1.00  0.00     0.097 C 
HETATM   28  C   UNL     1      43.633 -18.191   4.426  1.00  0.00     0.064 C 
HETATM   29  C   UNL     1      44.077 -17.930   5.843  1.00  0.00     0.078 C 
HETATM   30  O   UNL     1      44.469 -19.122   3.828  1.00  0.00    -0.353 OA
HETATM   31  C   UNL     1      43.994 -19.759   2.643  1.00  0.00     0.185 C 
HETATM   32  C   UNL     1      43.611 -18.745   1.591  1.00  0.00     0.106 C 
HETATM   33  S   UNL     1      42.135 -17.877   2.162  1.00  0.00    -0.120 SA
ENDBRANCH  24  27
ENDBRANCH   1  23
TORSDOF 8
ENDMDL
