MODEL 1
REMARK VINA RESULT:      -8.7      0.000      0.000
REMARK  6 active torsions:
REMARK  status: ('A' for Active; 'I' for Inactive)
REMARK    1  A    between atoms: C_7  and  C_8 
REMARK    2  A    between atoms: C_8  and  O_9 
REMARK    3  A    between atoms: N_12  and  C_13 
REMARK    4  A    between atoms: C_13  and  C_14 
REMARK    5  A    between atoms: C_14  and  C_15 
REMARK    6  A    between atoms: C_15  and  C_16 
ROOT
HETATM    1  C   UNL     1      42.446 -17.186   6.581  1.00  0.00     0.199 A 
HETATM    2  C   UNL     1      41.035 -16.724   6.082  1.00  0.00     0.269 A 
HETATM    3  O   UNL     1      40.041 -17.418   5.911  1.00  0.00    -0.269 OA
HETATM    4  N   UNL     1      41.099 -15.328   5.899  1.00  0.00    -0.314 N 
HETATM    5  C   UNL     1      42.389 -14.841   6.162  1.00  0.00     0.047 A 
HETATM    6  C   UNL     1      43.228 -15.892   6.547  1.00  0.00     0.017 A 
HETATM    7  C   UNL     1      42.860 -13.543   6.075  1.00  0.00     0.030 A 
HETATM    8  C   UNL     1      44.203 -13.307   6.383  1.00  0.00     0.002 A 
HETATM    9  C   UNL     1      45.048 -14.358   6.775  1.00  0.00     0.001 A 
HETATM   10  C   UNL     1      44.561 -15.662   6.866  1.00  0.00     0.013 A 
ENDROOT
BRANCH   1  11
HETATM   11  C   UNL     1      43.123 -18.150   5.629  1.00  0.00     0.025 A 
HETATM   12  C   UNL     1      43.690 -19.384   5.952  1.00  0.00     0.016 A 
HETATM   13  C   UNL     1      43.807 -20.097   7.254  1.00  0.00     0.069 C 
HETATM   14  N   UNL     1      44.168 -19.952   4.801  1.00  0.00    -0.359 N 
HETATM   15  H   UNL     1      44.614 -20.857   4.743  1.00  0.00     0.166 HD
HETATM   16  C   UNL     1      43.952 -19.131   3.725  1.00  0.00     0.043 A 
HETATM   17  C   UNL     1      43.304 -17.991   4.200  1.00  0.00     0.003 A 
HETATM   18  C   UNL     1      44.280 -19.323   2.376  1.00  0.00     0.030 A 
HETATM   19  C   UNL     1      42.976 -16.988   3.260  1.00  0.00     0.014 A 
HETATM   20  C   UNL     1      43.296 -17.160   1.906  1.00  0.00     0.001 A 
HETATM   21  C   UNL     1      43.938 -18.314   1.473  1.00  0.00     0.002 A 
ENDBRANCH   1  11
BRANCH   1  22
HETATM   22  O   UNL     1      42.387 -17.651   7.928  1.00  0.00    -0.371 OA
HETATM   23  H   UNL     1      41.484 -17.979   8.069  1.00  0.00     0.212 HD
ENDBRANCH   1  22
BRANCH   4  24
HETATM   24  C   UNL     1      40.003 -14.557   5.356  1.00  0.00     0.133 C 
BRANCH  24  25
HETATM   25  C   UNL     1      40.187 -14.161   3.892  1.00  0.00     0.025 C 
BRANCH  25  26
HETATM   26  C   UNL     1      39.889 -15.304   2.921  1.00  0.00     0.040 C 
BRANCH  26  27
HETATM   27  C   UNL     1      39.507 -14.777   1.558  1.00  0.00    -0.058 A 
HETATM   28  C   UNL     1      38.197 -14.350   1.303  1.00  0.00     0.007 A 
HETATM   29  C   UNL     1      37.833 -13.897   0.034  1.00  0.00     0.001 A 
HETATM   30  C   UNL     1      38.777 -13.863  -0.992  1.00  0.00     0.000 A 
HETATM   31  C   UNL     1      40.083 -14.282  -0.749  1.00  0.00     0.001 A 
HETATM   32  C   UNL     1      40.447 -14.738   0.520  1.00  0.00     0.007 A 
ENDBRANCH  26  27
ENDBRANCH  25  26
ENDBRANCH  24  25
ENDBRANCH   4  24
TORSDOF 6
ENDMDL
MODEL 2
REMARK VINA RESULT:      -8.7      2.635      6.369
REMARK  6 active torsions:
REMARK  status: ('A' for Active; 'I' for Inactive)
REMARK    1  A    between atoms: C_7  and  C_8 
REMARK    2  A    between atoms: C_8  and  O_9 
REMARK    3  A    between atoms: N_12  and  C_13 
REMARK    4  A    between atoms: C_13  and  C_14 
REMARK    5  A    between atoms: C_14  and  C_15 
REMARK    6  A    between atoms: C_15  and  C_16 
ROOT
HETATM    1  C   UNL     1      42.113 -13.596   2.134  1.00  0.00     0.199 A 
HETATM    2  C   UNL     1      42.924 -14.547   3.079  1.00  0.00     0.269 A 
HETATM    3  O   UNL     1      43.954 -15.155   2.819  1.00  0.00    -0.269 OA
HETATM    4  N   UNL     1      42.267 -14.546   4.325  1.00  0.00    -0.314 N 
HETATM    5  C   UNL     1      41.105 -13.761   4.286  1.00  0.00     0.047 A 
HETATM    6  C   UNL     1      40.953 -13.194   3.016  1.00  0.00     0.017 A 
HETATM    7  C   UNL     1      40.181 -13.527   5.290  1.00  0.00     0.030 A 
HETATM    8  C   UNL     1      39.088 -12.705   5.002  1.00  0.00     0.002 A 
HETATM    9  C   UNL     1      38.934 -12.130   3.730  1.00  0.00     0.001 A 
HETATM   10  C   UNL     1      39.874 -12.367   2.727  1.00  0.00     0.013 A 
ENDROOT
BRANCH   1  11
HETATM   11  C   UNL     1      41.541 -14.308   0.927  1.00  0.00     0.025 A 
HETATM   12  C   UNL     1      40.756 -15.462   0.932  1.00  0.00     0.016 A 
HETATM   13  C   UNL     1      40.266 -16.309   2.054  1.00  0.00     0.069 C 
HETATM   14  N   UNL     1      40.421 -15.760  -0.363  1.00  0.00    -0.359 N 
HETATM   15  H   UNL     1      39.842 -16.538  -0.648  1.00  0.00     0.166 HD
HETATM   16  C   UNL     1      40.970 -14.852  -1.231  1.00  0.00     0.043 A 
HETATM   17  C   UNL     1      41.681 -13.928  -0.464  1.00  0.00     0.003 A 
HETATM   18  C   UNL     1      40.881 -14.785  -2.627  1.00  0.00     0.030 A 
HETATM   19  C   UNL     1      42.344 -12.885  -1.151  1.00  0.00     0.014 A 
HETATM   20  C   UNL     1      42.267 -12.802  -2.547  1.00  0.00     0.001 A 
HETATM   21  C   UNL     1      41.543 -13.740  -3.273  1.00  0.00     0.002 A 
ENDBRANCH   1  11
BRANCH   1  22
HETATM   22  O   UNL     1      42.868 -12.429   1.811  1.00  0.00    -0.371 OA
HETATM   23  H   UNL     1      42.323 -11.667   2.064  1.00  0.00     0.212 HD
ENDBRANCH   1  22
BRANCH   4  24
HETATM   24  C   UNL     1      42.679 -15.385   5.429  1.00  0.00     0.133 C 
BRANCH  24  25
HETATM   25  C   UNL     1      42.383 -16.871   5.225  1.00  0.00     0.025 C 
BRANCH  25  26
HETATM   26  C   UNL     1      43.629 -17.750   5.340  1.00  0.00     0.040 C 
BRANCH  26  27
HETATM   27  C   UNL     1      43.697 -18.750   4.210  1.00  0.00    -0.058 A 
HETATM   28  C   UNL     1      44.530 -19.873   4.305  1.00  0.00     0.007 A 
HETATM   29  C   UNL     1      44.622 -20.779   3.247  1.00  0.00     0.001 A 
HETATM   30  C   UNL     1      43.880 -20.572   2.085  1.00  0.00     0.000 A 
HETATM   31  C   UNL     1      43.046 -19.461   1.981  1.00  0.00     0.001 A 
HETATM   32  C   UNL     1      42.955 -18.552   3.038  1.00  0.00     0.007 A 
ENDBRANCH  26  27
ENDBRANCH  25  26
ENDBRANCH  24  25
ENDBRANCH   4  24
TORSDOF 6
ENDMDL
MODEL 3
REMARK VINA RESULT:      -8.4      2.621      7.096
REMARK  6 active torsions:
REMARK  status: ('A' for Active; 'I' for Inactive)
REMARK    1  A    between atoms: C_7  and  C_8 
REMARK    2  A    between atoms: C_8  and  O_9 
REMARK    3  A    between atoms: N_12  and  C_13 
REMARK    4  A    between atoms: C_13  and  C_14 
REMARK    5  A    between atoms: C_14  and  C_15 
REMARK    6  A    between atoms: C_15  and  C_16 
ROOT
HETATM    1  C   UNL     1      41.855 -13.732   3.887  1.00  0.00     0.199 A 
HETATM    2  C   UNL     1      42.534 -14.291   2.590  1.00  0.00     0.269 A 
HETATM    3  O   UNL     1      43.040 -13.648   1.678  1.00  0.00    -0.269 OA
HETATM    4  N   UNL     1      42.498 -15.696   2.679  1.00  0.00    -0.314 N 
HETATM    5  C   UNL     1      41.831 -16.115   3.841  1.00  0.00     0.047 A 
HETATM    6  C   UNL     1      41.413 -15.002   4.579  1.00  0.00     0.017 A 
HETATM    7  C   UNL     1      41.568 -17.402   4.274  1.00  0.00     0.030 A 
HETATM    8  C   UNL     1      40.871 -17.564   5.475  1.00  0.00     0.002 A 
HETATM    9  C   UNL     1      40.454 -16.450   6.222  1.00  0.00     0.001 A 
HETATM   10  C   UNL     1      40.730 -15.157   5.779  1.00  0.00     0.013 A 
ENDROOT
BRANCH   1  11
HETATM   11  C   UNL     1      40.613 -12.916   3.600  1.00  0.00     0.025 A 
HETATM   12  C   UNL     1      40.178 -11.783   4.289  1.00  0.00     0.016 A 
HETATM   13  C   UNL     1      40.759 -11.066   5.458  1.00  0.00     0.069 C 
HETATM   14  N   UNL     1      39.031 -11.330   3.693  1.00  0.00    -0.359 N 
HETATM   15  H   UNL     1      38.513 -10.511   3.981  1.00  0.00     0.166 HD
HETATM   16  C   UNL     1      38.679 -12.131   2.638  1.00  0.00     0.043 A 
HETATM   17  C   UNL     1      39.641 -13.138   2.548  1.00  0.00     0.003 A 
HETATM   18  C   UNL     1      37.588 -12.030   1.766  1.00  0.00     0.030 A 
HETATM   19  C   UNL     1      39.484 -14.098   1.522  1.00  0.00     0.014 A 
HETATM   20  C   UNL     1      38.399 -14.014   0.639  1.00  0.00     0.001 A 
HETATM   21  C   UNL     1      37.466 -12.991   0.761  1.00  0.00     0.002 A 
ENDBRANCH   1  11
BRANCH   1  22
HETATM   22  O   UNL     1      42.805 -13.065   4.717  1.00  0.00    -0.371 OA
HETATM   23  H   UNL     1      42.315 -12.384   5.206  1.00  0.00     0.212 HD
ENDBRANCH   1  22
BRANCH   4  24
HETATM   24  C   UNL     1      42.956 -16.561   1.614  1.00  0.00     0.133 C 
BRANCH  24  25
HETATM   25  C   UNL     1      43.971 -17.613   2.061  1.00  0.00     0.025 C 
BRANCH  25  26
HETATM   26  C   UNL     1      43.616 -19.024   1.590  1.00  0.00     0.040 C 
BRANCH  26  27
HETATM   27  C   UNL     1      44.064 -20.062   2.591  1.00  0.00    -0.058 A 
HETATM   28  C   UNL     1      44.137 -21.414   2.229  1.00  0.00     0.007 A 
HETATM   29  C   UNL     1      44.516 -22.379   3.163  1.00  0.00     0.001 A 
HETATM   30  C   UNL     1      44.828 -22.002   4.469  1.00  0.00     0.000 A 
HETATM   31  C   UNL     1      44.761 -20.660   4.839  1.00  0.00     0.001 A 
HETATM   32  C   UNL     1      44.380 -19.694   3.906  1.00  0.00     0.007 A 
ENDBRANCH  26  27
ENDBRANCH  25  26
ENDBRANCH  24  25
ENDBRANCH   4  24
TORSDOF 6
ENDMDL
MODEL 4
REMARK VINA RESULT:      -8.3      2.202      3.395
REMARK  6 active torsions:
REMARK  status: ('A' for Active; 'I' for Inactive)
REMARK    1  A    between atoms: C_7  and  C_8 
REMARK    2  A    between atoms: C_8  and  O_9 
REMARK    3  A    between atoms: N_12  and  C_13 
REMARK    4  A    between atoms: C_13  and  C_14 
REMARK    5  A    between atoms: C_14  and  C_15 
REMARK    6  A    between atoms: C_15  and  C_16 
ROOT
HETATM    1  C   UNL     1      42.566 -17.547   3.139  1.00  0.00     0.199 A 
HETATM    2  C   UNL     1      43.305 -16.268   2.616  1.00  0.00     0.269 A 
HETATM    3  O   UNL     1      44.096 -16.194   1.684  1.00  0.00    -0.269 OA
HETATM    4  N   UNL     1      42.858 -15.185   3.398  1.00  0.00    -0.314 N 
HETATM    5  C   UNL     1      41.968 -15.613   4.396  1.00  0.00     0.047 A 
HETATM    6  C   UNL     1      41.776 -16.995   4.304  1.00  0.00     0.017 A 
HETATM    7  C   UNL     1      41.334 -14.864   5.371  1.00  0.00     0.030 A 
HETATM    8  C   UNL     1      40.490 -15.528   6.267  1.00  0.00     0.002 A 
HETATM    9  C   UNL     1      40.290 -16.914   6.176  1.00  0.00     0.001 A 
HETATM   10  C   UNL     1      40.930 -17.659   5.185  1.00  0.00     0.013 A 
ENDROOT
BRANCH   1  11
HETATM   11  C   UNL     1      43.513 -18.594   3.688  1.00  0.00     0.025 A 
HETATM   12  C   UNL     1      44.277 -18.504   4.852  1.00  0.00     0.016 A 
HETATM   13  C   UNL     1      44.400 -17.414   5.860  1.00  0.00     0.069 C 
HETATM   14  N   UNL     1      44.971 -19.675   5.004  1.00  0.00    -0.359 N 
HETATM   15  H   UNL     1      45.590 -19.886   5.773  1.00  0.00     0.166 HD
HETATM   16  C   UNL     1      44.706 -20.537   3.971  1.00  0.00     0.043 A 
HETATM   17  C   UNL     1      43.801 -19.898   3.124  1.00  0.00     0.003 A 
HETATM   18  C   UNL     1      45.199 -21.827   3.737  1.00  0.00     0.030 A 
HETATM   19  C   UNL     1      43.378 -20.601   1.973  1.00  0.00     0.014 A 
HETATM   20  C   UNL     1      43.860 -21.892   1.720  1.00  0.00     0.001 A 
HETATM   21  C   UNL     1      44.757 -22.495   2.594  1.00  0.00     0.002 A 
ENDBRANCH   1  11
BRANCH   1  22
HETATM   22  O   UNL     1      41.655 -18.048   2.163  1.00  0.00    -0.371 OA
HETATM   23  H   UNL     1      41.953 -17.707   1.304  1.00  0.00     0.212 HD
ENDBRANCH   1  22
BRANCH   4  24
HETATM   24  C   UNL     1      43.392 -13.848   3.264  1.00  0.00     0.133 C 
BRANCH  24  25
HETATM   25  C   UNL     1      42.390 -12.830   2.718  1.00  0.00     0.025 C 
BRANCH  25  26
HETATM   26  C   UNL     1      42.018 -13.083   1.256  1.00  0.00     0.040 C 
BRANCH  26  27
HETATM   27  C   UNL     1      40.547 -13.393   1.114  1.00  0.00    -0.058 A 
HETATM   28  C   UNL     1      39.697 -12.511   0.432  1.00  0.00     0.007 A 
HETATM   29  C   UNL     1      38.332 -12.778   0.331  1.00  0.00     0.001 A 
HETATM   30  C   UNL     1      37.801 -13.930   0.910  1.00  0.00     0.000 A 
HETATM   31  C   UNL     1      38.636 -14.815   1.589  1.00  0.00     0.001 A 
HETATM   32  C   UNL     1      40.003 -14.548   1.692  1.00  0.00     0.007 A 
ENDBRANCH  26  27
ENDBRANCH  25  26
ENDBRANCH  24  25
ENDBRANCH   4  24
TORSDOF 6
ENDMDL
MODEL 5
REMARK VINA RESULT:      -8.3      2.003      3.661
REMARK  6 active torsions:
REMARK  status: ('A' for Active; 'I' for Inactive)
REMARK    1  A    between atoms: C_7  and  C_8 
REMARK    2  A    between atoms: C_8  and  O_9 
REMARK    3  A    between atoms: N_12  and  C_13 
REMARK    4  A    between atoms: C_13  and  C_14 
REMARK    5  A    between atoms: C_14  and  C_15 
REMARK    6  A    between atoms: C_15  and  C_16 
ROOT
HETATM    1  C   UNL     1      41.561 -17.043   3.724  1.00  0.00     0.199 A 
HETATM    2  C   UNL     1      40.688 -16.641   2.487  1.00  0.00     0.269 A 
HETATM    3  O   UNL     1      39.981 -17.373   1.805  1.00  0.00    -0.269 OA
HETATM    4  N   UNL     1      40.827 -15.250   2.319  1.00  0.00    -0.314 N 
HETATM    5  C   UNL     1      41.725 -14.713   3.254  1.00  0.00     0.047 A 
HETATM    6  C   UNL     1      42.203 -15.725   4.093  1.00  0.00     0.017 A 
HETATM    7  C   UNL     1      42.144 -13.402   3.402  1.00  0.00     0.030 A 
HETATM    8  C   UNL     1      43.062 -13.114   4.416  1.00  0.00     0.002 A 
HETATM    9  C   UNL     1      43.541 -14.126   5.263  1.00  0.00     0.001 A 
HETATM   10  C   UNL     1      43.107 -15.442   5.110  1.00  0.00     0.013 A 
ENDROOT
BRANCH   1  11
HETATM   11  C   UNL     1      42.674 -18.008   3.373  1.00  0.00     0.025 A 
HETATM   12  C   UNL     1      43.318 -18.131   2.141  1.00  0.00     0.016 A 
HETATM   13  C   UNL     1      43.123 -17.401   0.858  1.00  0.00     0.069 C 
HETATM   14  N   UNL     1      44.283 -19.097   2.253  1.00  0.00    -0.359 N 
HETATM   15  H   UNL     1      44.911 -19.377   1.514  1.00  0.00     0.166 HD
HETATM   16  C   UNL     1      44.293 -19.632   3.516  1.00  0.00     0.043 A 
HETATM   17  C   UNL     1      43.299 -18.981   4.247  1.00  0.00     0.003 A 
HETATM   18  C   UNL     1      45.110 -20.635   4.053  1.00  0.00     0.030 A 
HETATM   19  C   UNL     1      43.119 -19.372   5.593  1.00  0.00     0.014 A 
HETATM   20  C   UNL     1      43.926 -20.374   6.149  1.00  0.00     0.001 A 
HETATM   21  C   UNL     1      44.909 -20.994   5.386  1.00  0.00     0.002 A 
ENDBRANCH   1  11
BRANCH   1  22
HETATM   22  O   UNL     1      40.744 -17.475   4.810  1.00  0.00    -0.371 OA
HETATM   23  H   UNL     1      40.314 -18.297   4.524  1.00  0.00     0.212 HD
ENDBRANCH   1  22
BRANCH   4  24
HETATM   24  C   UNL     1      40.233 -14.529   1.214  1.00  0.00     0.133 C 
BRANCH  24  25
HETATM   25  C   UNL     1      41.159 -14.363   0.010  1.00  0.00     0.025 C 
BRANCH  25  26
HETATM   26  C   UNL     1      40.543 -13.516  -1.105  1.00  0.00     0.040 C 
BRANCH  26  27
HETATM   27  C   UNL     1      39.814 -14.380  -2.106  1.00  0.00    -0.058 A 
HETATM   28  C   UNL     1      40.463 -15.462  -2.717  1.00  0.00     0.007 A 
HETATM   29  C   UNL     1      39.802 -16.239  -3.669  1.00  0.00     0.001 A 
HETATM   30  C   UNL     1      38.485 -15.944  -4.019  1.00  0.00     0.000 A 
HETATM   31  C   UNL     1      37.830 -14.872  -3.417  1.00  0.00     0.001 A 
HETATM   32  C   UNL     1      38.491 -14.092  -2.466  1.00  0.00     0.007 A 
ENDBRANCH  26  27
ENDBRANCH  25  26
ENDBRANCH  24  25
ENDBRANCH   4  24
TORSDOF 6
ENDMDL
MODEL 6
REMARK VINA RESULT:      -8.2      2.942      7.348
REMARK  6 active torsions:
REMARK  status: ('A' for Active; 'I' for Inactive)
REMARK    1  A    between atoms: C_7  and  C_8 
REMARK    2  A    between atoms: C_8  and  O_9 
REMARK    3  A    between atoms: N_12  and  C_13 
REMARK    4  A    between atoms: C_13  and  C_14 
REMARK    5  A    between atoms: C_14  and  C_15 
REMARK    6  A    between atoms: C_15  and  C_16 
ROOT
HETATM    1  C   UNL     1      41.842 -13.630   3.998  1.00  0.00     0.199 A 
HETATM    2  C   UNL     1      42.433 -14.118   2.632  1.00  0.00     0.269 A 
HETATM    3  O   UNL     1      42.893 -13.429   1.730  1.00  0.00    -0.269 OA
HETATM    4  N   UNL     1      42.382 -15.526   2.640  1.00  0.00    -0.314 N 
HETATM    5  C   UNL     1      41.779 -16.005   3.813  1.00  0.00     0.047 A 
HETATM    6  C   UNL     1      41.423 -14.934   4.639  1.00  0.00     0.017 A 
HETATM    7  C   UNL     1      41.524 -17.313   4.186  1.00  0.00     0.030 A 
HETATM    8  C   UNL     1      40.898 -17.538   5.416  1.00  0.00     0.002 A 
HETATM    9  C   UNL     1      40.543 -16.466   6.250  1.00  0.00     0.001 A 
HETATM   10  C   UNL     1      40.811 -15.152   5.868  1.00  0.00     0.013 A 
ENDROOT
BRANCH   1  11
HETATM   11  C   UNL     1      40.597 -12.784   3.835  1.00  0.00     0.025 A 
HETATM   12  C   UNL     1      39.506 -13.052   3.007  1.00  0.00     0.016 A 
HETATM   13  C   UNL     1      39.239 -14.181   2.074  1.00  0.00     0.069 C 
HETATM   14  N   UNL     1      38.581 -12.055   3.177  1.00  0.00    -0.359 N 
HETATM   15  H   UNL     1      37.687 -12.009   2.711  1.00  0.00     0.166 HD
HETATM   16  C   UNL     1      39.026 -11.125   4.081  1.00  0.00     0.043 A 
HETATM   17  C   UNL     1      40.285 -11.542   4.514  1.00  0.00     0.003 A 
HETATM   18  C   UNL     1      38.402  -9.959   4.542  1.00  0.00     0.030 A 
HETATM   19  C   UNL     1      40.951 -10.729   5.460  1.00  0.00     0.014 A 
HETATM   20  C   UNL     1      40.344  -9.558   5.932  1.00  0.00     0.001 A 
HETATM   21  C   UNL     1      39.085  -9.182   5.479  1.00  0.00     0.002 A 
ENDBRANCH   1  11
BRANCH   1  22
HETATM   22  O   UNL     1      42.850 -13.025   4.806  1.00  0.00    -0.371 OA
HETATM   23  H   UNL     1      42.401 -12.368   5.363  1.00  0.00     0.212 HD
ENDBRANCH   1  22
BRANCH   4  24
HETATM   24  C   UNL     1      42.762 -16.332   1.500  1.00  0.00     0.133 C 
BRANCH  24  25
HETATM   25  C   UNL     1      43.850 -17.361   1.802  1.00  0.00     0.025 C 
BRANCH  25  26
HETATM   26  C   UNL     1      43.477 -18.775   1.353  1.00  0.00     0.040 C 
BRANCH  26  27
HETATM   27  C   UNL     1      43.964 -19.807   2.342  1.00  0.00    -0.058 A 
HETATM   28  C   UNL     1      43.976 -21.167   2.002  1.00  0.00     0.007 A 
HETATM   29  C   UNL     1      44.392 -22.125   2.927  1.00  0.00     0.001 A 
HETATM   30  C   UNL     1      44.802 -21.734   4.201  1.00  0.00     0.000 A 
HETATM   31  C   UNL     1      44.797 -20.385   4.549  1.00  0.00     0.001 A 
HETATM   32  C   UNL     1      44.379 -19.425   3.625  1.00  0.00     0.007 A 
ENDBRANCH  26  27
ENDBRANCH  25  26
ENDBRANCH  24  25
ENDBRANCH   4  24
TORSDOF 6
ENDMDL
MODEL 7
REMARK VINA RESULT:      -8.2      2.525      7.137
REMARK  6 active torsions:
REMARK  status: ('A' for Active; 'I' for Inactive)
REMARK    1  A    between atoms: C_7  and  C_8 
REMARK    2  A    between atoms: C_8  and  O_9 
REMARK    3  A    between atoms: N_12  and  C_13 
REMARK    4  A    between atoms: C_13  and  C_14 
REMARK    5  A    between atoms: C_14  and  C_15 
REMARK    6  A    between atoms: C_15  and  C_16 
ROOT
HETATM    1  C   UNL     1      40.494 -15.130   3.081  1.00  0.00     0.199 A 
HETATM    2  C   UNL     1      41.007 -16.610   3.098  1.00  0.00     0.269 A 
HETATM    3  O   UNL     1      41.029 -17.380   4.050  1.00  0.00    -0.269 OA
HETATM    4  N   UNL     1      41.408 -16.923   1.784  1.00  0.00    -0.314 N 
HETATM    5  C   UNL     1      41.273 -15.813   0.935  1.00  0.00     0.047 A 
HETATM    6  C   UNL     1      40.760 -14.725   1.648  1.00  0.00     0.017 A 
HETATM    7  C   UNL     1      41.581 -15.708  -0.410  1.00  0.00     0.030 A 
HETATM    8  C   UNL     1      41.363 -14.479  -1.041  1.00  0.00     0.002 A 
HETATM    9  C   UNL     1      40.843 -13.386  -0.331  1.00  0.00     0.001 A 
HETATM   10  C   UNL     1      40.530 -13.505   1.024  1.00  0.00     0.013 A 
ENDROOT
BRANCH   1  11
HETATM   11  C   UNL     1      41.306 -14.213   3.970  1.00  0.00     0.025 A 
HETATM   12  C   UNL     1      42.690 -14.029   3.942  1.00  0.00     0.016 A 
HETATM   13  C   UNL     1      43.741 -14.643   3.085  1.00  0.00     0.069 C 
HETATM   14  N   UNL     1      43.019 -13.093   4.886  1.00  0.00    -0.359 N 
HETATM   15  H   UNL     1      43.954 -12.757   5.068  1.00  0.00     0.166 HD
HETATM   16  C   UNL     1      41.903 -12.658   5.553  1.00  0.00     0.043 A 
HETATM   17  C   UNL     1      40.810 -13.336   5.012  1.00  0.00     0.003 A 
HETATM   18  C   UNL     1      41.790 -11.716   6.584  1.00  0.00     0.030 A 
HETATM   19  C   UNL     1      39.535 -13.050   5.551  1.00  0.00     0.014 A 
HETATM   20  C   UNL     1      39.401 -12.112   6.583  1.00  0.00     0.001 A 
HETATM   21  C   UNL     1      40.515 -11.454   7.089  1.00  0.00     0.002 A 
ENDBRANCH   1  11
BRANCH   1  22
HETATM   22  O   UNL     1      39.089 -15.071   3.321  1.00  0.00    -0.371 OA
HETATM   23  H   UNL     1      38.947 -15.408   4.220  1.00  0.00     0.212 HD
ENDBRANCH   1  22
BRANCH   4  24
HETATM   24  C   UNL     1      42.025 -18.182   1.431  1.00  0.00     0.133 C 
BRANCH  24  25
HETATM   25  C   UNL     1      43.552 -18.164   1.485  1.00  0.00     0.025 C 
BRANCH  25  26
HETATM   26  C   UNL     1      44.103 -18.380   2.896  1.00  0.00     0.040 C 
BRANCH  26  27
HETATM   27  C   UNL     1      44.323 -19.847   3.176  1.00  0.00    -0.058 A 
HETATM   28  C   UNL     1      44.147 -20.799   2.162  1.00  0.00     0.007 A 
HETATM   29  C   UNL     1      44.315 -22.158   2.429  1.00  0.00     0.001 A 
HETATM   30  C   UNL     1      44.663 -22.580   3.711  1.00  0.00     0.000 A 
HETATM   31  C   UNL     1      44.843 -21.643   4.726  1.00  0.00     0.001 A 
HETATM   32  C   UNL     1      44.673 -20.283   4.461  1.00  0.00     0.007 A 
ENDBRANCH  26  27
ENDBRANCH  25  26
ENDBRANCH  24  25
ENDBRANCH   4  24
TORSDOF 6
ENDMDL
MODEL 8
REMARK VINA RESULT:      -8.0      2.476      7.078
REMARK  6 active torsions:
REMARK  status: ('A' for Active; 'I' for Inactive)
REMARK    1  A    between atoms: C_7  and  C_8 
REMARK    2  A    between atoms: C_8  and  O_9 
REMARK    3  A    between atoms: N_12  and  C_13 
REMARK    4  A    between atoms: C_13  and  C_14 
REMARK    5  A    between atoms: C_14  and  C_15 
REMARK    6  A    between atoms: C_15  and  C_16 
ROOT
HETATM    1  C   UNL     1      40.243 -14.619   2.182  1.00  0.00     0.199 A 
HETATM    2  C   UNL     1      40.887 -13.732   3.301  1.00  0.00     0.269 A 
HETATM    3  O   UNL     1      40.362 -12.817   3.921  1.00  0.00    -0.269 OA
HETATM    4  N   UNL     1      42.196 -14.213   3.505  1.00  0.00    -0.314 N 
HETATM    5  C   UNL     1      42.496 -15.259   2.619  1.00  0.00     0.047 A 
HETATM    6  C   UNL     1      41.392 -15.527   1.804  1.00  0.00     0.017 A 
HETATM    7  C   UNL     1      43.674 -15.973   2.487  1.00  0.00     0.030 A 
HETATM    8  C   UNL     1      43.732 -16.975   1.513  1.00  0.00     0.002 A 
HETATM    9  C   UNL     1      42.624 -17.250   0.696  1.00  0.00     0.001 A 
HETATM   10  C   UNL     1      41.439 -16.529   0.842  1.00  0.00     0.013 A 
ENDROOT
BRANCH   1  11
HETATM   11  C   UNL     1      39.862 -13.829   0.948  1.00  0.00     0.025 A 
HETATM   12  C   UNL     1      38.589 -13.711   0.390  1.00  0.00     0.016 A 
HETATM   13  C   UNL     1      37.281 -14.293   0.802  1.00  0.00     0.069 C 
HETATM   14  N   UNL     1      38.671 -12.884  -0.699  1.00  0.00    -0.359 N 
HETATM   15  H   UNL     1      37.890 -12.613  -1.281  1.00  0.00     0.166 HD
HETATM   16  C   UNL     1      39.959 -12.460  -0.894  1.00  0.00     0.043 A 
HETATM   17  C   UNL     1      40.738 -13.031   0.113  1.00  0.00     0.003 A 
HETATM   18  C   UNL     1      40.480 -11.614  -1.882  1.00  0.00     0.030 A 
HETATM   19  C   UNL     1      42.120 -12.734   0.115  1.00  0.00     0.014 A 
HETATM   20  C   UNL     1      42.660 -11.891  -0.865  1.00  0.00     0.001 A 
HETATM   21  C   UNL     1      41.848 -11.338  -1.848  1.00  0.00     0.002 A 
ENDBRANCH   1  11
BRANCH   1  22
HETATM   22  O   UNL     1      39.182 -15.417   2.706  1.00  0.00    -0.371 OA
HETATM   23  H   UNL     1      38.592 -15.617   1.962  1.00  0.00     0.212 HD
ENDBRANCH   1  22
BRANCH   4  24
HETATM   24  C   UNL     1      43.133 -13.579   4.407  1.00  0.00     0.133 C 
BRANCH  24  25
HETATM   25  C   UNL     1      43.082 -14.120   5.836  1.00  0.00     0.025 C 
BRANCH  25  26
HETATM   26  C   UNL     1      42.199 -15.360   5.975  1.00  0.00     0.040 C 
BRANCH  26  27
HETATM   27  C   UNL     1      43.027 -16.623   5.971  1.00  0.00    -0.058 A 
HETATM   28  C   UNL     1      44.304 -16.637   6.550  1.00  0.00     0.007 A 
HETATM   29  C   UNL     1      45.085 -17.792   6.515  1.00  0.00     0.001 A 
HETATM   30  C   UNL     1      44.598 -18.946   5.902  1.00  0.00     0.000 A 
HETATM   31  C   UNL     1      43.330 -18.944   5.326  1.00  0.00     0.001 A 
HETATM   32  C   UNL     1      42.548 -17.788   5.358  1.00  0.00     0.007 A 
ENDBRANCH  26  27
ENDBRANCH  25  26
ENDBRANCH  24  25
ENDBRANCH   4  24
TORSDOF 6
ENDMDL
MODEL 9
REMARK VINA RESULT:      -8.0      2.362      7.263
REMARK  6 active torsions:
REMARK  status: ('A' for Active; 'I' for Inactive)
REMARK    1  A    between atoms: C_7  and  C_8 
REMARK    2  A    between atoms: C_8  and  O_9 
REMARK    3  A    between atoms: N_12  and  C_13 
REMARK    4  A    between atoms: C_13  and  C_14 
REMARK    5  A    between atoms: C_14  and  C_15 
REMARK    6  A    between atoms: C_15  and  C_16 
ROOT
HETATM    1  C   UNL     1      40.442 -14.886   5.131  1.00  0.00     0.199 A 
HETATM    2  C   UNL     1      41.318 -16.091   5.616  1.00  0.00     0.269 A 
HETATM    3  O   UNL     1      41.703 -16.321   6.756  1.00  0.00    -0.269 OA
HETATM    4  N   UNL     1      41.555 -16.907   4.493  1.00  0.00    -0.314 N 
HETATM    5  C   UNL     1      40.992 -16.351   3.334  1.00  0.00     0.047 A 
HETATM    6  C   UNL     1      40.343 -15.152   3.646  1.00  0.00     0.017 A 
HETATM    7  C   UNL     1      41.025 -16.832   2.036  1.00  0.00     0.030 A 
HETATM    8  C   UNL     1      40.390 -16.084   1.040  1.00  0.00     0.002 A 
HETATM    9  C   UNL     1      39.733 -14.883   1.349  1.00  0.00     0.001 A 
HETATM   10  C   UNL     1      39.700 -14.411   2.662  1.00  0.00     0.013 A 
ENDROOT
BRANCH   1  11
HETATM   11  C   UNL     1      41.128 -13.548   5.308  1.00  0.00     0.025 A 
HETATM   12  C   UNL     1      42.329 -13.140   4.726  1.00  0.00     0.016 A 
HETATM   13  C   UNL     1      43.263 -13.849   3.808  1.00  0.00     0.069 C 
HETATM   14  N   UNL     1      42.581 -11.851   5.118  1.00  0.00    -0.359 N 
HETATM   15  H   UNL     1      43.379 -11.303   4.829  1.00  0.00     0.166 HD
HETATM   16  C   UNL     1      41.595 -11.393   5.953  1.00  0.00     0.043 A 
HETATM   17  C   UNL     1      40.668 -12.425   6.100  1.00  0.00     0.003 A 
HETATM   18  C   UNL     1      41.462 -10.146   6.576  1.00  0.00     0.030 A 
HETATM   19  C   UNL     1      39.550 -12.182   6.930  1.00  0.00     0.014 A 
HETATM   20  C   UNL     1      39.399 -10.941   7.563  1.00  0.00     0.001 A 
HETATM   21  C   UNL     1      40.344  -9.938   7.385  1.00  0.00     0.002 A 
ENDBRANCH   1  11
BRANCH   1  22
HETATM   22  O   UNL     1      39.133 -14.943   5.695  1.00  0.00    -0.371 OA
HETATM   23  H   UNL     1      38.538 -14.516   5.058  1.00  0.00     0.212 HD
ENDBRANCH   1  22
BRANCH   4  24
HETATM   24  C   UNL     1      42.408 -18.074   4.537  1.00  0.00     0.133 C 
BRANCH  24  25
HETATM   25  C   UNL     1      43.897 -17.762   4.390  1.00  0.00     0.025 C 
BRANCH  25  26
HETATM   26  C   UNL     1      44.794 -18.781   5.095  1.00  0.00     0.040 C 
BRANCH  26  27
HETATM   27  C   UNL     1      44.700 -20.137   4.437  1.00  0.00    -0.058 A 
HETATM   28  C   UNL     1      44.751 -21.306   5.209  1.00  0.00     0.007 A 
HETATM   29  C   UNL     1      44.700 -22.560   4.600  1.00  0.00     0.001 A 
HETATM   30  C   UNL     1      44.596 -22.659   3.213  1.00  0.00     0.000 A 
HETATM   31  C   UNL     1      44.542 -21.504   2.436  1.00  0.00     0.001 A 
HETATM   32  C   UNL     1      44.595 -20.248   3.044  1.00  0.00     0.007 A 
ENDBRANCH  26  27
ENDBRANCH  25  26
ENDBRANCH  24  25
ENDBRANCH   4  24
TORSDOF 6
ENDMDL
MODEL 10
REMARK VINA RESULT:      -7.9      2.406      3.761
REMARK  6 active torsions:
REMARK  status: ('A' for Active; 'I' for Inactive)
REMARK    1  A    between atoms: C_7  and  C_8 
REMARK    2  A    between atoms: C_8  and  O_9 
REMARK    3  A    between atoms: N_12  and  C_13 
REMARK    4  A    between atoms: C_13  and  C_14 
REMARK    5  A    between atoms: C_14  and  C_15 
REMARK    6  A    between atoms: C_15  and  C_16 
ROOT
HETATM    1  C   UNL     1      41.653 -17.076   3.959  1.00  0.00     0.199 A 
HETATM    2  C   UNL     1      40.841 -16.473   2.764  1.00  0.00     0.269 A 
HETATM    3  O   UNL     1      40.109 -17.069   1.983  1.00  0.00    -0.269 OA
HETATM    4  N   UNL     1      41.071 -15.083   2.769  1.00  0.00    -0.314 N 
HETATM    5  C   UNL     1      41.975 -14.722   3.781  1.00  0.00     0.047 A 
HETATM    6  C   UNL     1      42.366 -15.857   4.499  1.00  0.00     0.017 A 
HETATM    7  C   UNL     1      42.470 -13.469   4.095  1.00  0.00     0.030 A 
HETATM    8  C   UNL     1      43.377 -13.365   5.154  1.00  0.00     0.002 A 
HETATM    9  C   UNL     1      43.768 -14.501   5.881  1.00  0.00     0.001 A 
HETATM   10  C   UNL     1      43.257 -15.758   5.560  1.00  0.00     0.013 A 
ENDROOT
BRANCH   1  11
HETATM   11  C   UNL     1      42.713 -18.063   3.516  1.00  0.00     0.025 A 
HETATM   12  C   UNL     1      43.299 -18.149   2.252  1.00  0.00     0.016 A 
HETATM   13  C   UNL     1      43.078 -17.352   1.014  1.00  0.00     0.069 C 
HETATM   14  N   UNL     1      44.230 -19.154   2.277  1.00  0.00    -0.359 N 
HETATM   15  H   UNL     1      44.816 -19.421   1.499  1.00  0.00     0.166 HD
HETATM   16  C   UNL     1      44.274 -19.749   3.512  1.00  0.00     0.043 A 
HETATM   17  C   UNL     1      43.337 -19.098   4.315  1.00  0.00     0.003 A 
HETATM   18  C   UNL     1      45.075 -20.805   3.965  1.00  0.00     0.030 A 
HETATM   19  C   UNL     1      43.200 -19.547   5.649  1.00  0.00     0.014 A 
HETATM   20  C   UNL     1      43.991 -20.602   6.122  1.00  0.00     0.001 A 
HETATM   21  C   UNL     1      44.917 -21.220   5.289  1.00  0.00     0.002 A 
ENDBRANCH   1  11
BRANCH   1  22
HETATM   22  O   UNL     1      40.781 -17.582   4.969  1.00  0.00    -0.371 OA
HETATM   23  H   UNL     1      39.878 -17.504   4.619  1.00  0.00     0.212 HD
ENDBRANCH   1  22
BRANCH   4  24
HETATM   24  C   UNL     1      40.553 -14.198   1.749  1.00  0.00     0.133 C 
BRANCH  24  25
HETATM   25  C   UNL     1      41.501 -13.988   0.568  1.00  0.00     0.025 C 
BRANCH  25  26
HETATM   26  C   UNL     1      41.993 -12.545   0.445  1.00  0.00     0.040 C 
BRANCH  26  27
HETATM   27  C   UNL     1      42.179 -12.154  -1.002  1.00  0.00    -0.058 A 
HETATM   28  C   UNL     1      42.658 -10.881  -1.337  1.00  0.00     0.007 A 
HETATM   29  C   UNL     1      42.796 -10.505  -2.674  1.00  0.00     0.001 A 
HETATM   30  C   UNL     1      42.459 -11.399  -3.689  1.00  0.00     0.000 A 
HETATM   31  C   UNL     1      41.984 -12.669  -3.367  1.00  0.00     0.001 A 
HETATM   32  C   UNL     1      41.843 -13.045  -2.030  1.00  0.00     0.007 A 
ENDBRANCH  26  27
ENDBRANCH  25  26
ENDBRANCH  24  25
ENDBRANCH   4  24
TORSDOF 6
ENDMDL
