MODEL 1
REMARK VINA RESULT:      -7.6      0.000      0.000
REMARK  7 active torsions:
REMARK  status: ('A' for Active; 'I' for Inactive)
REMARK    1  A    between atoms: C_6  and  C_7 
REMARK    2  A    between atoms: C_7  and  S_8 
REMARK    3  A    between atoms: S_8  and  C_9 
REMARK    4  A    between atoms: N_10  and  C_11 
REMARK    5  A    between atoms: C_14  and  C_15 
REMARK    6  A    between atoms: C_15  and  O_16 
REMARK    7  A    between atoms: C_20  and  N_21 
ROOT
HETATM    1  C   UNL     1      44.058 -21.872   1.819  1.00  0.00     0.001 A 
HETATM    2  C   UNL     1      43.885 -20.495   1.945  1.00  0.00     0.017 A 
HETATM    3  C   UNL     1      44.171 -19.841   3.169  1.00  0.00     0.033 A 
HETATM    4  C   UNL     1      44.624 -20.580   4.266  1.00  0.00     0.072 A 
HETATM    5  N   UNL     1      44.892 -20.019   5.451  1.00  0.00    -0.232 NA
HETATM    6  C   UNL     1      44.695 -18.693   5.575  1.00  0.00     0.138 A 
HETATM    7  N   UNL     1      44.261 -17.892   4.584  1.00  0.00    -0.220 NA
HETATM    8  C   UNL     1      44.027 -18.469   3.398  1.00  0.00     0.115 A 
HETATM    9  C   UNL     1      44.793 -21.951   4.115  1.00  0.00     0.032 A 
HETATM   10  C   UNL     1      44.516 -22.602   2.908  1.00  0.00     0.002 A 
ENDROOT
BRANCH   6  11
HETATM   11  C   UNL     1      44.930 -18.077   6.933  1.00  0.00     0.163 C 
BRANCH  11  12
HETATM   12  S   UNL     1      43.407 -17.386   7.661  1.00  0.00    -0.082 SA
BRANCH  12  13
HETATM   13  C   UNL     1      43.448 -15.794   6.986  1.00  0.00     0.192 A 
HETATM   14  N   UNL     1      42.509 -15.218   6.159  1.00  0.00    -0.305 N 
HETATM   15  C   UNL     1      43.007 -13.963   5.870  1.00  0.00     0.154 A 
HETATM   16  N   UNL     1      44.148 -13.790   6.510  1.00  0.00    -0.132 NA
HETATM   17  N   UNL     1      44.421 -14.937   7.203  1.00  0.00    -0.123 NA
BRANCH  14  18
HETATM   18  C   UNL     1      41.230 -15.704   5.662  1.00  0.00     0.094 A 
HETATM   19  C   UNL     1      40.955 -16.018   4.204  1.00  0.00     0.028 A 
HETATM   20  C   UNL     1      40.985 -17.128   5.200  1.00  0.00     0.028 A 
ENDBRANCH  14  18
BRANCH  15  21
HETATM   21  C   UNL     1      42.354 -12.954   4.999  1.00  0.00     0.244 C 
BRANCH  21  22
HETATM   22  O   UNL     1      43.083 -12.865   3.777  1.00  0.00    -0.393 OA
HETATM   23  H   UNL     1      43.239 -13.783   3.474  1.00  0.00     0.209 HD
ENDBRANCH  21  22
ENDBRANCH  15  21
ENDBRANCH  12  13
ENDBRANCH  11  12
ENDBRANCH   6  11
BRANCH   8  24
HETATM   24  N   UNL     1      43.602 -17.592   2.392  1.00  0.00    -0.286 NA
HETATM   25  H   UNL     1      44.078 -17.875   1.539  1.00  0.00     0.125 HD
HETATM   26  H   UNL     1      42.595 -17.629   2.283  1.00  0.00     0.125 HD
ENDBRANCH   8  24
TORSDOF 7
ENDMDL
MODEL 2
REMARK VINA RESULT:      -7.4      2.074      2.995
REMARK  7 active torsions:
REMARK  status: ('A' for Active; 'I' for Inactive)
REMARK    1  A    between atoms: C_6  and  C_7 
REMARK    2  A    between atoms: C_7  and  S_8 
REMARK    3  A    between atoms: S_8  and  C_9 
REMARK    4  A    between atoms: N_10  and  C_11 
REMARK    5  A    between atoms: C_14  and  C_15 
REMARK    6  A    between atoms: C_15  and  O_16 
REMARK    7  A    between atoms: C_20  and  N_21 
ROOT
HETATM    1  C   UNL     1      44.862 -22.510   4.712  1.00  0.00     0.001 A 
HETATM    2  C   UNL     1      44.780 -21.205   5.192  1.00  0.00     0.017 A 
HETATM    3  C   UNL     1      44.472 -20.133   4.319  1.00  0.00     0.033 A 
HETATM    4  C   UNL     1      44.256 -20.380   2.960  1.00  0.00     0.072 A 
HETATM    5  N   UNL     1      43.981 -19.406   2.085  1.00  0.00    -0.232 NA
HETATM    6  C   UNL     1      43.931 -18.143   2.550  1.00  0.00     0.138 A 
HETATM    7  N   UNL     1      44.125 -17.797   3.836  1.00  0.00    -0.220 NA
HETATM    8  C   UNL     1      44.370 -18.791   4.699  1.00  0.00     0.115 A 
HETATM    9  C   UNL     1      44.340 -21.691   2.505  1.00  0.00     0.032 A 
HETATM   10  C   UNL     1      44.639 -22.754   3.364  1.00  0.00     0.002 A 
ENDROOT
BRANCH   6  11
HETATM   11  C   UNL     1      43.691 -17.040   1.548  1.00  0.00     0.163 C 
BRANCH  11  12
HETATM   12  S   UNL     1      42.081 -16.217   1.784  1.00  0.00    -0.082 SA
BRANCH  12  13
HETATM   13  C   UNL     1      42.533 -14.996   2.923  1.00  0.00     0.192 A 
HETATM   14  N   UNL     1      42.031 -14.818   4.193  1.00  0.00    -0.305 N 
HETATM   15  C   UNL     1      42.681 -13.702   4.682  1.00  0.00     0.154 A 
HETATM   16  N   UNL     1      43.538 -13.266   3.778  1.00  0.00    -0.132 NA
HETATM   17  N   UNL     1      43.440 -14.075   2.680  1.00  0.00    -0.123 NA
BRANCH  14  18
HETATM   18  C   UNL     1      41.063 -15.582   4.966  1.00  0.00     0.094 A 
HETATM   19  C   UNL     1      40.969 -17.094   4.943  1.00  0.00     0.028 A 
HETATM   20  C   UNL     1      41.417 -16.407   6.189  1.00  0.00     0.028 A 
ENDBRANCH  14  18
BRANCH  15  21
HETATM   21  C   UNL     1      42.472 -13.099   6.022  1.00  0.00     0.244 C 
BRANCH  21  22
HETATM   22  O   UNL     1      43.491 -13.572   6.900  1.00  0.00    -0.393 OA
HETATM   23  H   UNL     1      43.089 -14.278   7.444  1.00  0.00     0.209 HD
ENDBRANCH  21  22
ENDBRANCH  15  21
ENDBRANCH  12  13
ENDBRANCH  11  12
ENDBRANCH   6  11
BRANCH   8  24
HETATM   24  N   UNL     1      44.539 -18.386   6.029  1.00  0.00    -0.286 NA
HETATM   25  H   UNL     1      43.699 -18.668   6.529  1.00  0.00     0.125 HD
HETATM   26  H   UNL     1      45.368 -18.807   6.432  1.00  0.00     0.125 HD
ENDBRANCH   8  24
TORSDOF 7
ENDMDL
MODEL 3
REMARK VINA RESULT:      -7.3      3.650      4.640
REMARK  7 active torsions:
REMARK  status: ('A' for Active; 'I' for Inactive)
REMARK    1  A    between atoms: C_6  and  C_7 
REMARK    2  A    between atoms: C_7  and  S_8 
REMARK    3  A    between atoms: S_8  and  C_9 
REMARK    4  A    between atoms: N_10  and  C_11 
REMARK    5  A    between atoms: C_14  and  C_15 
REMARK    6  A    between atoms: C_15  and  O_16 
REMARK    7  A    between atoms: C_20  and  N_21 
ROOT
HETATM    1  C   UNL     1      44.926 -22.256   4.888  1.00  0.00     0.001 A 
HETATM    2  C   UNL     1      44.751 -20.905   5.183  1.00  0.00     0.017 A 
HETATM    3  C   UNL     1      44.365 -19.990   4.172  1.00  0.00     0.033 A 
HETATM    4  C   UNL     1      44.164 -20.440   2.864  1.00  0.00     0.072 A 
HETATM    5  N   UNL     1      43.817 -19.620   1.865  1.00  0.00    -0.232 NA
HETATM    6  C   UNL     1      43.679 -18.311   2.150  1.00  0.00     0.138 A 
HETATM    7  N   UNL     1      43.850 -17.776   3.373  1.00  0.00    -0.220 NA
HETATM    8  C   UNL     1      44.168 -18.619   4.363  1.00  0.00     0.115 A 
HETATM    9  C   UNL     1      44.341 -21.793   2.596  1.00  0.00     0.032 A 
HETATM   10  C   UNL     1      44.717 -22.701   3.590  1.00  0.00     0.002 A 
ENDROOT
BRANCH   6  11
HETATM   11  C   UNL     1      43.358 -17.379   1.006  1.00  0.00     0.163 C 
BRANCH  11  12
HETATM   12  S   UNL     1      41.643 -16.763   1.065  1.00  0.00    -0.082 SA
BRANCH  12  13
HETATM   13  C   UNL     1      41.939 -15.067   1.229  1.00  0.00     0.192 A 
HETATM   14  N   UNL     1      41.605 -14.075   0.335  1.00  0.00    -0.305 N 
HETATM   15  C   UNL     1      42.079 -12.907   0.900  1.00  0.00     0.154 A 
HETATM   16  N   UNL     1      42.625 -13.181   2.070  1.00  0.00    -0.132 NA
HETATM   17  N   UNL     1      42.539 -14.531   2.270  1.00  0.00    -0.123 NA
BRANCH  14  18
HETATM   18  C   UNL     1      40.888 -14.115  -0.932  1.00  0.00     0.094 A 
HETATM   19  C   UNL     1      41.544 -13.890  -2.280  1.00  0.00     0.028 A 
HETATM   20  C   UNL     1      41.013 -15.242  -1.940  1.00  0.00     0.028 A 
ENDBRANCH  14  18
BRANCH  15  21
HETATM   21  C   UNL     1      41.969 -11.552   0.305  1.00  0.00     0.244 C 
BRANCH  21  22
HETATM   22  O   UNL     1      43.148 -11.289  -0.452  1.00  0.00    -0.393 OA
HETATM   23  H   UNL     1      43.902 -11.623   0.075  1.00  0.00     0.209 HD
ENDBRANCH  21  22
ENDBRANCH  15  21
ENDBRANCH  12  13
ENDBRANCH  11  12
ENDBRANCH   6  11
BRANCH   8  24
HETATM   24  N   UNL     1      44.312 -18.020   5.621  1.00  0.00    -0.286 NA
HETATM   25  H   UNL     1      43.471 -18.245   6.148  1.00  0.00     0.125 HD
HETATM   26  H   UNL     1      45.143 -18.360   6.089  1.00  0.00     0.125 HD
ENDBRANCH   8  24
TORSDOF 7
ENDMDL
MODEL 4
REMARK VINA RESULT:      -7.0      2.600      3.631
REMARK  7 active torsions:
REMARK  status: ('A' for Active; 'I' for Inactive)
REMARK    1  A    between atoms: C_6  and  C_7 
REMARK    2  A    between atoms: C_7  and  S_8 
REMARK    3  A    between atoms: S_8  and  C_9 
REMARK    4  A    between atoms: N_10  and  C_11 
REMARK    5  A    between atoms: C_14  and  C_15 
REMARK    6  A    between atoms: C_15  and  O_16 
REMARK    7  A    between atoms: C_20  and  N_21 
ROOT
HETATM    1  C   UNL     1      44.621 -22.283   3.386  1.00  0.00     0.001 A 
HETATM    2  C   UNL     1      44.724 -21.252   4.317  1.00  0.00     0.017 A 
HETATM    3  C   UNL     1      44.333 -19.933   3.980  1.00  0.00     0.033 A 
HETATM    4  C   UNL     1      43.845 -19.656   2.700  1.00  0.00     0.072 A 
HETATM    5  N   UNL     1      43.478 -18.427   2.319  1.00  0.00    -0.232 NA
HETATM    6  C   UNL     1      43.608 -17.429   3.214  1.00  0.00     0.138 A 
HETATM    7  N   UNL     1      44.067 -17.588   4.470  1.00  0.00    -0.220 NA
HETATM    8  C   UNL     1      44.401 -18.831   4.838  1.00  0.00     0.115 A 
HETATM    9  C   UNL     1      43.747 -20.701   1.789  1.00  0.00     0.032 A 
HETATM   10  C   UNL     1      44.127 -22.006   2.118  1.00  0.00     0.002 A 
ENDROOT
BRANCH   6  11
HETATM   11  C   UNL     1      43.261 -16.032   2.758  1.00  0.00     0.163 C 
BRANCH  11  12
HETATM   12  S   UNL     1      41.502 -15.859   2.309  1.00  0.00    -0.082 SA
BRANCH  12  13
HETATM   13  C   UNL     1      40.876 -15.221   3.790  1.00  0.00     0.192 A 
HETATM   14  N   UNL     1      40.378 -13.955   4.004  1.00  0.00    -0.305 N 
HETATM   15  C   UNL     1      40.038 -13.925   5.342  1.00  0.00     0.154 A 
HETATM   16  N   UNL     1      40.283 -15.105   5.880  1.00  0.00    -0.132 NA
HETATM   17  N   UNL     1      40.810 -15.911   4.908  1.00  0.00    -0.123 NA
BRANCH  14  18
HETATM   18  C   UNL     1      40.174 -12.831   3.103  1.00  0.00     0.094 A 
HETATM   19  C   UNL     1      39.738 -12.976   1.658  1.00  0.00     0.028 A 
HETATM   20  C   UNL     1      38.810 -12.350   2.643  1.00  0.00     0.028 A 
ENDBRANCH  14  18
BRANCH  15  21
HETATM   21  C   UNL     1      39.463 -12.761   6.062  1.00  0.00     0.244 C 
BRANCH  21  22
HETATM   22  O   UNL     1      39.302 -13.108   7.435  1.00  0.00    -0.393 OA
HETATM   23  H   UNL     1      40.200 -13.178   7.816  1.00  0.00     0.209 HD
ENDBRANCH  21  22
ENDBRANCH  15  21
ENDBRANCH  12  13
ENDBRANCH  11  12
ENDBRANCH   6  11
BRANCH   8  24
HETATM   24  N   UNL     1      44.849 -18.951   6.160  1.00  0.00    -0.286 NA
HETATM   25  H   UNL     1      44.542 -19.862   6.490  1.00  0.00     0.125 HD
HETATM   26  H   UNL     1      45.857 -18.861   6.209  1.00  0.00     0.125 HD
ENDBRANCH   8  24
TORSDOF 7
ENDMDL
MODEL 5
REMARK VINA RESULT:      -7.0      3.289      4.688
REMARK  7 active torsions:
REMARK  status: ('A' for Active; 'I' for Inactive)
REMARK    1  A    between atoms: C_6  and  C_7 
REMARK    2  A    between atoms: C_7  and  S_8 
REMARK    3  A    between atoms: S_8  and  C_9 
REMARK    4  A    between atoms: N_10  and  C_11 
REMARK    5  A    between atoms: C_14  and  C_15 
REMARK    6  A    between atoms: C_15  and  O_16 
REMARK    7  A    between atoms: C_20  and  N_21 
ROOT
HETATM    1  C   UNL     1      44.936 -22.200   4.779  1.00  0.00     0.001 A 
HETATM    2  C   UNL     1      44.760 -20.855   5.094  1.00  0.00     0.017 A 
HETATM    3  C   UNL     1      44.324 -19.934   4.109  1.00  0.00     0.033 A 
HETATM    4  C   UNL     1      44.072 -20.373   2.806  1.00  0.00     0.072 A 
HETATM    5  N   UNL     1      43.675 -19.547   1.831  1.00  0.00    -0.232 NA
HETATM    6  C   UNL     1      43.536 -18.243   2.135  1.00  0.00     0.138 A 
HETATM    7  N   UNL     1      43.753 -17.717   3.355  1.00  0.00    -0.220 NA
HETATM    8  C   UNL     1      44.121 -18.567   4.322  1.00  0.00     0.115 A 
HETATM    9  C   UNL     1      44.250 -21.721   2.517  1.00  0.00     0.032 A 
HETATM   10  C   UNL     1      44.677 -22.635   3.486  1.00  0.00     0.002 A 
ENDROOT
BRANCH   6  11
HETATM   11  C   UNL     1      43.158 -17.303   1.015  1.00  0.00     0.163 C 
BRANCH  11  12
HETATM   12  S   UNL     1      41.390 -16.858   1.042  1.00  0.00    -0.082 SA
BRANCH  12  13
HETATM   13  C   UNL     1      41.462 -15.300   0.293  1.00  0.00     0.192 A 
HETATM   14  N   UNL     1      41.861 -14.117   0.874  1.00  0.00    -0.305 N 
HETATM   15  C   UNL     1      41.711 -13.163  -0.114  1.00  0.00     0.154 A 
HETATM   16  N   UNL     1      41.285 -13.746  -1.220  1.00  0.00    -0.132 NA
HETATM   17  N   UNL     1      41.128 -15.080  -0.960  1.00  0.00    -0.123 NA
BRANCH  14  18
HETATM   18  C   UNL     1      42.377 -13.817   2.201  1.00  0.00     0.094 A 
HETATM   19  C   UNL     1      41.744 -12.813   3.145  1.00  0.00     0.028 A 
HETATM   20  C   UNL     1      41.712 -14.264   3.489  1.00  0.00     0.028 A 
ENDBRANCH  14  18
BRANCH  15  21
HETATM   21  C   UNL     1      42.006 -11.716   0.030  1.00  0.00     0.244 C 
BRANCH  21  22
HETATM   22  O   UNL     1      43.276 -11.448  -0.561  1.00  0.00    -0.393 OA
HETATM   23  H   UNL     1      43.634 -12.308  -0.863  1.00  0.00     0.209 HD
ENDBRANCH  21  22
ENDBRANCH  15  21
ENDBRANCH  12  13
ENDBRANCH  11  12
ENDBRANCH   6  11
BRANCH   8  24
HETATM   24  N   UNL     1      44.311 -17.979   5.579  1.00  0.00    -0.286 NA
HETATM   25  H   UNL     1      43.401 -17.960   6.032  1.00  0.00     0.125 HD
HETATM   26  H   UNL     1      44.985 -18.503   6.125  1.00  0.00     0.125 HD
ENDBRANCH   8  24
TORSDOF 7
ENDMDL
MODEL 6
REMARK VINA RESULT:      -6.9      4.609      6.165
REMARK  7 active torsions:
REMARK  status: ('A' for Active; 'I' for Inactive)
REMARK    1  A    between atoms: C_6  and  C_7 
REMARK    2  A    between atoms: C_7  and  S_8 
REMARK    3  A    between atoms: S_8  and  C_9 
REMARK    4  A    between atoms: N_10  and  C_11 
REMARK    5  A    between atoms: C_14  and  C_15 
REMARK    6  A    between atoms: C_15  and  O_16 
REMARK    7  A    between atoms: C_20  and  N_21 
ROOT
HETATM    1  C   UNL     1      44.891 -20.560   3.744  1.00  0.00     0.001 A 
HETATM    2  C   UNL     1      44.471 -19.402   4.396  1.00  0.00     0.017 A 
HETATM    3  C   UNL     1      43.488 -18.563   3.815  1.00  0.00     0.033 A 
HETATM    4  C   UNL     1      42.935 -18.892   2.574  1.00  0.00     0.072 A 
HETATM    5  N   UNL     1      42.017 -18.129   1.968  1.00  0.00    -0.232 NA
HETATM    6  C   UNL     1      41.638 -16.996   2.589  1.00  0.00     0.138 A 
HETATM    7  N   UNL     1      42.108 -16.588   3.783  1.00  0.00    -0.220 NA
HETATM    8  C   UNL     1      43.003 -17.381   4.383  1.00  0.00     0.115 A 
HETATM    9  C   UNL     1      43.367 -20.055   1.945  1.00  0.00     0.032 A 
HETATM   10  C   UNL     1      44.334 -20.888   2.516  1.00  0.00     0.002 A 
ENDROOT
BRANCH   6  11
HETATM   11  C   UNL     1      40.656 -16.103   1.870  1.00  0.00     0.163 C 
BRANCH  11  12
HETATM   12  S   UNL     1      41.464 -14.683   1.061  1.00  0.00    -0.082 SA
BRANCH  12  13
HETATM   13  C   UNL     1      40.711 -14.755  -0.494  1.00  0.00     0.192 A 
HETATM   14  N   UNL     1      39.485 -14.238  -0.849  1.00  0.00    -0.305 N 
HETATM   15  C   UNL     1      39.321 -14.581  -2.177  1.00  0.00     0.154 A 
HETATM   16  N   UNL     1      40.393 -15.228  -2.594  1.00  0.00    -0.132 NA
HETATM   17  N   UNL     1      41.257 -15.338  -1.539  1.00  0.00    -0.123 NA
BRANCH  14  18
HETATM   18  C   UNL     1      38.510 -13.459  -0.099  1.00  0.00     0.094 A 
HETATM   19  C   UNL     1      37.390 -14.072   0.717  1.00  0.00     0.028 A 
HETATM   20  C   UNL     1      38.495 -13.352   1.414  1.00  0.00     0.028 A 
ENDBRANCH  14  18
BRANCH  15  21
HETATM   21  C   UNL     1      38.141 -14.254  -3.014  1.00  0.00     0.244 C 
BRANCH  21  22
HETATM   22  O   UNL     1      37.259 -15.374  -3.018  1.00  0.00    -0.393 OA
HETATM   23  H   UNL     1      37.059 -15.579  -2.083  1.00  0.00     0.209 HD
ENDBRANCH  21  22
ENDBRANCH  15  21
ENDBRANCH  12  13
ENDBRANCH  11  12
ENDBRANCH   6  11
BRANCH   8  24
HETATM   24  N   UNL     1      43.444 -16.928   5.633  1.00  0.00    -0.286 NA
HETATM   25  H   UNL     1      43.084 -15.983   5.744  1.00  0.00     0.125 HD
HETATM   26  H   UNL     1      43.116 -17.537   6.374  1.00  0.00     0.125 HD
ENDBRANCH   8  24
TORSDOF 7
ENDMDL
MODEL 7
REMARK VINA RESULT:      -6.8      2.250      3.396
REMARK  7 active torsions:
REMARK  status: ('A' for Active; 'I' for Inactive)
REMARK    1  A    between atoms: C_6  and  C_7 
REMARK    2  A    between atoms: C_7  and  S_8 
REMARK    3  A    between atoms: S_8  and  C_9 
REMARK    4  A    between atoms: N_10  and  C_11 
REMARK    5  A    between atoms: C_14  and  C_15 
REMARK    6  A    between atoms: C_15  and  O_16 
REMARK    7  A    between atoms: C_20  and  N_21 
ROOT
HETATM    1  C   UNL     1      44.071 -21.131   6.805  1.00  0.00     0.001 A 
HETATM    2  C   UNL     1      44.262 -21.401   5.451  1.00  0.00     0.017 A 
HETATM    3  C   UNL     1      44.236 -20.355   4.496  1.00  0.00     0.033 A 
HETATM    4  C   UNL     1      44.011 -19.038   4.910  1.00  0.00     0.072 A 
HETATM    5  N   UNL     1      43.958 -18.013   4.052  1.00  0.00    -0.232 NA
HETATM    6  C   UNL     1      44.113 -18.284   2.742  1.00  0.00     0.138 A 
HETATM    7  N   UNL     1      44.333 -19.513   2.240  1.00  0.00    -0.220 NA
HETATM    8  C   UNL     1      44.411 -20.520   3.119  1.00  0.00     0.115 A 
HETATM    9  C   UNL     1      43.829 -18.794   6.266  1.00  0.00     0.032 A 
HETATM   10  C   UNL     1      43.857 -19.822   7.213  1.00  0.00     0.002 A 
ENDROOT
BRANCH   6  11
HETATM   11  C   UNL     1      43.981 -17.135   1.772  1.00  0.00     0.163 C 
BRANCH  11  12
HETATM   12  S   UNL     1      42.335 -16.353   1.832  1.00  0.00    -0.082 SA
BRANCH  12  13
HETATM   13  C   UNL     1      42.658 -15.058   2.932  1.00  0.00     0.192 A 
HETATM   14  N   UNL     1      42.005 -14.790   4.114  1.00  0.00    -0.305 N 
HETATM   15  C   UNL     1      42.604 -13.646   4.604  1.00  0.00     0.154 A 
HETATM   16  N   UNL     1      43.573 -13.278   3.786  1.00  0.00    -0.132 NA
HETATM   17  N   UNL     1      43.601 -14.161   2.742  1.00  0.00    -0.123 NA
BRANCH  14  18
HETATM   18  C   UNL     1      40.938 -15.494   4.811  1.00  0.00     0.094 A 
HETATM   19  C   UNL     1      40.842 -17.004   4.900  1.00  0.00     0.028 A 
HETATM   20  C   UNL     1      41.121 -16.213   6.134  1.00  0.00     0.028 A 
ENDBRANCH  14  18
BRANCH  15  21
HETATM   21  C   UNL     1      42.239 -12.951   5.863  1.00  0.00     0.244 C 
BRANCH  21  22
HETATM   22  O   UNL     1      43.157 -13.341   6.882  1.00  0.00    -0.393 OA
HETATM   23  H   UNL     1      43.361 -12.536   7.400  1.00  0.00     0.209 HD
ENDBRANCH  21  22
ENDBRANCH  15  21
ENDBRANCH  12  13
ENDBRANCH  11  12
ENDBRANCH   6  11
BRANCH   8  24
HETATM   24  N   UNL     1      44.665 -21.775   2.552  1.00  0.00    -0.286 NA
HETATM   25  H   UNL     1      45.608 -22.036   2.831  1.00  0.00     0.125 HD
HETATM   26  H   UNL     1      43.986 -22.458   2.867  1.00  0.00     0.125 HD
ENDBRANCH   8  24
TORSDOF 7
ENDMDL
MODEL 8
REMARK VINA RESULT:      -6.8      4.042      5.632
REMARK  7 active torsions:
REMARK  status: ('A' for Active; 'I' for Inactive)
REMARK    1  A    between atoms: C_6  and  C_7 
REMARK    2  A    between atoms: C_7  and  S_8 
REMARK    3  A    between atoms: S_8  and  C_9 
REMARK    4  A    between atoms: N_10  and  C_11 
REMARK    5  A    between atoms: C_14  and  C_15 
REMARK    6  A    between atoms: C_15  and  O_16 
REMARK    7  A    between atoms: C_20  and  N_21 
ROOT
HETATM    1  C   UNL     1      45.058 -20.730   4.061  1.00  0.00     0.001 A 
HETATM    2  C   UNL     1      44.750 -19.684   4.928  1.00  0.00     0.017 A 
HETATM    3  C   UNL     1      43.839 -18.670   4.541  1.00  0.00     0.033 A 
HETATM    4  C   UNL     1      43.247 -18.711   3.275  1.00  0.00     0.072 A 
HETATM    5  N   UNL     1      42.395 -17.772   2.847  1.00  0.00    -0.232 NA
HETATM    6  C   UNL     1      42.123 -16.749   3.679  1.00  0.00     0.138 A 
HETATM    7  N   UNL     1      42.639 -16.614   4.915  1.00  0.00    -0.220 NA
HETATM    8  C   UNL     1      43.467 -17.580   5.333  1.00  0.00     0.115 A 
HETATM    9  C   UNL     1      43.568 -19.767   2.429  1.00  0.00     0.032 A 
HETATM   10  C   UNL     1      44.463 -20.772   2.808  1.00  0.00     0.002 A 
ENDROOT
BRANCH   6  11
HETATM   11  C   UNL     1      41.217 -15.655   3.166  1.00  0.00     0.163 C 
BRANCH  11  12
HETATM   12  S   UNL     1      42.129 -14.351   2.275  1.00  0.00    -0.082 SA
BRANCH  12  13
HETATM   13  C   UNL     1      41.708 -14.752   0.646  1.00  0.00     0.192 A 
HETATM   14  N   UNL     1      41.743 -13.920  -0.450  1.00  0.00    -0.305 N 
HETATM   15  C   UNL     1      41.289 -14.691  -1.502  1.00  0.00     0.154 A 
HETATM   16  N   UNL     1      41.035 -15.911  -1.068  1.00  0.00    -0.132 NA
HETATM   17  N   UNL     1      41.294 -15.944   0.274  1.00  0.00    -0.123 NA
BRANCH  14  18
HETATM   18  C   UNL     1      42.174 -12.537  -0.601  1.00  0.00     0.094 A 
HETATM   19  C   UNL     1      41.227 -11.383  -0.867  1.00  0.00     0.028 A 
HETATM   20  C   UNL     1      41.942 -11.459   0.440  1.00  0.00     0.028 A 
ENDBRANCH  14  18
BRANCH  15  21
HETATM   21  C   UNL     1      41.134 -14.233  -2.906  1.00  0.00     0.244 C 
BRANCH  21  22
HETATM   22  O   UNL     1      42.245 -14.708  -3.665  1.00  0.00    -0.393 OA
HETATM   23  H   UNL     1      42.569 -13.951  -4.193  1.00  0.00     0.209 HD
ENDBRANCH  21  22
ENDBRANCH  15  21
ENDBRANCH  12  13
ENDBRANCH  11  12
ENDBRANCH   6  11
BRANCH   8  24
HETATM   24  N   UNL     1      43.958 -17.410   6.633  1.00  0.00    -0.286 NA
HETATM   25  H   UNL     1      44.203 -18.336   6.976  1.00  0.00     0.125 HD
HETATM   26  H   UNL     1      44.761 -16.791   6.638  1.00  0.00     0.125 HD
ENDBRANCH   8  24
TORSDOF 7
ENDMDL
MODEL 9
REMARK VINA RESULT:      -6.8      2.721      3.468
REMARK  7 active torsions:
REMARK  status: ('A' for Active; 'I' for Inactive)
REMARK    1  A    between atoms: C_6  and  C_7 
REMARK    2  A    between atoms: C_7  and  S_8 
REMARK    3  A    between atoms: S_8  and  C_9 
REMARK    4  A    between atoms: N_10  and  C_11 
REMARK    5  A    between atoms: C_14  and  C_15 
REMARK    6  A    between atoms: C_15  and  O_16 
REMARK    7  A    between atoms: C_20  and  N_21 
ROOT
HETATM    1  C   UNL     1      44.731 -20.988   2.749  1.00  0.00     0.001 A 
HETATM    2  C   UNL     1      44.347 -19.862   2.023  1.00  0.00     0.017 A 
HETATM    3  C   UNL     1      43.920 -18.686   2.689  1.00  0.00     0.033 A 
HETATM    4  C   UNL     1      43.874 -18.652   4.085  1.00  0.00     0.072 A 
HETATM    5  N   UNL     1      43.462 -17.577   4.767  1.00  0.00    -0.232 NA
HETATM    6  C   UNL     1      43.065 -16.502   4.060  1.00  0.00     0.138 A 
HETATM    7  N   UNL     1      43.068 -16.431   2.716  1.00  0.00    -0.220 NA
HETATM    8  C   UNL     1      43.512 -17.508   2.055  1.00  0.00     0.115 A 
HETATM    9  C   UNL     1      44.265 -19.787   4.787  1.00  0.00     0.032 A 
HETATM   10  C   UNL     1      44.692 -20.948   4.136  1.00  0.00     0.002 A 
ENDROOT
BRANCH   6  11
HETATM   11  C   UNL     1      42.533 -15.318   4.831  1.00  0.00     0.163 C 
BRANCH  11  12
HETATM   12  S   UNL     1      40.933 -15.665   5.633  1.00  0.00    -0.082 SA
BRANCH  12  13
HETATM   13  C   UNL     1      40.122 -14.165   5.347  1.00  0.00     0.192 A 
HETATM   14  N   UNL     1      39.784 -13.622   4.127  1.00  0.00    -0.305 N 
HETATM   15  C   UNL     1      39.189 -12.412   4.424  1.00  0.00     0.154 A 
HETATM   16  N   UNL     1      39.143 -12.260   5.735  1.00  0.00    -0.132 NA
HETATM   17  N   UNL     1      39.730 -13.356   6.307  1.00  0.00    -0.123 NA
BRANCH  14  18
HETATM   18  C   UNL     1      39.934 -14.126   2.769  1.00  0.00     0.094 A 
HETATM   19  C   UNL     1      39.719 -15.575   2.379  1.00  0.00     0.028 A 
HETATM   20  C   UNL     1      38.772 -14.535   1.884  1.00  0.00     0.028 A 
ENDBRANCH  14  18
BRANCH  15  21
HETATM   21  C   UNL     1      38.658 -11.443   3.433  1.00  0.00     0.244 C 
BRANCH  21  22
HETATM   22  O   UNL     1      37.656 -10.648   4.063  1.00  0.00    -0.393 OA
HETATM   23  H   UNL     1      37.090 -10.291   3.350  1.00  0.00     0.209 HD
ENDBRANCH  21  22
ENDBRANCH  15  21
ENDBRANCH  12  13
ENDBRANCH  11  12
ENDBRANCH   6  11
BRANCH   8  24
HETATM   24  N   UNL     1      43.521 -17.378   0.661  1.00  0.00    -0.286 NA
HETATM   25  H   UNL     1      42.659 -16.903   0.406  1.00  0.00     0.125 HD
HETATM   26  H   UNL     1      44.334 -16.858   0.351  1.00  0.00     0.125 HD
ENDBRANCH   8  24
TORSDOF 7
ENDMDL
MODEL 10
REMARK VINA RESULT:      -6.7      3.747      4.677
REMARK  7 active torsions:
REMARK  status: ('A' for Active; 'I' for Inactive)
REMARK    1  A    between atoms: C_6  and  C_7 
REMARK    2  A    between atoms: C_7  and  S_8 
REMARK    3  A    between atoms: S_8  and  C_9 
REMARK    4  A    between atoms: N_10  and  C_11 
REMARK    5  A    between atoms: C_14  and  C_15 
REMARK    6  A    between atoms: C_15  and  O_16 
REMARK    7  A    between atoms: C_20  and  N_21 
ROOT
HETATM    1  C   UNL     1      44.601 -20.499   3.492  1.00  0.00     0.001 A 
HETATM    2  C   UNL     1      44.292 -19.545   2.525  1.00  0.00     0.017 A 
HETATM    3  C   UNL     1      43.917 -18.231   2.900  1.00  0.00     0.033 A 
HETATM    4  C   UNL     1      43.849 -17.885   4.253  1.00  0.00     0.072 A 
HETATM    5  N   UNL     1      43.484 -16.666   4.667  1.00  0.00    -0.232 NA
HETATM    6  C   UNL     1      43.158 -15.758   3.728  1.00  0.00     0.138 A 
HETATM    7  N   UNL     1      43.188 -15.989   2.402  1.00  0.00    -0.220 NA
HETATM    8  C   UNL     1      43.585 -17.206   2.010  1.00  0.00     0.115 A 
HETATM    9  C   UNL     1      44.167 -18.852   5.200  1.00  0.00     0.032 A 
HETATM   10  C   UNL     1      44.541 -20.149   4.835  1.00  0.00     0.002 A 
ENDROOT
BRANCH   6  11
HETATM   11  C   UNL     1      42.677 -14.407   4.201  1.00  0.00     0.163 C 
BRANCH  11  12
HETATM   12  S   UNL     1      41.017 -13.994   3.571  1.00  0.00    -0.082 SA
BRANCH  12  13
HETATM   13  C   UNL     1      41.436 -13.360   2.017  1.00  0.00     0.192 A 
HETATM   14  N   UNL     1      40.828 -13.640   0.814  1.00  0.00    -0.305 N 
HETATM   15  C   UNL     1      41.541 -12.921  -0.125  1.00  0.00     0.154 A 
HETATM   16  N   UNL     1      42.487 -12.230   0.483  1.00  0.00    -0.132 NA
HETATM   17  N   UNL     1      42.420 -12.510   1.820  1.00  0.00    -0.123 NA
BRANCH  14  18
HETATM   18  C   UNL     1      39.672 -14.461   0.482  1.00  0.00     0.094 A 
HETATM   19  C   UNL     1      38.474 -14.638   1.393  1.00  0.00     0.028 A 
HETATM   20  C   UNL     1      38.314 -13.900   0.107  1.00  0.00     0.028 A 
ENDBRANCH  14  18
BRANCH  15  21
HETATM   21  C   UNL     1      41.273 -12.902  -1.585  1.00  0.00     0.244 C 
BRANCH  21  22
HETATM   22  O   UNL     1      42.130 -13.849  -2.218  1.00  0.00    -0.393 OA
HETATM   23  H   UNL     1      42.049 -14.683  -1.714  1.00  0.00     0.209 HD
ENDBRANCH  21  22
ENDBRANCH  15  21
ENDBRANCH  12  13
ENDBRANCH  11  12
ENDBRANCH   6  11
BRANCH   8  24
HETATM   24  N   UNL     1      43.625 -17.391   0.622  1.00  0.00    -0.286 NA
HETATM   25  H   UNL     1      43.081 -18.227   0.424  1.00  0.00     0.125 HD
HETATM   26  H   UNL     1      43.250 -16.583   0.139  1.00  0.00     0.125 HD
ENDBRANCH   8  24
TORSDOF 7
ENDMDL
