MODEL 1
REMARK VINA RESULT:      -9.0      0.000      0.000
REMARK  9 active torsions:
REMARK  status: ('A' for Active; 'I' for Inactive)
REMARK    1  A    between atoms: C_2  and  C_3 
REMARK    2  A    between atoms: C_4  and  O_5 
REMARK    3  A    between atoms: C_6  and  C_7 
REMARK    4  A    between atoms: C_12  and  C_13 
REMARK    5  A    between atoms: C_13  and  C_14 
REMARK    6  A    between atoms: C_14  and  N_15 
REMARK    7  A    between atoms: N_20  and  C_21 
REMARK    8  A    between atoms: C_21  and  C_22 
REMARK    9  A    between atoms: C_22  and  N_23 
ROOT
HETATM    1  N   UNL     1      41.882 -12.451   5.948  1.00  0.00    -0.174 N 
HETATM    2  C   UNL     1      41.271 -11.402   6.601  1.00  0.00     0.681 A 
HETATM    3  N   UNL     1      40.168 -10.786   6.166  1.00  0.00    -0.234 N 
HETATM    4  H   UNL     1      39.755  -9.986   6.615  1.00  0.00     0.174 HD
HETATM    5  H   UNL     1      39.932 -10.899   5.172  1.00  0.00     0.174 HD
HETATM    6  N   UNL     1      41.918 -11.046   7.800  1.00  0.00    -0.180 N 
HETATM    7  C   UNL     1      43.096 -11.868   7.815  1.00  0.00     0.079 A 
HETATM    8  C   UNL     1      43.058 -12.726   6.698  1.00  0.00     0.079 A 
HETATM    9  C   UNL     1      44.157 -11.914   8.696  1.00  0.00     0.032 A 
HETATM   10  C   UNL     1      45.167 -12.856   8.460  1.00  0.00     0.002 A 
HETATM   11  C   UNL     1      45.109 -13.723   7.356  1.00  0.00     0.002 A 
HETATM   12  C   UNL     1      44.044 -13.661   6.455  1.00  0.00     0.032 A 
ENDROOT
BRANCH   1  13
HETATM   13  C   UNL     1      41.403 -13.221   4.790  1.00  0.00     0.231 C 
BRANCH  13  14
HETATM   14  C   UNL     1      40.779 -14.558   5.120  1.00  0.00     0.178 C 
HETATM   15  O   UNL     1      39.639 -14.632   5.579  1.00  0.00    -0.290 OA
BRANCH  14  16
HETATM   16  C   UNL     1      41.612 -15.781   4.912  1.00  0.00     0.013 A 
HETATM   17  C   UNL     1      42.294 -16.358   5.987  1.00  0.00     0.026 A 
HETATM   18  C   UNL     1      43.145 -17.460   5.811  1.00  0.00    -0.016 A 
HETATM   19  C   UNL     1      43.290 -17.952   4.488  1.00  0.00     0.079 A 
HETATM   20  C   UNL     1      42.590 -17.421   3.372  1.00  0.00    -0.016 A 
HETATM   21  C   UNL     1      41.733 -16.328   3.631  1.00  0.00     0.026 A 
BRANCH  18  22
HETATM   22  C   UNL     1      43.903 -18.067   7.025  1.00  0.00    -0.021 C 
HETATM   23  C   UNL     1      43.449 -17.350   8.313  1.00  0.00     0.019 C 
HETATM   24  C   UNL     1      43.621 -19.580   7.232  1.00  0.00     0.019 C 
HETATM   25  C   UNL     1      45.438 -17.955   6.873  1.00  0.00     0.019 C 
ENDBRANCH  18  22
BRANCH  19  26
HETATM   26  O   UNL     1      44.198 -18.960   4.331  1.00  0.00    -0.360 OA
HETATM   27  H   UNL     1      43.814 -19.800   4.619  1.00  0.00     0.217 HD
ENDBRANCH  19  26
BRANCH  20  28
HETATM   28  C   UNL     1      42.742 -17.962   1.922  1.00  0.00    -0.021 C 
HETATM   29  C   UNL     1      44.047 -17.424   1.296  1.00  0.00     0.019 C 
HETATM   30  C   UNL     1      41.529 -17.593   1.035  1.00  0.00     0.019 C 
HETATM   31  C   UNL     1      42.841 -19.512   1.846  1.00  0.00     0.019 C 
ENDBRANCH  20  28
ENDBRANCH  14  16
ENDBRANCH  13  14
ENDBRANCH   1  13
BRANCH   6  32
HETATM   32  C   UNL     1      41.396 -10.085   8.789  1.00  0.00     0.175 C 
BRANCH  32  33
HETATM   33  C   UNL     1      40.760 -10.679  10.065  1.00  0.00     0.255 C 
BRANCH  33  34
HETATM   34  N   UNL     1      41.599 -10.574  11.324  1.00  0.00    -0.070 N 
HETATM   35  H   UNL     1      42.006 -11.516  11.434  1.00  0.00     0.279 HD
HETATM   36  C   UNL     1      42.793  -9.647  11.227  1.00  0.00     0.235 C 
HETATM   37  C   UNL     1      43.706  -9.882  12.423  1.00  0.00     0.028 C 
HETATM   38  C   UNL     1      42.962  -9.727  13.747  1.00  0.00     0.003 C 
HETATM   39  C   UNL     1      41.713 -10.601  13.795  1.00  0.00     0.028 C 
HETATM   40  C   UNL     1      40.806 -10.356  12.596  1.00  0.00     0.235 C 
ENDBRANCH  33  34
ENDBRANCH  32  33
ENDBRANCH   6  32
TORSDOF 9
ENDMDL
MODEL 2
REMARK VINA RESULT:      -8.8      0.149      3.062
REMARK  9 active torsions:
REMARK  status: ('A' for Active; 'I' for Inactive)
REMARK    1  A    between atoms: C_2  and  C_3 
REMARK    2  A    between atoms: C_4  and  O_5 
REMARK    3  A    between atoms: C_6  and  C_7 
REMARK    4  A    between atoms: C_12  and  C_13 
REMARK    5  A    between atoms: C_13  and  C_14 
REMARK    6  A    between atoms: C_14  and  N_15 
REMARK    7  A    between atoms: N_20  and  C_21 
REMARK    8  A    between atoms: C_21  and  C_22 
REMARK    9  A    between atoms: C_22  and  N_23 
ROOT
HETATM    1  N   UNL     1      41.895 -12.423   6.039  1.00  0.00    -0.174 N 
HETATM    2  C   UNL     1      41.274 -11.411   6.740  1.00  0.00     0.681 A 
HETATM    3  N   UNL     1      40.150 -10.806   6.346  1.00  0.00    -0.234 N 
HETATM    4  H   UNL     1      39.728 -10.031   6.830  1.00  0.00     0.174 HD
HETATM    5  H   UNL     1      39.897 -10.889   5.353  1.00  0.00     0.174 HD
HETATM    6  N   UNL     1      41.935 -11.083   7.939  1.00  0.00    -0.180 N 
HETATM    7  C   UNL     1      43.131 -11.878   7.904  1.00  0.00     0.079 A 
HETATM    8  C   UNL     1      43.091 -12.697   6.758  1.00  0.00     0.079 A 
HETATM    9  C   UNL     1      44.209 -11.930   8.763  1.00  0.00     0.032 A 
HETATM   10  C   UNL     1      45.234 -12.841   8.476  1.00  0.00     0.002 A 
HETATM   11  C   UNL     1      45.174 -13.670   7.344  1.00  0.00     0.002 A 
HETATM   12  C   UNL     1      44.093 -13.601   6.465  1.00  0.00     0.032 A 
ENDROOT
BRANCH   1  13
HETATM   13  C   UNL     1      41.412 -13.163   4.864  1.00  0.00     0.231 C 
BRANCH  13  14
HETATM   14  C   UNL     1      40.867 -14.544   5.153  1.00  0.00     0.178 C 
HETATM   15  O   UNL     1      39.736 -14.697   5.614  1.00  0.00    -0.290 OA
BRANCH  14  16
HETATM   16  C   UNL     1      41.767 -15.710   4.900  1.00  0.00     0.013 A 
HETATM   17  C   UNL     1      41.898 -16.230   3.610  1.00  0.00     0.026 A 
HETATM   18  C   UNL     1      42.674 -17.369   3.353  1.00  0.00    -0.016 A 
HETATM   19  C   UNL     1      43.309 -17.978   4.466  1.00  0.00     0.079 A 
HETATM   20  C   UNL     1      43.233 -17.464   5.789  1.00  0.00    -0.016 A 
HETATM   21  C   UNL     1      42.453 -16.299   5.966  1.00  0.00     0.026 A 
BRANCH  18  22
HETATM   22  C   UNL     1      42.785 -17.933   1.908  1.00  0.00    -0.021 C 
HETATM   23  C   UNL     1      41.600 -17.411   1.071  1.00  0.00     0.019 C 
HETATM   24  C   UNL     1      44.081 -17.494   1.173  1.00  0.00     0.019 C 
HETATM   25  C   UNL     1      42.806 -19.480   1.883  1.00  0.00     0.019 C 
ENDBRANCH  18  22
BRANCH  19  26
HETATM   26  O   UNL     1      43.976 -19.140   4.204  1.00  0.00    -0.360 OA
HETATM   27  H   UNL     1      44.755 -18.959   3.659  1.00  0.00     0.217 HD
ENDBRANCH  19  26
BRANCH  20  28
HETATM   28  C   UNL     1      43.933 -18.124   7.012  1.00  0.00    -0.021 C 
HETATM   29  C   UNL     1      45.466 -17.993   6.870  1.00  0.00     0.019 C 
HETATM   30  C   UNL     1      43.534 -19.609   7.177  1.00  0.00     0.019 C 
HETATM   31  C   UNL     1      43.573 -17.454   8.368  1.00  0.00     0.019 C 
ENDBRANCH  20  28
ENDBRANCH  14  16
ENDBRANCH  13  14
ENDBRANCH   1  13
BRANCH   6  32
HETATM   32  C   UNL     1      41.411 -10.169   8.969  1.00  0.00     0.175 C 
BRANCH  32  33
HETATM   33  C   UNL     1      40.851 -10.818  10.254  1.00  0.00     0.255 C 
BRANCH  33  34
HETATM   34  N   UNL     1      41.680 -10.612  11.507  1.00  0.00    -0.070 N 
HETATM   35  H   UNL     1      42.100 -11.538  11.684  1.00  0.00     0.279 HD
HETATM   36  C   UNL     1      42.859  -9.676  11.351  1.00  0.00     0.235 C 
HETATM   37  C   UNL     1      43.768  -9.812  12.566  1.00  0.00     0.028 C 
HETATM   38  C   UNL     1      43.014  -9.576  13.871  1.00  0.00     0.003 C 
HETATM   39  C   UNL     1      41.778 -10.465  13.974  1.00  0.00     0.028 C 
HETATM   40  C   UNL     1      40.875 -10.318  12.756  1.00  0.00     0.235 C 
ENDBRANCH  33  34
ENDBRANCH  32  33
ENDBRANCH   6  32
TORSDOF 9
ENDMDL
MODEL 3
REMARK VINA RESULT:      -8.5      2.752      9.407
REMARK  9 active torsions:
REMARK  status: ('A' for Active; 'I' for Inactive)
REMARK    1  A    between atoms: C_2  and  C_3 
REMARK    2  A    between atoms: C_4  and  O_5 
REMARK    3  A    between atoms: C_6  and  C_7 
REMARK    4  A    between atoms: C_12  and  C_13 
REMARK    5  A    between atoms: C_13  and  C_14 
REMARK    6  A    between atoms: C_14  and  N_15 
REMARK    7  A    between atoms: N_20  and  C_21 
REMARK    8  A    between atoms: C_21  and  C_22 
REMARK    9  A    between atoms: C_22  and  N_23 
ROOT
HETATM    1  N   UNL     1      41.046 -14.603   5.241  1.00  0.00    -0.174 N 
HETATM    2  C   UNL     1      41.937 -15.519   5.757  1.00  0.00     0.681 A 
HETATM    3  N   UNL     1      42.630 -15.339   6.885  1.00  0.00    -0.234 N 
HETATM    4  H   UNL     1      43.320 -15.985   7.231  1.00  0.00     0.174 HD
HETATM    5  H   UNL     1      42.727 -14.374   7.225  1.00  0.00     0.174 HD
HETATM    6  N   UNL     1      42.035 -16.691   4.982  1.00  0.00    -0.180 N 
HETATM    7  C   UNL     1      41.227 -16.411   3.828  1.00  0.00     0.079 A 
HETATM    8  C   UNL     1      40.621 -15.151   4.000  1.00  0.00     0.079 A 
HETATM    9  C   UNL     1      40.999 -17.146   2.682  1.00  0.00     0.032 A 
HETATM   10  C   UNL     1      40.125 -16.615   1.724  1.00  0.00     0.002 A 
HETATM   11  C   UNL     1      39.507 -15.368   1.916  1.00  0.00     0.002 A 
HETATM   12  C   UNL     1      39.756 -14.617   3.066  1.00  0.00     0.032 A 
ENDROOT
BRANCH   1  13
HETATM   13  C   UNL     1      40.534 -13.367   5.854  1.00  0.00     0.231 C 
BRANCH  13  14
HETATM   14  C   UNL     1      41.460 -12.175   5.768  1.00  0.00     0.178 C 
HETATM   15  O   UNL     1      41.927 -11.809   4.690  1.00  0.00    -0.290 OA
BRANCH  14  16
HETATM   16  C   UNL     1      41.821 -11.486   7.044  1.00  0.00     0.013 A 
HETATM   17  C   UNL     1      42.998 -11.826   7.717  1.00  0.00     0.026 A 
HETATM   18  C   UNL     1      43.328 -11.253   8.954  1.00  0.00    -0.016 A 
HETATM   19  C   UNL     1      42.403 -10.324   9.498  1.00  0.00     0.079 A 
HETATM   20  C   UNL     1      41.212  -9.923   8.834  1.00  0.00    -0.016 A 
HETATM   21  C   UNL     1      40.960 -10.524   7.581  1.00  0.00     0.026 A 
BRANCH  18  22
HETATM   22  C   UNL     1      44.637 -11.665   9.685  1.00  0.00    -0.021 C 
HETATM   23  C   UNL     1      44.278 -12.508  10.925  1.00  0.00     0.019 C 
HETATM   24  C   UNL     1      45.583 -12.532   8.812  1.00  0.00     0.019 C 
HETATM   25  C   UNL     1      45.482 -10.440  10.109  1.00  0.00     0.019 C 
ENDBRANCH  18  22
BRANCH  19  26
HETATM   26  O   UNL     1      42.700  -9.858  10.746  1.00  0.00    -0.360 OA
HETATM   27  H   UNL     1      43.401 -10.395  11.143  1.00  0.00     0.217 HD
ENDBRANCH  19  26
BRANCH  20  28
HETATM   28  C   UNL     1      40.200  -8.900   9.423  1.00  0.00    -0.021 C 
HETATM   29  C   UNL     1      38.937  -8.842   8.535  1.00  0.00     0.019 C 
HETATM   30  C   UNL     1      40.819  -7.489   9.568  1.00  0.00     0.019 C 
HETATM   31  C   UNL     1      39.701  -9.271  10.848  1.00  0.00     0.019 C 
ENDBRANCH  20  28
ENDBRANCH  14  16
ENDBRANCH  13  14
ENDBRANCH   1  13
BRANCH   6  32
HETATM   32  C   UNL     1      42.770 -17.906   5.378  1.00  0.00     0.175 C 
BRANCH  32  33
HETATM   33  C   UNL     1      44.024 -18.260   4.548  1.00  0.00     0.255 C 
BRANCH  33  34
HETATM   34  N   UNL     1      43.970 -19.585   3.813  1.00  0.00    -0.070 N 
HETATM   35  H   UNL     1      43.083 -20.010   4.126  1.00  0.00     0.279 HD
HETATM   36  C   UNL     1      43.840 -19.481   2.308  1.00  0.00     0.235 C 
HETATM   37  C   UNL     1      43.480 -20.849   1.743  1.00  0.00     0.028 C 
HETATM   38  C   UNL     1      44.482 -21.921   2.162  1.00  0.00     0.003 C 
HETATM   39  C   UNL     1      44.669 -21.953   3.676  1.00  0.00     0.028 C 
HETATM   40  C   UNL     1      45.032 -20.582   4.230  1.00  0.00     0.235 C 
ENDBRANCH  33  34
ENDBRANCH  32  33
ENDBRANCH   6  32
TORSDOF 9
ENDMDL
MODEL 4
REMARK VINA RESULT:      -8.5      4.603      7.815
REMARK  9 active torsions:
REMARK  status: ('A' for Active; 'I' for Inactive)
REMARK    1  A    between atoms: C_2  and  C_3 
REMARK    2  A    between atoms: C_4  and  O_5 
REMARK    3  A    between atoms: C_6  and  C_7 
REMARK    4  A    between atoms: C_12  and  C_13 
REMARK    5  A    between atoms: C_13  and  C_14 
REMARK    6  A    between atoms: C_14  and  N_15 
REMARK    7  A    between atoms: N_20  and  C_21 
REMARK    8  A    between atoms: C_21  and  C_22 
REMARK    9  A    between atoms: C_22  and  N_23 
ROOT
HETATM    1  N   UNL     1      40.012 -15.309   2.164  1.00  0.00    -0.174 N 
HETATM    2  C   UNL     1      39.721 -14.421   1.150  1.00  0.00     0.681 A 
HETATM    3  N   UNL     1      39.756 -14.728  -0.150  1.00  0.00    -0.234 N 
HETATM    4  H   UNL     1      39.598 -14.065  -0.890  1.00  0.00     0.174 HD
HETATM    5  H   UNL     1      40.295 -15.561  -0.419  1.00  0.00     0.174 HD
HETATM    6  N   UNL     1      39.360 -13.144   1.621  1.00  0.00    -0.180 N 
HETATM    7  C   UNL     1      39.570 -13.226   3.040  1.00  0.00     0.079 A 
HETATM    8  C   UNL     1      39.949 -14.544   3.361  1.00  0.00     0.079 A 
HETATM    9  C   UNL     1      39.461 -12.269   4.028  1.00  0.00     0.032 A 
HETATM   10  C   UNL     1      39.707 -12.660   5.351  1.00  0.00     0.002 A 
HETATM   11  C   UNL     1      40.062 -13.982   5.664  1.00  0.00     0.002 A 
HETATM   12  C   UNL     1      40.191 -14.944   4.660  1.00  0.00     0.032 A 
ENDROOT
BRANCH   1  13
HETATM   13  C   UNL     1      40.235 -16.761   2.084  1.00  0.00     0.231 C 
BRANCH  13  14
HETATM   14  C   UNL     1      41.592 -17.174   1.560  1.00  0.00     0.178 C 
HETATM   15  O   UNL     1      41.916 -16.957   0.393  1.00  0.00    -0.290 OA
BRANCH  14  16
HETATM   16  C   UNL     1      42.505 -17.895   2.497  1.00  0.00     0.013 A 
HETATM   17  C   UNL     1      43.031 -19.142   2.146  1.00  0.00     0.026 A 
HETATM   18  C   UNL     1      43.829 -19.878   3.035  1.00  0.00    -0.016 A 
HETATM   19  C   UNL     1      44.066 -19.304   4.311  1.00  0.00     0.079 A 
HETATM   20  C   UNL     1      43.582 -18.026   4.698  1.00  0.00    -0.016 A 
HETATM   21  C   UNL     1      42.806 -17.333   3.741  1.00  0.00     0.026 A 
BRANCH  18  22
HETATM   22  C   UNL     1      44.385 -21.270   2.620  1.00  0.00    -0.021 C 
HETATM   23  C   UNL     1      45.856 -21.116   2.185  1.00  0.00     0.019 C 
HETATM   24  C   UNL     1      44.364 -22.310   3.773  1.00  0.00     0.019 C 
HETATM   25  C   UNL     1      43.563 -21.912   1.477  1.00  0.00     0.019 C 
ENDBRANCH  18  22
BRANCH  19  26
HETATM   26  O   UNL     1      44.762 -20.085   5.188  1.00  0.00    -0.360 OA
HETATM   27  H   UNL     1      45.350 -19.536   5.726  1.00  0.00     0.217 HD
ENDBRANCH  19  26
BRANCH  20  28
HETATM   28  C   UNL     1      43.845 -17.390   6.093  1.00  0.00    -0.021 C 
HETATM   29  C   UNL     1      43.630 -15.862   6.021  1.00  0.00     0.019 C 
HETATM   30  C   UNL     1      45.265 -17.709   6.616  1.00  0.00     0.019 C 
HETATM   31  C   UNL     1      42.882 -17.903   7.200  1.00  0.00     0.019 C 
ENDBRANCH  20  28
ENDBRANCH  14  16
ENDBRANCH  13  14
ENDBRANCH   1  13
BRANCH   6  32
HETATM   32  C   UNL     1      38.834 -12.053   0.782  1.00  0.00     0.175 C 
BRANCH  32  33
HETATM   33  C   UNL     1      39.783 -10.864   0.512  1.00  0.00     0.255 C 
BRANCH  33  34
HETATM   34  N   UNL     1      40.740 -11.040  -0.649  1.00  0.00    -0.070 N 
HETATM   35  H   UNL     1      40.991 -10.075  -0.917  1.00  0.00     0.279 HD
HETATM   36  C   UNL     1      42.059 -11.699  -0.302  1.00  0.00     0.235 C 
HETATM   37  C   UNL     1      43.026 -11.523  -1.465  1.00  0.00     0.028 C 
HETATM   38  C   UNL     1      42.446 -12.049  -2.775  1.00  0.00     0.003 C 
HETATM   39  C   UNL     1      41.077 -11.442  -3.067  1.00  0.00     0.028 C 
HETATM   40  C   UNL     1      40.117 -11.627  -1.899  1.00  0.00     0.235 C 
ENDBRANCH  33  34
ENDBRANCH  32  33
ENDBRANCH   6  32
TORSDOF 9
ENDMDL
MODEL 5
REMARK VINA RESULT:      -8.5      4.638      7.541
REMARK  9 active torsions:
REMARK  status: ('A' for Active; 'I' for Inactive)
REMARK    1  A    between atoms: C_2  and  C_3 
REMARK    2  A    between atoms: C_4  and  O_5 
REMARK    3  A    between atoms: C_6  and  C_7 
REMARK    4  A    between atoms: C_12  and  C_13 
REMARK    5  A    between atoms: C_13  and  C_14 
REMARK    6  A    between atoms: C_14  and  N_15 
REMARK    7  A    between atoms: N_20  and  C_21 
REMARK    8  A    between atoms: C_21  and  C_22 
REMARK    9  A    between atoms: C_22  and  N_23 
ROOT
HETATM    1  N   UNL     1      40.047 -15.361   2.126  1.00  0.00    -0.174 N 
HETATM    2  C   UNL     1      39.761 -14.480   1.105  1.00  0.00     0.681 A 
HETATM    3  N   UNL     1      39.793 -14.799  -0.192  1.00  0.00    -0.234 N 
HETATM    4  H   UNL     1      39.639 -14.141  -0.938  1.00  0.00     0.174 HD
HETATM    5  H   UNL     1      40.327 -15.637  -0.455  1.00  0.00     0.174 HD
HETATM    6  N   UNL     1      39.408 -13.197   1.565  1.00  0.00    -0.180 N 
HETATM    7  C   UNL     1      39.618 -13.268   2.984  1.00  0.00     0.079 A 
HETATM    8  C   UNL     1      39.989 -14.586   3.316  1.00  0.00     0.079 A 
HETATM    9  C   UNL     1      39.516 -12.302   3.964  1.00  0.00     0.032 A 
HETATM   10  C   UNL     1      39.760 -12.683   5.290  1.00  0.00     0.002 A 
HETATM   11  C   UNL     1      40.107 -14.005   5.614  1.00  0.00     0.002 A 
HETATM   12  C   UNL     1      40.229 -14.975   4.619  1.00  0.00     0.032 A 
ENDROOT
BRANCH   1  13
HETATM   13  C   UNL     1      40.261 -16.815   2.058  1.00  0.00     0.231 C 
BRANCH  13  14
HETATM   14  C   UNL     1      41.640 -17.241   1.608  1.00  0.00     0.178 C 
HETATM   15  O   UNL     1      42.051 -16.975   0.478  1.00  0.00    -0.290 OA
BRANCH  14  16
HETATM   16  C   UNL     1      42.467 -18.033   2.567  1.00  0.00     0.013 A 
HETATM   17  C   UNL     1      42.775 -17.512   3.826  1.00  0.00     0.026 A 
HETATM   18  C   UNL     1      43.612 -18.197   4.720  1.00  0.00    -0.016 A 
HETATM   19  C   UNL     1      44.141 -19.438   4.280  1.00  0.00     0.079 A 
HETATM   20  C   UNL     1      43.828 -20.023   3.024  1.00  0.00    -0.016 A 
HETATM   21  C   UNL     1      42.959 -19.286   2.188  1.00  0.00     0.026 A 
BRANCH  18  22
HETATM   22  C   UNL     1      43.949 -17.581   6.108  1.00  0.00    -0.021 C 
HETATM   23  C   UNL     1      43.628 -16.073   6.081  1.00  0.00     0.019 C 
HETATM   24  C   UNL     1      43.124 -18.195   7.271  1.00  0.00     0.019 C 
HETATM   25  C   UNL     1      45.430 -17.797   6.500  1.00  0.00     0.019 C 
ENDBRANCH  18  22
BRANCH  19  26
HETATM   26  O   UNL     1      45.029 -20.034   5.129  1.00  0.00    -0.360 OA
HETATM   27  H   UNL     1      45.127 -20.970   4.902  1.00  0.00     0.217 HD
ENDBRANCH  19  26
BRANCH  20  28
HETATM   28  C   UNL     1      44.400 -21.386   2.541  1.00  0.00    -0.021 C 
HETATM   29  C   UNL     1      43.556 -21.921   1.363  1.00  0.00     0.019 C 
HETATM   30  C   UNL     1      44.453 -22.430   3.681  1.00  0.00     0.019 C 
HETATM   31  C   UNL     1      45.858 -21.293   2.010  1.00  0.00     0.019 C 
ENDBRANCH  20  28
ENDBRANCH  14  16
ENDBRANCH  13  14
ENDBRANCH   1  13
BRANCH   6  32
HETATM   32  C   UNL     1      38.888 -12.109   0.716  1.00  0.00     0.175 C 
BRANCH  32  33
HETATM   33  C   UNL     1      39.863 -10.958   0.387  1.00  0.00     0.255 C 
BRANCH  33  34
HETATM   34  N   UNL     1      40.771 -11.189  -0.804  1.00  0.00    -0.070 N 
HETATM   35  H   UNL     1      41.045 -10.238  -1.100  1.00  0.00     0.279 HD
HETATM   36  C   UNL     1      42.079 -11.887  -0.491  1.00  0.00     0.235 C 
HETATM   37  C   UNL     1      43.009 -11.765  -1.691  1.00  0.00     0.028 C 
HETATM   38  C   UNL     1      42.364 -12.296  -2.969  1.00  0.00     0.003 C 
HETATM   39  C   UNL     1      41.006 -11.647  -3.223  1.00  0.00     0.028 C 
HETATM   40  C   UNL     1      40.083 -11.777  -2.019  1.00  0.00     0.235 C 
ENDBRANCH  33  34
ENDBRANCH  32  33
ENDBRANCH   6  32
TORSDOF 9
ENDMDL
MODEL 6
REMARK VINA RESULT:      -8.3      4.323      8.246
REMARK  9 active torsions:
REMARK  status: ('A' for Active; 'I' for Inactive)
REMARK    1  A    between atoms: C_2  and  C_3 
REMARK    2  A    between atoms: C_4  and  O_5 
REMARK    3  A    between atoms: C_6  and  C_7 
REMARK    4  A    between atoms: C_12  and  C_13 
REMARK    5  A    between atoms: C_13  and  C_14 
REMARK    6  A    between atoms: C_14  and  N_15 
REMARK    7  A    between atoms: N_20  and  C_21 
REMARK    8  A    between atoms: C_21  and  C_22 
REMARK    9  A    between atoms: C_22  and  N_23 
ROOT
HETATM    1  N   UNL     1      39.365 -13.613   3.751  1.00  0.00    -0.174 N 
HETATM    2  C   UNL     1      39.046 -14.120   2.510  1.00  0.00     0.681 A 
HETATM    3  N   UNL     1      39.263 -15.384   2.137  1.00  0.00    -0.234 N 
HETATM    4  H   UNL     1      39.081 -15.738   1.213  1.00  0.00     0.174 HD
HETATM    5  H   UNL     1      39.951 -15.921   2.681  1.00  0.00     0.174 HD
HETATM    6  N   UNL     1      38.443 -13.169   1.663  1.00  0.00    -0.180 N 
HETATM    7  C   UNL     1      38.514 -11.945   2.411  1.00  0.00     0.079 A 
HETATM    8  C   UNL     1      39.059 -12.226   3.680  1.00  0.00     0.079 A 
HETATM    9  C   UNL     1      38.156 -10.656   2.074  1.00  0.00     0.032 A 
HETATM   10  C   UNL     1      38.321  -9.654   3.040  1.00  0.00     0.002 A 
HETATM   11  C   UNL     1      38.844  -9.948   4.310  1.00  0.00     0.002 A 
HETATM   12  C   UNL     1      39.225 -11.249   4.642  1.00  0.00     0.032 A 
ENDROOT
BRANCH   1  13
HETATM   13  C   UNL     1      39.819 -14.330   4.953  1.00  0.00     0.231 C 
BRANCH  13  14
HETATM   14  C   UNL     1      41.317 -14.362   5.154  1.00  0.00     0.178 C 
HETATM   15  O   UNL     1      41.942 -13.341   5.442  1.00  0.00    -0.290 OA
BRANCH  14  16
HETATM   16  C   UNL     1      42.016 -15.667   4.948  1.00  0.00     0.013 A 
HETATM   17  C   UNL     1      42.613 -16.322   6.028  1.00  0.00     0.026 A 
HETATM   18  C   UNL     1      43.341 -17.509   5.855  1.00  0.00    -0.016 A 
HETATM   19  C   UNL     1      43.454 -18.005   4.531  1.00  0.00     0.079 A 
HETATM   20  C   UNL     1      42.835 -17.392   3.408  1.00  0.00    -0.016 A 
HETATM   21  C   UNL     1      42.098 -16.214   3.664  1.00  0.00     0.026 A 
BRANCH  18  22
HETATM   22  C   UNL     1      44.008 -18.204   7.075  1.00  0.00    -0.021 C 
HETATM   23  C   UNL     1      45.540 -18.057   6.964  1.00  0.00     0.019 C 
HETATM   24  C   UNL     1      43.597 -17.585   8.438  1.00  0.00     0.019 C 
HETATM   25  C   UNL     1      43.629 -19.701   7.176  1.00  0.00     0.019 C 
ENDBRANCH  18  22
BRANCH  19  26
HETATM   26  O   UNL     1      44.249 -19.104   4.378  1.00  0.00    -0.360 OA
HETATM   27  H   UNL     1      44.517 -19.443   5.244  1.00  0.00     0.217 HD
ENDBRANCH  19  26
BRANCH  20  28
HETATM   28  C   UNL     1      42.950 -17.936   1.956  1.00  0.00    -0.021 C 
HETATM   29  C   UNL     1      44.265 -17.440   1.314  1.00  0.00     0.019 C 
HETATM   30  C   UNL     1      41.739 -17.526   1.085  1.00  0.00     0.019 C 
HETATM   31  C   UNL     1      42.998 -19.488   1.877  1.00  0.00     0.019 C 
ENDBRANCH  20  28
ENDBRANCH  14  16
ENDBRANCH  13  14
ENDBRANCH   1  13
BRANCH   6  32
HETATM   32  C   UNL     1      37.843 -13.468   0.351  1.00  0.00     0.175 C 
BRANCH  32  33
HETATM   33  C   UNL     1      38.726 -13.216  -0.891  1.00  0.00     0.255 C 
BRANCH  33  34
HETATM   34  N   UNL     1      38.776 -14.347  -1.900  1.00  0.00    -0.070 N 
HETATM   35  H   UNL     1      38.506 -15.181  -1.356  1.00  0.00     0.279 HD
HETATM   36  C   UNL     1      37.752 -14.262  -3.012  1.00  0.00     0.235 C 
HETATM   37  C   UNL     1      37.704 -15.594  -3.749  1.00  0.00     0.028 C 
HETATM   38  C   UNL     1      39.079 -16.012  -4.262  1.00  0.00     0.003 C 
HETATM   39  C   UNL     1      40.120 -16.007  -3.147  1.00  0.00     0.028 C 
HETATM   40  C   UNL     1      40.162 -14.669  -2.420  1.00  0.00     0.235 C 
ENDBRANCH  33  34
ENDBRANCH  32  33
ENDBRANCH   6  32
TORSDOF 9
ENDMDL
MODEL 7
REMARK VINA RESULT:      -8.3      1.556      3.164
REMARK  9 active torsions:
REMARK  status: ('A' for Active; 'I' for Inactive)
REMARK    1  A    between atoms: C_2  and  C_3 
REMARK    2  A    between atoms: C_4  and  O_5 
REMARK    3  A    between atoms: C_6  and  C_7 
REMARK    4  A    between atoms: C_12  and  C_13 
REMARK    5  A    between atoms: C_13  and  C_14 
REMARK    6  A    between atoms: C_14  and  N_15 
REMARK    7  A    between atoms: N_20  and  C_21 
REMARK    8  A    between atoms: C_21  and  C_22 
REMARK    9  A    between atoms: C_22  and  N_23 
ROOT
HETATM    1  N   UNL     1      40.838 -12.201   5.247  1.00  0.00    -0.174 N 
HETATM    2  C   UNL     1      41.446 -11.714   6.384  1.00  0.00     0.681 A 
HETATM    3  N   UNL     1      42.391 -12.366   7.068  1.00  0.00    -0.234 N 
HETATM    4  H   UNL     1      42.794 -12.033   7.928  1.00  0.00     0.174 HD
HETATM    5  H   UNL     1      42.461 -13.380   6.917  1.00  0.00     0.174 HD
HETATM    6  N   UNL     1      40.985 -10.436   6.753  1.00  0.00    -0.180 N 
HETATM    7  C   UNL     1      39.914 -10.175   5.831  1.00  0.00     0.079 A 
HETATM    8  C   UNL     1      39.843 -11.242   4.914  1.00  0.00     0.079 A 
HETATM    9  C   UNL     1      39.032  -9.118   5.745  1.00  0.00     0.032 A 
HETATM   10  C   UNL     1      38.095  -9.128   4.703  1.00  0.00     0.002 A 
HETATM   11  C   UNL     1      38.046 -10.186   3.780  1.00  0.00     0.002 A 
HETATM   12  C   UNL     1      38.927 -11.263   3.881  1.00  0.00     0.032 A 
ENDROOT
BRANCH   1  13
HETATM   13  C   UNL     1      41.183 -13.391   4.454  1.00  0.00     0.231 C 
BRANCH  13  14
HETATM   14  C   UNL     1      40.676 -14.703   5.009  1.00  0.00     0.178 C 
HETATM   15  O   UNL     1      39.609 -14.765   5.619  1.00  0.00    -0.290 OA
BRANCH  14  16
HETATM   16  C   UNL     1      41.538 -15.910   4.829  1.00  0.00     0.013 A 
HETATM   17  C   UNL     1      42.238 -16.442   5.915  1.00  0.00     0.026 A 
HETATM   18  C   UNL     1      43.115 -17.527   5.763  1.00  0.00    -0.016 A 
HETATM   19  C   UNL     1      43.268 -18.049   4.453  1.00  0.00     0.079 A 
HETATM   20  C   UNL     1      42.552 -17.563   3.326  1.00  0.00    -0.016 A 
HETATM   21  C   UNL     1      41.669 -16.486   3.561  1.00  0.00     0.026 A 
BRANCH  18  22
HETATM   22  C   UNL     1      43.891 -18.084   6.989  1.00  0.00    -0.021 C 
HETATM   23  C   UNL     1      45.401 -17.851   6.778  1.00  0.00     0.019 C 
HETATM   24  C   UNL     1      43.513 -17.391   8.326  1.00  0.00     0.019 C 
HETATM   25  C   UNL     1      43.619 -19.590   7.220  1.00  0.00     0.019 C 
ENDBRANCH  18  22
BRANCH  19  26
HETATM   26  O   UNL     1      44.200 -19.038   4.317  1.00  0.00    -0.360 OA
HETATM   27  H   UNL     1      44.450 -19.133   3.387  1.00  0.00     0.217 HD
ENDBRANCH  19  26
BRANCH  20  28
HETATM   28  C   UNL     1      42.711 -18.138   1.890  1.00  0.00    -0.021 C 
HETATM   29  C   UNL     1      41.479 -17.764   1.036  1.00  0.00     0.019 C 
HETATM   30  C   UNL     1      42.914 -19.671   1.897  1.00  0.00     0.019 C 
HETATM   31  C   UNL     1      43.943 -17.571   1.128  1.00  0.00     0.019 C 
ENDBRANCH  20  28
ENDBRANCH  14  16
ENDBRANCH  13  14
ENDBRANCH   1  13
BRANCH   6  32
HETATM   32  C   UNL     1      41.573  -9.600   7.815  1.00  0.00     0.175 C 
BRANCH  32  33
HETATM   33  C   UNL     1      40.839  -9.585   9.174  1.00  0.00     0.255 C 
BRANCH  33  34
HETATM   34  N   UNL     1      41.664 -10.022  10.368  1.00  0.00    -0.070 N 
HETATM   35  H   UNL     1      41.765  -9.164  10.932  1.00  0.00     0.279 HD
HETATM   36  C   UNL     1      40.984 -11.012  11.292  1.00  0.00     0.235 C 
HETATM   37  C   UNL     1      41.779 -11.113  12.587  1.00  0.00     0.028 C 
HETATM   38  C   UNL     1      43.241 -11.471  12.334  1.00  0.00     0.003 C 
HETATM   39  C   UNL     1      43.887 -10.517  11.333  1.00  0.00     0.028 C 
HETATM   40  C   UNL     1      43.086 -10.427  10.041  1.00  0.00     0.235 C 
ENDBRANCH  33  34
ENDBRANCH  32  33
ENDBRANCH   6  32
TORSDOF 9
ENDMDL
MODEL 8
REMARK VINA RESULT:      -8.2      4.649      7.003
REMARK  9 active torsions:
REMARK  status: ('A' for Active; 'I' for Inactive)
REMARK    1  A    between atoms: C_2  and  C_3 
REMARK    2  A    between atoms: C_4  and  O_5 
REMARK    3  A    between atoms: C_6  and  C_7 
REMARK    4  A    between atoms: C_12  and  C_13 
REMARK    5  A    between atoms: C_13  and  C_14 
REMARK    6  A    between atoms: C_14  and  N_15 
REMARK    7  A    between atoms: N_20  and  C_21 
REMARK    8  A    between atoms: C_21  and  C_22 
REMARK    9  A    between atoms: C_22  and  N_23 
ROOT
HETATM    1  N   UNL     1      39.945 -15.295   2.131  1.00  0.00    -0.174 N 
HETATM    2  C   UNL     1      39.552 -14.457   1.109  1.00  0.00     0.681 A 
HETATM    3  N   UNL     1      39.553 -14.798  -0.182  1.00  0.00    -0.234 N 
HETATM    4  H   UNL     1      39.319 -14.168  -0.931  1.00  0.00     0.174 HD
HETATM    5  H   UNL     1      40.134 -15.601  -0.454  1.00  0.00     0.174 HD
HETATM    6  N   UNL     1      39.127 -13.194   1.563  1.00  0.00    -0.180 N 
HETATM    7  C   UNL     1      39.401 -13.222   2.973  1.00  0.00     0.079 A 
HETATM    8  C   UNL     1      39.882 -14.503   3.311  1.00  0.00     0.079 A 
HETATM    9  C   UNL     1      39.271 -12.247   3.941  1.00  0.00     0.032 A 
HETATM   10  C   UNL     1      39.598 -12.584   5.261  1.00  0.00     0.002 A 
HETATM   11  C   UNL     1      40.055 -13.870   5.591  1.00  0.00     0.002 A 
HETATM   12  C   UNL     1      40.205 -14.849   4.607  1.00  0.00     0.032 A 
ENDROOT
BRANCH   1  13
HETATM   13  C   UNL     1      40.261 -16.731   2.078  1.00  0.00     0.231 C 
BRANCH  13  14
HETATM   14  C   UNL     1      41.684 -17.061   1.689  1.00  0.00     0.178 C 
HETATM   15  O   UNL     1      42.155 -16.681   0.617  1.00  0.00    -0.290 OA
BRANCH  14  16
HETATM   16  C   UNL     1      42.482 -17.903   2.631  1.00  0.00     0.013 A 
HETATM   17  C   UNL     1      42.801 -17.422   3.904  1.00  0.00     0.026 A 
HETATM   18  C   UNL     1      43.612 -18.156   4.783  1.00  0.00    -0.016 A 
HETATM   19  C   UNL     1      44.103 -19.402   4.315  1.00  0.00     0.079 A 
HETATM   20  C   UNL     1      43.776 -19.946   3.043  1.00  0.00    -0.016 A 
HETATM   21  C   UNL     1      42.935 -19.161   2.223  1.00  0.00     0.026 A 
BRANCH  18  22
HETATM   22  C   UNL     1      43.963 -17.585   6.186  1.00  0.00    -0.021 C 
HETATM   23  C   UNL     1      43.167 -18.357   7.258  1.00  0.00     0.019 C 
HETATM   24  C   UNL     1      45.465 -17.731   6.552  1.00  0.00     0.019 C 
HETATM   25  C   UNL     1      43.662 -16.071   6.295  1.00  0.00     0.019 C 
ENDBRANCH  18  22
BRANCH  19  26
HETATM   26  O   UNL     1      44.968 -20.047   5.151  1.00  0.00    -0.360 OA
HETATM   27  H   UNL     1      45.879 -19.784   4.954  1.00  0.00     0.217 HD
ENDBRANCH  19  26
BRANCH  20  28
HETATM   28  C   UNL     1      44.307 -21.314   2.529  1.00  0.00    -0.021 C 
HETATM   29  C   UNL     1      45.723 -21.137   1.938  1.00  0.00     0.019 C 
HETATM   30  C   UNL     1      43.362 -21.945   1.479  1.00  0.00     0.019 C 
HETATM   31  C   UNL     1      44.444 -22.386   3.646  1.00  0.00     0.019 C 
ENDBRANCH  20  28
ENDBRANCH  14  16
ENDBRANCH  13  14
ENDBRANCH   1  13
BRANCH   6  32
HETATM   32  C   UNL     1      38.493 -12.164   0.721  1.00  0.00     0.175 C 
BRANCH  32  33
HETATM   33  C   UNL     1      36.966 -12.275   0.519  1.00  0.00     0.255 C 
BRANCH  33  34
HETATM   34  N   UNL     1      36.129 -11.272   1.287  1.00  0.00    -0.070 N 
HETATM   35  H   UNL     1      35.887 -11.765   2.162  1.00  0.00     0.279 HD
HETATM   36  C   UNL     1      36.866 -10.028   1.736  1.00  0.00     0.235 C 
HETATM   37  C   UNL     1      36.010  -9.279   2.749  1.00  0.00     0.028 C 
HETATM   38  C   UNL     1      34.623  -8.960   2.199  1.00  0.00     0.003 C 
HETATM   39  C   UNL     1      33.928 -10.211   1.669  1.00  0.00     0.028 C 
HETATM   40  C   UNL     1      34.790 -10.950   0.655  1.00  0.00     0.235 C 
ENDBRANCH  33  34
ENDBRANCH  32  33
ENDBRANCH   6  32
TORSDOF 9
ENDMDL
MODEL 9
REMARK VINA RESULT:      -8.1      4.183      8.783
REMARK  9 active torsions:
REMARK  status: ('A' for Active; 'I' for Inactive)
REMARK    1  A    between atoms: C_2  and  C_3 
REMARK    2  A    between atoms: C_4  and  O_5 
REMARK    3  A    between atoms: C_6  and  C_7 
REMARK    4  A    between atoms: C_12  and  C_13 
REMARK    5  A    between atoms: C_13  and  C_14 
REMARK    6  A    between atoms: C_14  and  N_15 
REMARK    7  A    between atoms: N_20  and  C_21 
REMARK    8  A    between atoms: C_21  and  C_22 
REMARK    9  A    between atoms: C_22  and  N_23 
ROOT
HETATM    1  N   UNL     1      41.582 -15.757   4.655  1.00  0.00    -0.174 N 
HETATM    2  C   UNL     1      41.702 -17.087   4.996  1.00  0.00     0.681 A 
HETATM    3  N   UNL     1      40.897 -18.054   4.545  1.00  0.00    -0.234 N 
HETATM    4  H   UNL     1      40.952 -19.015   4.838  1.00  0.00     0.174 HD
HETATM    5  H   UNL     1      39.986 -17.765   4.166  1.00  0.00     0.174 HD
HETATM    6  N   UNL     1      42.781 -17.340   5.865  1.00  0.00    -0.180 N 
HETATM    7  C   UNL     1      43.286 -16.032   6.178  1.00  0.00     0.079 A 
HETATM    8  C   UNL     1      42.564 -15.082   5.430  1.00  0.00     0.079 A 
HETATM    9  C   UNL     1      44.287 -15.631   7.039  1.00  0.00     0.032 A 
HETATM   10  C   UNL     1      44.578 -14.262   7.115  1.00  0.00     0.002 A 
HETATM   11  C   UNL     1      43.868 -13.324   6.348  1.00  0.00     0.002 A 
HETATM   12  C   UNL     1      42.842 -13.731   5.493  1.00  0.00     0.032 A 
ENDROOT
BRANCH   1  13
HETATM   13  C   UNL     1      40.717 -15.140   3.638  1.00  0.00     0.231 C 
BRANCH  13  14
HETATM   14  C   UNL     1      41.248 -15.196   2.223  1.00  0.00     0.178 C 
HETATM   15  O   UNL     1      42.261 -15.839   1.949  1.00  0.00    -0.290 OA
BRANCH  14  16
HETATM   16  C   UNL     1      40.524 -14.406   1.181  1.00  0.00     0.013 A 
HETATM   17  C   UNL     1      39.687 -13.352   1.554  1.00  0.00     0.026 A 
HETATM   18  C   UNL     1      38.935 -12.641   0.606  1.00  0.00    -0.016 A 
HETATM   19  C   UNL     1      39.054 -13.052  -0.746  1.00  0.00     0.079 A 
HETATM   20  C   UNL     1      39.919 -14.095  -1.176  1.00  0.00    -0.016 A 
HETATM   21  C   UNL     1      40.663 -14.748  -0.168  1.00  0.00     0.026 A 
BRANCH  18  22
HETATM   22  C   UNL     1      37.999 -11.484   1.056  1.00  0.00    -0.021 C 
HETATM   23  C   UNL     1      38.151 -11.275   2.577  1.00  0.00     0.019 C 
HETATM   24  C   UNL     1      38.331 -10.125   0.382  1.00  0.00     0.019 C 
HETATM   25  C   UNL     1      36.517 -11.760   0.708  1.00  0.00     0.019 C 
ENDBRANCH  18  22
BRANCH  19  26
HETATM   26  O   UNL     1      38.238 -12.409  -1.633  1.00  0.00    -0.360 OA
HETATM   27  H   UNL     1      38.750 -12.109  -2.397  1.00  0.00     0.217 HD
ENDBRANCH  19  26
BRANCH  20  28
HETATM   28  C   UNL     1      40.058 -14.544  -2.659  1.00  0.00    -0.021 C 
HETATM   29  C   UNL     1      40.908 -15.831  -2.738  1.00  0.00     0.019 C 
HETATM   30  C   UNL     1      40.678 -13.437  -3.544  1.00  0.00     0.019 C 
HETATM   31  C   UNL     1      38.700 -14.888  -3.332  1.00  0.00     0.019 C 
ENDBRANCH  20  28
ENDBRANCH  14  16
ENDBRANCH  13  14
ENDBRANCH   1  13
BRANCH   6  32
HETATM   32  C   UNL     1      43.255 -18.680   6.255  1.00  0.00     0.175 C 
BRANCH  32  33
HETATM   33  C   UNL     1      44.485 -19.229   5.500  1.00  0.00     0.255 C 
BRANCH  33  34
HETATM   34  N   UNL     1      44.180 -20.123   4.314  1.00  0.00    -0.070 N 
HETATM   35  H   UNL     1      43.233 -20.484   4.509  1.00  0.00     0.279 HD
HETATM   36  C   UNL     1      44.056 -19.409   2.985  1.00  0.00     0.235 C 
HETATM   37  C   UNL     1      43.444 -20.358   1.963  1.00  0.00     0.028 C 
HETATM   38  C   UNL     1      44.234 -21.659   1.847  1.00  0.00     0.003 C 
HETATM   39  C   UNL     1      44.427 -22.322   3.208  1.00  0.00     0.028 C 
HETATM   40  C   UNL     1      45.043 -21.365   4.220  1.00  0.00     0.235 C 
ENDBRANCH  33  34
ENDBRANCH  32  33
ENDBRANCH   6  32
TORSDOF 9
ENDMDL
MODEL 10
REMARK VINA RESULT:      -8.1      4.360      8.756
REMARK  9 active torsions:
REMARK  status: ('A' for Active; 'I' for Inactive)
REMARK    1  A    between atoms: C_2  and  C_3 
REMARK    2  A    between atoms: C_4  and  O_5 
REMARK    3  A    between atoms: C_6  and  C_7 
REMARK    4  A    between atoms: C_12  and  C_13 
REMARK    5  A    between atoms: C_13  and  C_14 
REMARK    6  A    between atoms: C_14  and  N_15 
REMARK    7  A    between atoms: N_20  and  C_21 
REMARK    8  A    between atoms: C_21  and  C_22 
REMARK    9  A    between atoms: C_22  and  N_23 
ROOT
HETATM    1  N   UNL     1      39.404 -13.609   3.586  1.00  0.00    -0.174 N 
HETATM    2  C   UNL     1      38.927 -14.206   2.440  1.00  0.00     0.681 A 
HETATM    3  N   UNL     1      39.062 -15.506   2.159  1.00  0.00    -0.234 N 
HETATM    4  H   UNL     1      38.762 -15.930   1.297  1.00  0.00     0.174 HD
HETATM    5  H   UNL     1      39.793 -16.020   2.666  1.00  0.00     0.174 HD
HETATM    6  N   UNL     1      38.257 -13.309   1.586  1.00  0.00    -0.180 N 
HETATM    7  C   UNL     1      38.451 -12.029   2.209  1.00  0.00     0.079 A 
HETATM    8  C   UNL     1      39.132 -12.222   3.427  1.00  0.00     0.079 A 
HETATM    9  C   UNL     1      38.093 -10.760   1.802  1.00  0.00     0.032 A 
HETATM   10  C   UNL     1      38.399  -9.687   2.649  1.00  0.00     0.002 A 
HETATM   11  C   UNL     1      39.059  -9.892   3.872  1.00  0.00     0.002 A 
HETATM   12  C   UNL     1      39.438 -11.174   4.273  1.00  0.00     0.032 A 
ENDROOT
BRANCH   1  13
HETATM   13  C   UNL     1      39.975 -14.239   4.787  1.00  0.00     0.231 C 
BRANCH  13  14
HETATM   14  C   UNL     1      41.485 -14.218   4.867  1.00  0.00     0.178 C 
HETATM   15  O   UNL     1      42.099 -13.162   5.019  1.00  0.00    -0.290 OA
BRANCH  14  16
HETATM   16  C   UNL     1      42.204 -15.518   4.711  1.00  0.00     0.013 A 
HETATM   17  C   UNL     1      42.259 -16.145   3.463  1.00  0.00     0.026 A 
HETATM   18  C   UNL     1      42.860 -17.401   3.298  1.00  0.00    -0.016 A 
HETATM   19  C   UNL     1      43.397 -18.013   4.461  1.00  0.00     0.079 A 
HETATM   20  C   UNL     1      43.396 -17.398   5.742  1.00  0.00    -0.016 A 
HETATM   21  C   UNL     1      42.795 -16.122   5.824  1.00  0.00     0.026 A 
BRANCH  18  22
HETATM   22  C   UNL     1      42.889 -18.080   1.899  1.00  0.00    -0.021 C 
HETATM   23  C   UNL     1      41.618 -17.684   1.121  1.00  0.00     0.019 C 
HETATM   24  C   UNL     1      44.100 -17.646   1.030  1.00  0.00     0.019 C 
HETATM   25  C   UNL     1      42.989 -19.620   1.997  1.00  0.00     0.019 C 
ENDBRANCH  18  22
BRANCH  19  26
HETATM   26  O   UNL     1      43.887 -19.276   4.290  1.00  0.00    -0.360 OA
HETATM   27  H   UNL     1      44.475 -19.505   5.024  1.00  0.00     0.217 HD
ENDBRANCH  19  26
BRANCH  20  28
HETATM   28  C   UNL     1      43.990 -18.061   7.017  1.00  0.00    -0.021 C 
HETATM   29  C   UNL     1      43.473 -17.331   8.276  1.00  0.00     0.019 C 
HETATM   30  C   UNL     1      45.536 -18.071   6.999  1.00  0.00     0.019 C 
HETATM   31  C   UNL     1      43.579 -19.550   7.190  1.00  0.00     0.019 C 
ENDBRANCH  20  28
ENDBRANCH  14  16
ENDBRANCH  13  14
ENDBRANCH   1  13
BRANCH   6  32
HETATM   32  C   UNL     1      37.498 -13.695   0.383  1.00  0.00     0.175 C 
BRANCH  32  33
HETATM   33  C   UNL     1      38.074 -13.241  -0.976  1.00  0.00     0.255 C 
BRANCH  33  34
HETATM   34  N   UNL     1      38.559 -14.353  -1.886  1.00  0.00    -0.070 N 
HETATM   35  H   UNL     1      38.311 -15.218  -1.380  1.00  0.00     0.279 HD
HETATM   36  C   UNL     1      37.836 -14.461  -3.212  1.00  0.00     0.235 C 
HETATM   37  C   UNL     1      38.195 -15.786  -3.870  1.00  0.00     0.028 C 
HETATM   38  C   UNL     1      39.705 -15.957  -4.022  1.00  0.00     0.003 C 
HETATM   39  C   UNL     1      40.428 -15.758  -2.693  1.00  0.00     0.028 C 
HETATM   40  C   UNL     1      40.063 -14.428  -2.045  1.00  0.00     0.235 C 
ENDBRANCH  33  34
ENDBRANCH  32  33
ENDBRANCH   6  32
TORSDOF 9
ENDMDL
