MODEL 1
REMARK VINA RESULT:      -8.6      0.000      0.000
REMARK  7 active torsions:
REMARK  status: ('A' for Active; 'I' for Inactive)
REMARK    1  A    between atoms: C_3  and  C_4 
REMARK       I    between atoms: C_4  and  N_5 
REMARK    2  A    between atoms: N_5  and  C_6 
REMARK    3  A    between atoms: C_6  and  C_7 
REMARK    4  A    between atoms: C_13  and  N_14 
REMARK    5  A    between atoms: N_14  and  C_15 
REMARK    6  A    between atoms: C_15  and  N_16 
REMARK       I    between atoms: N_16  and  C_17 
REMARK    7  A    between atoms: C_17  and  C_18 
ROOT
HETATM    1  C   UNL     1      46.685 -11.360   8.807  1.00  0.00     0.001 A 
HETATM    2  C   UNL     1      45.397 -11.057   9.241  1.00  0.00     0.019 A 
HETATM    3  C   UNL     1      44.289 -11.788   8.772  1.00  0.00     0.058 A 
HETATM    4  C   UNL     1      44.475 -12.831   7.843  1.00  0.00     0.050 A 
HETATM    5  C   UNL     1      45.781 -13.115   7.414  1.00  0.00     0.030 A 
HETATM    6  C   UNL     1      46.876 -12.391   7.897  1.00  0.00     0.002 A 
ENDROOT
BRANCH   4   7
HETATM    7  N   UNL     1      43.364 -13.482   7.246  1.00  0.00    -0.332 N 
HETATM    8  H   UNL     1      42.663 -13.843   7.900  1.00  0.00     0.168 HD
BRANCH   7   9
HETATM    9  C   UNL     1      43.074 -13.688   5.921  1.00  0.00     0.179 C 
HETATM   10  S   UNL     1      42.235 -12.675   4.885  1.00  0.00    -0.040 SA
BRANCH   9  11
HETATM   11  N   UNL     1      43.549 -14.864   5.376  1.00  0.00    -0.299 N 
HETATM   12  C   UNL     1      43.406 -16.154   5.864  1.00  0.00     0.257 C 
HETATM   13  O   UNL     1      43.060 -16.425   7.009  1.00  0.00    -0.267 OA
HETATM   14  H   UNL     1      43.858 -14.738   4.422  1.00  0.00     0.171 HD
BRANCH  12  15
HETATM   15  C   UNL     1      43.685 -17.248   4.898  1.00  0.00     0.035 A 
HETATM   16  C   UNL     1      43.585 -17.064   3.514  1.00  0.00     0.041 A 
HETATM   17  C   UNL     1      43.815 -18.144   2.660  1.00  0.00     0.036 A 
HETATM   18 CL   UNL     1      43.675 -17.921   0.959  1.00  0.00    -0.084 Cl
HETATM   19  C   UNL     1      44.149 -19.397   3.166  1.00  0.00     0.047 A 
HETATM   20  C   UNL     1      44.268 -19.567   4.543  1.00  0.00     0.036 A 
HETATM   21 CL   UNL     1      44.680 -21.112   5.175  1.00  0.00    -0.084 Cl
HETATM   22  C   UNL     1      44.045 -18.501   5.412  1.00  0.00     0.041 A 
ENDBRANCH  12  15
ENDBRANCH   9  11
ENDBRANCH   7   9
ENDBRANCH   4   7
BRANCH   3  23
HETATM   23  C   UNL     1      42.976 -11.425   9.379  1.00  0.00     0.254 C 
HETATM   24  N   UNL     1      42.785 -11.777  10.696  1.00  0.00    -0.351 N 
HETATM   25  H   UNL     1      43.573 -12.123  11.235  1.00  0.00     0.163 HD
HETATM   26  O   UNL     1      42.158 -10.772   8.739  1.00  0.00    -0.268 OA
BRANCH  24  27
HETATM   27  C   UNL     1      41.699 -11.192  11.446  1.00  0.00     0.187 C 
BRANCH  27  28
HETATM   28  C   UNL     1      42.222 -10.465  12.629  1.00  0.00     0.070 A 
HETATM   29  O   UNL     1      41.594 -10.664  13.829  1.00  0.00    -0.325 OA
HETATM   30  C   UNL     1      42.258  -9.920  14.750  1.00  0.00     0.142 A 
HETATM   31  C   UNL     1      43.307  -9.250  14.166  1.00  0.00     0.027 A 
HETATM   32  C   UNL     1      43.287  -9.603  12.796  1.00  0.00     0.036 A 
ENDBRANCH  27  28
ENDBRANCH  24  27
ENDBRANCH   3  23
TORSDOF 7
ENDMDL
MODEL 2
REMARK VINA RESULT:      -8.5      7.751      9.658
REMARK  7 active torsions:
REMARK  status: ('A' for Active; 'I' for Inactive)
REMARK    1  A    between atoms: C_3  and  C_4 
REMARK       I    between atoms: C_4  and  N_5 
REMARK    2  A    between atoms: N_5  and  C_6 
REMARK    3  A    between atoms: C_6  and  C_7 
REMARK    4  A    between atoms: C_13  and  N_14 
REMARK    5  A    between atoms: N_14  and  C_15 
REMARK    6  A    between atoms: C_15  and  N_16 
REMARK       I    between atoms: N_16  and  C_17 
REMARK    7  A    between atoms: C_17  and  C_18 
ROOT
HETATM    1  C   UNL     1      37.558 -12.187  -0.186  1.00  0.00     0.001 A 
HETATM    2  C   UNL     1      38.909 -12.302  -0.506  1.00  0.00     0.019 A 
HETATM    3  C   UNL     1      39.656 -13.419  -0.085  1.00  0.00     0.058 A 
HETATM    4  C   UNL     1      39.041 -14.430   0.681  1.00  0.00     0.050 A 
HETATM    5  C   UNL     1      37.681 -14.289   0.997  1.00  0.00     0.030 A 
HETATM    6  C   UNL     1      36.945 -13.182   0.563  1.00  0.00     0.002 A 
ENDROOT
BRANCH   4   7
HETATM    7  N   UNL     1      39.806 -15.487   1.239  1.00  0.00    -0.332 N 
HETATM    8  H   UNL     1      40.007 -16.266   0.605  1.00  0.00     0.168 HD
BRANCH   7   9
HETATM    9  C   UNL     1      40.334 -15.619   2.499  1.00  0.00     0.179 C 
HETATM   10  S   UNL     1      40.160 -14.577   3.798  1.00  0.00    -0.040 SA
BRANCH   9  11
HETATM   11  N   UNL     1      41.084 -16.757   2.721  1.00  0.00    -0.299 N 
HETATM   12  C   UNL     1      41.976 -17.377   1.860  1.00  0.00     0.257 C 
HETATM   13  O   UNL     1      42.037 -17.160   0.656  1.00  0.00    -0.267 OA
HETATM   14  H   UNL     1      41.094 -17.014   3.699  1.00  0.00     0.171 HD
BRANCH  12  15
HETATM   15  C   UNL     1      42.910 -18.350   2.485  1.00  0.00     0.035 A 
HETATM   16  C   UNL     1      43.238 -19.566   1.874  1.00  0.00     0.041 A 
HETATM   17  C   UNL     1      44.085 -20.459   2.534  1.00  0.00     0.036 A 
HETATM   18 CL   UNL     1      44.475 -21.960   1.789  1.00  0.00    -0.084 Cl
HETATM   19  C   UNL     1      44.611 -20.152   3.786  1.00  0.00     0.047 A 
HETATM   20  C   UNL     1      44.297 -18.931   4.377  1.00  0.00     0.036 A 
HETATM   21 CL   UNL     1      44.944 -18.546   5.924  1.00  0.00    -0.084 Cl
HETATM   22  C   UNL     1      43.456 -18.026   3.734  1.00  0.00     0.041 A 
ENDBRANCH  12  15
ENDBRANCH   9  11
ENDBRANCH   7   9
ENDBRANCH   4   7
BRANCH   3  23
HETATM   23  C   UNL     1      41.066 -13.467  -0.568  1.00  0.00     0.254 C 
HETATM   24  N   UNL     1      41.296 -13.028  -1.852  1.00  0.00    -0.351 N 
HETATM   25  H   UNL     1      40.549 -12.559  -2.355  1.00  0.00     0.163 HD
HETATM   26  O   UNL     1      41.968 -13.808   0.191  1.00  0.00    -0.268 OA
BRANCH  24  27
HETATM   27  C   UNL     1      42.643 -12.738  -2.282  1.00  0.00     0.187 C 
BRANCH  27  28
HETATM   28  C   UNL     1      42.959 -11.306  -2.061  1.00  0.00     0.070 A 
HETATM   29  O   UNL     1      43.638 -10.970  -0.921  1.00  0.00    -0.325 OA
HETATM   30  C   UNL     1      43.826  -9.626  -0.955  1.00  0.00     0.142 A 
HETATM   31  C   UNL     1      43.286  -9.090  -2.101  1.00  0.00     0.027 A 
HETATM   32  C   UNL     1      42.728 -10.174  -2.817  1.00  0.00     0.036 A 
ENDBRANCH  27  28
ENDBRANCH  24  27
ENDBRANCH   3  23
TORSDOF 7
ENDMDL
MODEL 3
REMARK VINA RESULT:      -8.4      3.657      5.524
REMARK  7 active torsions:
REMARK  status: ('A' for Active; 'I' for Inactive)
REMARK    1  A    between atoms: C_3  and  C_4 
REMARK       I    between atoms: C_4  and  N_5 
REMARK    2  A    between atoms: N_5  and  C_6 
REMARK    3  A    between atoms: C_6  and  C_7 
REMARK    4  A    between atoms: C_13  and  N_14 
REMARK    5  A    between atoms: N_14  and  C_15 
REMARK    6  A    between atoms: C_15  and  N_16 
REMARK       I    between atoms: N_16  and  C_17 
REMARK    7  A    between atoms: C_17  and  C_18 
ROOT
HETATM    1  C   UNL     1      39.188 -12.101   5.265  1.00  0.00     0.001 A 
HETATM    2  C   UNL     1      40.465 -12.569   5.568  1.00  0.00     0.019 A 
HETATM    3  C   UNL     1      41.377 -12.888   4.544  1.00  0.00     0.058 A 
HETATM    4  C   UNL     1      40.997 -12.748   3.194  1.00  0.00     0.050 A 
HETATM    5  C   UNL     1      39.703 -12.282   2.912  1.00  0.00     0.030 A 
HETATM    6  C   UNL     1      38.810 -11.956   3.937  1.00  0.00     0.002 A 
ENDROOT
BRANCH   4   7
HETATM    7  N   UNL     1      41.843 -13.201   2.148  1.00  0.00    -0.332 N 
HETATM    8  H   UNL     1      42.530 -12.519   1.813  1.00  0.00     0.168 HD
BRANCH   7   9
HETATM    9  C   UNL     1      41.895 -14.424   1.527  1.00  0.00     0.179 C 
HETATM   10  S   UNL     1      41.405 -14.805  -0.028  1.00  0.00    -0.040 SA
BRANCH   9  11
HETATM   11  N   UNL     1      42.431 -15.455   2.271  1.00  0.00    -0.299 N 
HETATM   12  C   UNL     1      41.813 -16.625   2.685  1.00  0.00     0.257 C 
HETATM   13  O   UNL     1      40.601 -16.804   2.681  1.00  0.00    -0.267 OA
HETATM   14  H   UNL     1      43.439 -15.391   2.329  1.00  0.00     0.171 HD
BRANCH  12  15
HETATM   15  C   UNL     1      42.720 -17.711   3.141  1.00  0.00     0.035 A 
HETATM   16  C   UNL     1      43.470 -17.610   4.318  1.00  0.00     0.041 A 
HETATM   17  C   UNL     1      44.340 -18.645   4.668  1.00  0.00     0.036 A 
HETATM   18 CL   UNL     1      45.274 -18.514   6.107  1.00  0.00    -0.084 Cl
HETATM   19  C   UNL     1      44.465 -19.776   3.866  1.00  0.00     0.047 A 
HETATM   20  C   UNL     1      43.699 -19.879   2.708  1.00  0.00     0.036 A 
HETATM   21 CL   UNL     1      43.847 -21.273   1.712  1.00  0.00    -0.084 Cl
HETATM   22  C   UNL     1      42.823 -18.858   2.342  1.00  0.00     0.041 A 
ENDBRANCH  12  15
ENDBRANCH   9  11
ENDBRANCH   7   9
ENDBRANCH   4   7
BRANCH   3  23
HETATM   23  C   UNL     1      42.738 -13.291   4.999  1.00  0.00     0.254 C 
HETATM   24  N   UNL     1      42.862 -13.678   6.314  1.00  0.00    -0.351 N 
HETATM   25  H   UNL     1      42.024 -13.819   6.869  1.00  0.00     0.163 HD
HETATM   26  O   UNL     1      43.667 -13.344   4.199  1.00  0.00    -0.268 OA
BRANCH  24  27
HETATM   27  C   UNL     1      44.047 -14.380   6.748  1.00  0.00     0.187 C 
BRANCH  27  28
HETATM   28  C   UNL     1      44.956 -13.459   7.471  1.00  0.00     0.070 A 
HETATM   29  O   UNL     1      46.164 -13.171   6.895  1.00  0.00    -0.325 OA
HETATM   30  C   UNL     1      46.799 -12.303   7.722  1.00  0.00     0.142 A 
HETATM   31  C   UNL     1      46.019 -12.020   8.820  1.00  0.00     0.027 A 
HETATM   32  C   UNL     1      44.828 -12.765   8.657  1.00  0.00     0.036 A 
ENDBRANCH  27  28
ENDBRANCH  24  27
ENDBRANCH   3  23
TORSDOF 7
ENDMDL
MODEL 4
REMARK VINA RESULT:      -8.4      3.658      5.403
REMARK  7 active torsions:
REMARK  status: ('A' for Active; 'I' for Inactive)
REMARK    1  A    between atoms: C_3  and  C_4 
REMARK       I    between atoms: C_4  and  N_5 
REMARK    2  A    between atoms: N_5  and  C_6 
REMARK    3  A    between atoms: C_6  and  C_7 
REMARK    4  A    between atoms: C_13  and  N_14 
REMARK    5  A    between atoms: N_14  and  C_15 
REMARK    6  A    between atoms: C_15  and  N_16 
REMARK       I    between atoms: N_16  and  C_17 
REMARK    7  A    between atoms: C_17  and  C_18 
ROOT
HETATM    1  C   UNL     1      39.936 -11.249   5.312  1.00  0.00     0.001 A 
HETATM    2  C   UNL     1      40.822 -12.225   5.761  1.00  0.00     0.019 A 
HETATM    3  C   UNL     1      40.910 -13.471   5.111  1.00  0.00     0.058 A 
HETATM    4  C   UNL     1      40.086 -13.747   4.001  1.00  0.00     0.050 A 
HETATM    5  C   UNL     1      39.196 -12.751   3.571  1.00  0.00     0.030 A 
HETATM    6  C   UNL     1      39.127 -11.512   4.215  1.00  0.00     0.002 A 
ENDROOT
BRANCH   4   7
HETATM    7  N   UNL     1      40.052 -15.043   3.424  1.00  0.00    -0.332 N 
HETATM    8  H   UNL     1      39.450 -15.720   3.900  1.00  0.00     0.168 HD
BRANCH   7   9
HETATM    9  C   UNL     1      40.692 -15.525   2.309  1.00  0.00     0.179 C 
HETATM   10  S   UNL     1      40.571 -14.966   0.736  1.00  0.00    -0.040 SA
BRANCH   9  11
HETATM   11  N   UNL     1      41.550 -16.586   2.519  1.00  0.00    -0.299 N 
HETATM   12  C   UNL     1      42.892 -16.547   2.864  1.00  0.00     0.257 C 
HETATM   13  O   UNL     1      43.600 -15.550   2.773  1.00  0.00    -0.267 OA
HETATM   14  H   UNL     1      41.050 -17.460   2.610  1.00  0.00     0.171 HD
BRANCH  12  15
HETATM   15  C   UNL     1      43.464 -17.815   3.388  1.00  0.00     0.035 A 
HETATM   16  C   UNL     1      43.768 -18.896   2.552  1.00  0.00     0.041 A 
HETATM   17  C   UNL     1      44.259 -20.077   3.110  1.00  0.00     0.036 A 
HETATM   18 CL   UNL     1      44.618 -21.412   2.084  1.00  0.00    -0.084 Cl
HETATM   19  C   UNL     1      44.457 -20.191   4.484  1.00  0.00     0.047 A 
HETATM   20  C   UNL     1      44.173 -19.104   5.306  1.00  0.00     0.036 A 
HETATM   21 CL   UNL     1      44.414 -19.236   7.003  1.00  0.00    -0.084 Cl
HETATM   22  C   UNL     1      43.684 -17.915   4.768  1.00  0.00     0.041 A 
ENDBRANCH  12  15
ENDBRANCH   9  11
ENDBRANCH   7   9
ENDBRANCH   4   7
BRANCH   3  23
HETATM   23  C   UNL     1      41.959 -14.395   5.633  1.00  0.00     0.254 C 
HETATM   24  N   UNL     1      43.257 -13.938   5.600  1.00  0.00    -0.351 N 
HETATM   25  H   UNL     1      43.433 -12.965   5.374  1.00  0.00     0.163 HD
HETATM   26  O   UNL     1      41.643 -15.468   6.135  1.00  0.00    -0.268 OA
BRANCH  24  27
HETATM   27  C   UNL     1      44.276 -14.616   6.366  1.00  0.00     0.187 C 
BRANCH  27  28
HETATM   28  C   UNL     1      45.003 -13.651   7.227  1.00  0.00     0.070 A 
HETATM   29  O   UNL     1      46.229 -13.215   6.804  1.00  0.00    -0.325 OA
HETATM   30  C   UNL     1      46.678 -12.335   7.735  1.00  0.00     0.142 A 
HETATM   31  C   UNL     1      45.759 -12.190   8.748  1.00  0.00     0.027 A 
HETATM   32  C   UNL     1      44.675 -13.038   8.420  1.00  0.00     0.036 A 
ENDBRANCH  27  28
ENDBRANCH  24  27
ENDBRANCH   3  23
TORSDOF 7
ENDMDL
MODEL 5
REMARK VINA RESULT:      -8.3      6.032      8.300
REMARK  7 active torsions:
REMARK  status: ('A' for Active; 'I' for Inactive)
REMARK    1  A    between atoms: C_3  and  C_4 
REMARK       I    between atoms: C_4  and  N_5 
REMARK    2  A    between atoms: N_5  and  C_6 
REMARK    3  A    between atoms: C_6  and  C_7 
REMARK    4  A    between atoms: C_13  and  N_14 
REMARK    5  A    between atoms: N_14  and  C_15 
REMARK    6  A    between atoms: C_15  and  N_16 
REMARK       I    between atoms: N_16  and  C_17 
REMARK    7  A    between atoms: C_17  and  C_18 
ROOT
HETATM    1  C   UNL     1      39.984 -13.497  -3.113  1.00  0.00     0.001 A 
HETATM    2  C   UNL     1      40.429 -12.810  -1.986  1.00  0.00     0.019 A 
HETATM    3  C   UNL     1      41.125 -13.481  -0.962  1.00  0.00     0.058 A 
HETATM    4  C   UNL     1      41.367 -14.866  -1.065  1.00  0.00     0.050 A 
HETATM    5  C   UNL     1      40.903 -15.539  -2.206  1.00  0.00     0.030 A 
HETATM    6  C   UNL     1      40.224 -14.860  -3.223  1.00  0.00     0.002 A 
ENDROOT
BRANCH   4   7
HETATM    7  N   UNL     1      41.934 -15.588   0.017  1.00  0.00    -0.332 N 
HETATM    8  H   UNL     1      42.957 -15.630   0.029  1.00  0.00     0.168 HD
BRANCH   7   9
HETATM    9  C   UNL     1      41.320 -16.228   1.064  1.00  0.00     0.179 C 
HETATM   10  S   UNL     1      39.824 -15.891   1.736  1.00  0.00    -0.040 SA
BRANCH   9  11
HETATM   11  N   UNL     1      42.014 -17.287   1.614  1.00  0.00    -0.299 N 
HETATM   12  C   UNL     1      43.377 -17.387   1.850  1.00  0.00     0.257 C 
HETATM   13  O   UNL     1      44.220 -16.648   1.355  1.00  0.00    -0.267 OA
HETATM   14  H   UNL     1      41.395 -17.955   2.052  1.00  0.00     0.171 HD
BRANCH  12  15
HETATM   15  C   UNL     1      43.795 -18.467   2.783  1.00  0.00     0.035 A 
HETATM   16  C   UNL     1      43.999 -18.236   4.148  1.00  0.00     0.041 A 
HETATM   17  C   UNL     1      44.437 -19.281   4.963  1.00  0.00     0.036 A 
HETATM   18 CL   UNL     1      44.703 -18.992   6.638  1.00  0.00    -0.084 Cl
HETATM   19  C   UNL     1      44.667 -20.550   4.437  1.00  0.00     0.047 A 
HETATM   20  C   UNL     1      44.441 -20.777   3.082  1.00  0.00     0.036 A 
HETATM   21 CL   UNL     1      44.722 -22.341   2.425  1.00  0.00    -0.084 Cl
HETATM   22  C   UNL     1      44.001 -19.748   2.252  1.00  0.00     0.041 A 
ENDBRANCH  12  15
ENDBRANCH   9  11
ENDBRANCH   7   9
ENDBRANCH   4   7
BRANCH   3  23
HETATM   23  C   UNL     1      41.626 -12.618   0.146  1.00  0.00     0.254 C 
HETATM   24  N   UNL     1      40.856 -12.567   1.286  1.00  0.00    -0.351 N 
HETATM   25  H   UNL     1      40.082 -13.214   1.390  1.00  0.00     0.163 HD
HETATM   26  O   UNL     1      42.713 -12.058   0.051  1.00  0.00    -0.268 OA
BRANCH  24  27
HETATM   27  C   UNL     1      41.413 -12.028   2.505  1.00  0.00     0.187 C 
BRANCH  27  28
HETATM   28  C   UNL     1      41.996 -13.114   3.330  1.00  0.00     0.070 A 
HETATM   29  O   UNL     1      41.184 -13.724   4.248  1.00  0.00    -0.325 OA
HETATM   30  C   UNL     1      41.926 -14.685   4.855  1.00  0.00     0.142 A 
HETATM   31  C   UNL     1      43.201 -14.710   4.339  1.00  0.00     0.027 A 
HETATM   32  C   UNL     1      43.246 -13.698   3.352  1.00  0.00     0.036 A 
ENDBRANCH  27  28
ENDBRANCH  24  27
ENDBRANCH   3  23
TORSDOF 7
ENDMDL
MODEL 6
REMARK VINA RESULT:      -8.3      5.283      8.232
REMARK  7 active torsions:
REMARK  status: ('A' for Active; 'I' for Inactive)
REMARK    1  A    between atoms: C_3  and  C_4 
REMARK       I    between atoms: C_4  and  N_5 
REMARK    2  A    between atoms: N_5  and  C_6 
REMARK    3  A    between atoms: C_6  and  C_7 
REMARK    4  A    between atoms: C_13  and  N_14 
REMARK    5  A    between atoms: N_14  and  C_15 
REMARK    6  A    between atoms: C_15  and  N_16 
REMARK       I    between atoms: N_16  and  C_17 
REMARK    7  A    between atoms: C_17  and  C_18 
ROOT
HETATM    1  C   UNL     1      44.546 -21.791   2.795  1.00  0.00     0.001 A 
HETATM    2  C   UNL     1      44.657 -21.134   4.017  1.00  0.00     0.019 A 
HETATM    3  C   UNL     1      44.102 -19.853   4.200  1.00  0.00     0.058 A 
HETATM    4  C   UNL     1      43.435 -19.216   3.134  1.00  0.00     0.050 A 
HETATM    5  C   UNL     1      43.340 -19.894   1.909  1.00  0.00     0.030 A 
HETATM    6  C   UNL     1      43.884 -21.172   1.743  1.00  0.00     0.002 A 
ENDROOT
BRANCH   4   7
HETATM    7  N   UNL     1      42.997 -17.871   3.249  1.00  0.00    -0.332 N 
HETATM    8  H   UNL     1      43.692 -17.160   3.003  1.00  0.00     0.168 HD
BRANCH   7   9
HETATM    9  C   UNL     1      41.773 -17.374   3.624  1.00  0.00     0.179 C 
HETATM   10  S   UNL     1      40.975 -17.605   5.077  1.00  0.00    -0.040 SA
BRANCH   9  11
HETATM   11  N   UNL     1      41.138 -16.575   2.695  1.00  0.00    -0.299 N 
HETATM   12  C   UNL     1      41.669 -15.527   1.959  1.00  0.00     0.257 C 
HETATM   13  O   UNL     1      42.729 -14.969   2.219  1.00  0.00    -0.267 OA
HETATM   14  H   UNL     1      40.246 -16.961   2.417  1.00  0.00     0.171 HD
BRANCH  12  15
HETATM   15  C   UNL     1      40.875 -15.095   0.779  1.00  0.00     0.035 A 
HETATM   16  C   UNL     1      41.308 -15.320  -0.533  1.00  0.00     0.041 A 
HETATM   17  C   UNL     1      40.540 -14.848  -1.599  1.00  0.00     0.036 A 
HETATM   18 CL   UNL     1      41.080 -15.110  -3.211  1.00  0.00    -0.084 Cl
HETATM   19  C   UNL     1      39.348 -14.165  -1.373  1.00  0.00     0.047 A 
HETATM   20  C   UNL     1      38.913 -13.965  -0.066  1.00  0.00     0.036 A 
HETATM   21 CL   UNL     1      37.442 -13.122   0.221  1.00  0.00    -0.084 Cl
HETATM   22  C   UNL     1      39.664 -14.430   1.012  1.00  0.00     0.041 A 
ENDBRANCH  12  15
ENDBRANCH   9  11
ENDBRANCH   7   9
ENDBRANCH   4   7
BRANCH   3  23
HETATM   23  C   UNL     1      44.211 -19.296   5.579  1.00  0.00     0.254 C 
HETATM   24  N   UNL     1      44.773 -18.045   5.698  1.00  0.00    -0.351 N 
HETATM   25  H   UNL     1      44.947 -17.499   4.861  1.00  0.00     0.163 HD
HETATM   26  O   UNL     1      43.741 -19.908   6.532  1.00  0.00    -0.268 OA
BRANCH  24  27
HETATM   27  C   UNL     1      44.626 -17.306   6.930  1.00  0.00     0.187 C 
BRANCH  27  28
HETATM   28  C   UNL     1      44.316 -15.884   6.645  1.00  0.00     0.070 A 
HETATM   29  O   UNL     1      43.809 -15.576   5.411  1.00  0.00    -0.325 OA
HETATM   30  C   UNL     1      43.589 -14.237   5.398  1.00  0.00     0.142 A 
HETATM   31  C   UNL     1      43.938 -13.676   6.604  1.00  0.00     0.027 A 
HETATM   32  C   UNL     1      44.405 -14.740   7.412  1.00  0.00     0.036 A 
ENDBRANCH  27  28
ENDBRANCH  24  27
ENDBRANCH   3  23
TORSDOF 7
ENDMDL
MODEL 7
REMARK VINA RESULT:      -8.3      5.749      9.350
REMARK  7 active torsions:
REMARK  status: ('A' for Active; 'I' for Inactive)
REMARK    1  A    between atoms: C_3  and  C_4 
REMARK       I    between atoms: C_4  and  N_5 
REMARK    2  A    between atoms: N_5  and  C_6 
REMARK    3  A    between atoms: C_6  and  C_7 
REMARK    4  A    between atoms: C_13  and  N_14 
REMARK    5  A    between atoms: N_14  and  C_15 
REMARK    6  A    between atoms: C_15  and  N_16 
REMARK       I    between atoms: N_16  and  C_17 
REMARK    7  A    between atoms: C_17  and  C_18 
ROOT
HETATM    1  C   UNL     1      44.034 -16.290   6.835  1.00  0.00     0.001 A 
HETATM    2  C   UNL     1      43.662 -17.107   5.771  1.00  0.00     0.019 A 
HETATM    3  C   UNL     1      43.294 -16.552   4.530  1.00  0.00     0.058 A 
HETATM    4  C   UNL     1      43.287 -15.153   4.359  1.00  0.00     0.050 A 
HETATM    5  C   UNL     1      43.659 -14.348   5.448  1.00  0.00     0.030 A 
HETATM    6  C   UNL     1      44.035 -14.912   6.671  1.00  0.00     0.002 A 
ENDROOT
BRANCH   4   7
HETATM    7  N   UNL     1      42.781 -14.567   3.170  1.00  0.00    -0.332 N 
HETATM    8  H   UNL     1      43.486 -14.310   2.473  1.00  0.00     0.168 HD
BRANCH   7   9
HETATM    9  C   UNL     1      41.485 -14.307   2.801  1.00  0.00     0.179 C 
HETATM   10  S   UNL     1      40.134 -14.231   3.787  1.00  0.00    -0.040 SA
BRANCH   9  11
HETATM   11  N   UNL     1      41.278 -14.063   1.458  1.00  0.00    -0.299 N 
HETATM   12  C   UNL     1      41.885 -13.107   0.658  1.00  0.00     0.257 C 
HETATM   13  O   UNL     1      42.511 -12.144   1.087  1.00  0.00    -0.267 OA
HETATM   14  H   UNL     1      40.765 -14.813   1.015  1.00  0.00     0.171 HD
BRANCH  12  15
HETATM   15  C   UNL     1      41.755 -13.311  -0.809  1.00  0.00     0.035 A 
HETATM   16  C   UNL     1      42.177 -12.351  -1.735  1.00  0.00     0.041 A 
HETATM   17  C   UNL     1      41.985 -12.582  -3.098  1.00  0.00     0.036 A 
HETATM   18 CL   UNL     1      42.489 -11.394  -4.236  1.00  0.00    -0.084 Cl
HETATM   19  C   UNL     1      41.385 -13.756  -3.547  1.00  0.00     0.047 A 
HETATM   20  C   UNL     1      40.988 -14.716  -2.620  1.00  0.00     0.036 A 
HETATM   21 CL   UNL     1      40.248 -16.169  -3.166  1.00  0.00    -0.084 Cl
HETATM   22  C   UNL     1      41.174 -14.506  -1.255  1.00  0.00     0.041 A 
ENDBRANCH  12  15
ENDBRANCH   9  11
ENDBRANCH   7   9
ENDBRANCH   4   7
BRANCH   3  23
HETATM   23  C   UNL     1      43.004 -17.535   3.447  1.00  0.00     0.254 C 
HETATM   24  N   UNL     1      44.075 -18.246   2.954  1.00  0.00    -0.351 N 
HETATM   25  H   UNL     1      44.968 -18.190   3.433  1.00  0.00     0.163 HD
HETATM   26  O   UNL     1      41.848 -17.738   3.090  1.00  0.00    -0.268 OA
BRANCH  24  27
HETATM   27  C   UNL     1      43.846 -19.424   2.152  1.00  0.00     0.187 C 
BRANCH  27  28
HETATM   28  C   UNL     1      44.239 -20.643   2.900  1.00  0.00     0.070 A 
HETATM   29  O   UNL     1      44.619 -20.495   4.207  1.00  0.00    -0.325 OA
HETATM   30  C   UNL     1      44.906 -21.735   4.678  1.00  0.00     0.142 A 
HETATM   31  C   UNL     1      44.711 -22.682   3.699  1.00  0.00     0.027 A 
HETATM   32  C   UNL     1      44.278 -21.978   2.551  1.00  0.00     0.036 A 
ENDBRANCH  27  28
ENDBRANCH  24  27
ENDBRANCH   3  23
TORSDOF 7
ENDMDL
MODEL 8
REMARK VINA RESULT:      -8.1      3.120      5.453
REMARK  7 active torsions:
REMARK  status: ('A' for Active; 'I' for Inactive)
REMARK    1  A    between atoms: C_3  and  C_4 
REMARK       I    between atoms: C_4  and  N_5 
REMARK    2  A    between atoms: N_5  and  C_6 
REMARK    3  A    between atoms: C_6  and  C_7 
REMARK    4  A    between atoms: C_13  and  N_14 
REMARK    5  A    between atoms: N_14  and  C_15 
REMARK    6  A    between atoms: C_15  and  N_16 
REMARK       I    between atoms: N_16  and  C_17 
REMARK    7  A    between atoms: C_17  and  C_18 
ROOT
HETATM    1  C   UNL     1      42.787 -17.834   5.599  1.00  0.00     0.001 A 
HETATM    2  C   UNL     1      43.482 -16.639   5.772  1.00  0.00     0.019 A 
HETATM    3  C   UNL     1      42.796 -15.437   6.030  1.00  0.00     0.058 A 
HETATM    4  C   UNL     1      41.389 -15.431   6.102  1.00  0.00     0.050 A 
HETATM    5  C   UNL     1      40.708 -16.645   5.917  1.00  0.00     0.030 A 
HETATM    6  C   UNL     1      41.401 -17.836   5.675  1.00  0.00     0.002 A 
ENDROOT
BRANCH   4   7
HETATM    7  N   UNL     1      40.670 -14.212   6.213  1.00  0.00    -0.332 N 
HETATM    8  H   UNL     1      40.591 -13.834   7.162  1.00  0.00     0.168 HD
BRANCH   7   9
HETATM    9  C   UNL     1      40.078 -13.449   5.238  1.00  0.00     0.179 C 
HETATM   10  S   UNL     1      39.228 -12.020   5.429  1.00  0.00    -0.040 SA
BRANCH   9  11
HETATM   11  N   UNL     1      40.218 -13.911   3.945  1.00  0.00    -0.299 N 
HETATM   12  C   UNL     1      41.147 -13.522   2.992  1.00  0.00     0.257 C 
HETATM   13  O   UNL     1      41.825 -12.503   3.064  1.00  0.00    -0.267 OA
HETATM   14  H   UNL     1      39.690 -14.759   3.790  1.00  0.00     0.171 HD
BRANCH  12  15
HETATM   15  C   UNL     1      41.308 -14.436   1.831  1.00  0.00     0.035 A 
HETATM   16  C   UNL     1      42.137 -15.562   1.879  1.00  0.00     0.041 A 
HETATM   17  C   UNL     1      42.283 -16.356   0.740  1.00  0.00     0.036 A 
HETATM   18 CL   UNL     1      43.315 -17.732   0.794  1.00  0.00    -0.084 Cl
HETATM   19  C   UNL     1      41.609 -16.046  -0.439  1.00  0.00     0.047 A 
HETATM   20  C   UNL     1      40.768 -14.936  -0.472  1.00  0.00     0.036 A 
HETATM   21 CL   UNL     1      39.932 -14.547  -1.923  1.00  0.00    -0.084 Cl
HETATM   22  C   UNL     1      40.608 -14.133   0.655  1.00  0.00     0.041 A 
ENDBRANCH  12  15
ENDBRANCH   9  11
ENDBRANCH   7   9
ENDBRANCH   4   7
BRANCH   3  23
HETATM   23  C   UNL     1      43.658 -14.247   6.284  1.00  0.00     0.254 C 
HETATM   24  N   UNL     1      44.292 -14.193   7.505  1.00  0.00    -0.351 N 
HETATM   25  H   UNL     1      44.275 -15.009   8.108  1.00  0.00     0.163 HD
HETATM   26  O   UNL     1      43.841 -13.415   5.401  1.00  0.00    -0.268 OA
BRANCH  24  27
HETATM   27  C   UNL     1      45.379 -13.264   7.709  1.00  0.00     0.187 C 
BRANCH  27  28
HETATM   28  C   UNL     1      45.186 -12.514   8.973  1.00  0.00     0.070 A 
HETATM   29  O   UNL     1      44.483 -13.124   9.977  1.00  0.00    -0.325 OA
HETATM   30  C   UNL     1      44.460 -12.260  11.024  1.00  0.00     0.142 A 
HETATM   31  C   UNL     1      45.142 -11.106  10.716  1.00  0.00     0.027 A 
HETATM   32  C   UNL     1      45.614 -11.270   9.392  1.00  0.00     0.036 A 
ENDBRANCH  27  28
ENDBRANCH  24  27
ENDBRANCH   3  23
TORSDOF 7
ENDMDL
MODEL 9
REMARK VINA RESULT:      -8.1      4.496      7.922
REMARK  7 active torsions:
REMARK  status: ('A' for Active; 'I' for Inactive)
REMARK    1  A    between atoms: C_3  and  C_4 
REMARK       I    between atoms: C_4  and  N_5 
REMARK    2  A    between atoms: N_5  and  C_6 
REMARK    3  A    between atoms: C_6  and  C_7 
REMARK    4  A    between atoms: C_13  and  N_14 
REMARK    5  A    between atoms: N_14  and  C_15 
REMARK    6  A    between atoms: C_15  and  N_16 
REMARK       I    between atoms: N_16  and  C_17 
REMARK    7  A    between atoms: C_17  and  C_18 
ROOT
HETATM    1  C   UNL     1      40.974 -11.001   4.108  1.00  0.00     0.001 A 
HETATM    2  C   UNL     1      41.377 -12.150   3.431  1.00  0.00     0.019 A 
HETATM    3  C   UNL     1      41.772 -13.301   4.138  1.00  0.00     0.058 A 
HETATM    4  C   UNL     1      41.775 -13.296   5.548  1.00  0.00     0.050 A 
HETATM    5  C   UNL     1      41.373 -12.125   6.209  1.00  0.00     0.030 A 
HETATM    6  C   UNL     1      40.970 -10.991   5.496  1.00  0.00     0.002 A 
ENDROOT
BRANCH   4   7
HETATM    7  N   UNL     1      42.307 -14.390   6.279  1.00  0.00    -0.332 N 
HETATM    8  H   UNL     1      41.614 -15.008   6.710  1.00  0.00     0.168 HD
BRANCH   7   9
HETATM    9  C   UNL     1      43.613 -14.758   6.483  1.00  0.00     0.179 C 
HETATM   10  S   UNL     1      44.804 -13.905   7.294  1.00  0.00    -0.040 SA
BRANCH   9  11
HETATM   11  N   UNL     1      43.979 -15.987   5.973  1.00  0.00    -0.299 N 
HETATM   12  C   UNL     1      43.460 -17.234   6.287  1.00  0.00     0.257 C 
HETATM   13  O   UNL     1      42.773 -17.467   7.275  1.00  0.00    -0.267 OA
HETATM   14  H   UNL     1      44.553 -15.894   5.146  1.00  0.00     0.171 HD
BRANCH  12  15
HETATM   15  C   UNL     1      43.772 -18.327   5.329  1.00  0.00     0.035 A 
HETATM   16  C   UNL     1      44.235 -19.578   5.750  1.00  0.00     0.041 A 
HETATM   17  C   UNL     1      44.556 -20.547   4.798  1.00  0.00     0.036 A 
HETATM   18 CL   UNL     1      45.140 -22.081   5.316  1.00  0.00    -0.084 Cl
HETATM   19  C   UNL     1      44.414 -20.287   3.438  1.00  0.00     0.047 A 
HETATM   20  C   UNL     1      43.932 -19.047   3.027  1.00  0.00     0.036 A 
HETATM   21 CL   UNL     1      43.754 -18.718   1.348  1.00  0.00    -0.084 Cl
HETATM   22  C   UNL     1      43.604 -18.067   3.962  1.00  0.00     0.041 A 
ENDBRANCH  12  15
ENDBRANCH   9  11
ENDBRANCH   7   9
ENDBRANCH   4   7
BRANCH   3  23
HETATM   23  C   UNL     1      42.093 -14.491   3.299  1.00  0.00     0.254 C 
HETATM   24  N   UNL     1      41.028 -15.152   2.729  1.00  0.00    -0.351 N 
HETATM   25  H   UNL     1      40.105 -14.732   2.772  1.00  0.00     0.163 HD
HETATM   26  O   UNL     1      43.261 -14.795   3.078  1.00  0.00    -0.268 OA
BRANCH  24  27
HETATM   27  C   UNL     1      41.258 -16.097   1.662  1.00  0.00     0.187 C 
BRANCH  27  28
HETATM   28  C   UNL     1      40.963 -15.474   0.349  1.00  0.00     0.070 A 
HETATM   29  O   UNL     1      41.323 -16.160  -0.779  1.00  0.00    -0.325 OA
HETATM   30  C   UNL     1      40.936 -15.408  -1.840  1.00  0.00     0.142 A 
HETATM   31  C   UNL     1      40.324 -14.251  -1.416  1.00  0.00     0.027 A 
HETATM   32  C   UNL     1      40.339 -14.293  -0.003  1.00  0.00     0.036 A 
ENDBRANCH  27  28
ENDBRANCH  24  27
ENDBRANCH   3  23
TORSDOF 7
ENDMDL
MODEL 10
REMARK VINA RESULT:      -8.0      7.596      9.841
REMARK  7 active torsions:
REMARK  status: ('A' for Active; 'I' for Inactive)
REMARK    1  A    between atoms: C_3  and  C_4 
REMARK       I    between atoms: C_4  and  N_5 
REMARK    2  A    between atoms: N_5  and  C_6 
REMARK    3  A    between atoms: C_6  and  C_7 
REMARK    4  A    between atoms: C_13  and  N_14 
REMARK    5  A    between atoms: N_14  and  C_15 
REMARK    6  A    between atoms: C_15  and  N_16 
REMARK       I    between atoms: N_16  and  C_17 
REMARK    7  A    between atoms: C_17  and  C_18 
ROOT
HETATM    1  C   UNL     1      37.592 -13.993   0.171  1.00  0.00     0.001 A 
HETATM    2  C   UNL     1      38.540 -13.660  -0.793  1.00  0.00     0.019 A 
HETATM    3  C   UNL     1      39.909 -13.908  -0.574  1.00  0.00     0.058 A 
HETATM    4  C   UNL     1      40.334 -14.488   0.638  1.00  0.00     0.050 A 
HETATM    5  C   UNL     1      39.362 -14.809   1.598  1.00  0.00     0.030 A 
HETATM    6  C   UNL     1      38.004 -14.570   1.364  1.00  0.00     0.002 A 
ENDROOT
BRANCH   4   7
HETATM    7  N   UNL     1      41.715 -14.612   0.941  1.00  0.00    -0.332 N 
HETATM    8  H   UNL     1      42.343 -14.617   0.132  1.00  0.00     0.168 HD
BRANCH   7   9
HETATM    9  C   UNL     1      42.342 -14.710   2.158  1.00  0.00     0.179 C 
HETATM   10  S   UNL     1      42.833 -13.462   3.160  1.00  0.00    -0.040 SA
BRANCH   9  11
HETATM   11  N   UNL     1      42.576 -15.991   2.614  1.00  0.00    -0.299 N 
HETATM   12  C   UNL     1      42.920 -17.114   1.876  1.00  0.00     0.257 C 
HETATM   13  O   UNL     1      42.806 -17.201   0.659  1.00  0.00    -0.267 OA
HETATM   14  H   UNL     1      42.686 -16.018   3.618  1.00  0.00     0.171 HD
BRANCH  12  15
HETATM   15  C   UNL     1      43.472 -18.256   2.652  1.00  0.00     0.035 A 
HETATM   16  C   UNL     1      43.769 -18.155   4.016  1.00  0.00     0.041 A 
HETATM   17  C   UNL     1      44.330 -19.249   4.678  1.00  0.00     0.036 A 
HETATM   18 CL   UNL     1      44.709 -19.121   6.351  1.00  0.00    -0.084 Cl
HETATM   19  C   UNL     1      44.591 -20.438   4.001  1.00  0.00     0.047 A 
HETATM   20  C   UNL     1      44.272 -20.536   2.649  1.00  0.00     0.036 A 
HETATM   21 CL   UNL     1      44.592 -22.001   1.806  1.00  0.00    -0.084 Cl
HETATM   22  C   UNL     1      43.710 -19.457   1.970  1.00  0.00     0.041 A 
ENDBRANCH  12  15
ENDBRANCH   9  11
ENDBRANCH   7   9
ENDBRANCH   4   7
BRANCH   3  23
HETATM   23  C   UNL     1      40.811 -13.589  -1.718  1.00  0.00     0.254 C 
HETATM   24  N   UNL     1      40.632 -12.366  -2.324  1.00  0.00    -0.351 N 
HETATM   25  H   UNL     1      40.019 -11.684  -1.890  1.00  0.00     0.163 HD
HETATM   26  O   UNL     1      41.711 -14.361  -2.029  1.00  0.00    -0.268 OA
BRANCH  24  27
HETATM   27  C   UNL     1      41.650 -11.847  -3.208  1.00  0.00     0.187 C 
BRANCH  27  28
HETATM   28  C   UNL     1      42.449 -10.804  -2.519  1.00  0.00     0.070 A 
HETATM   29  O   UNL     1      42.367  -9.522  -2.992  1.00  0.00    -0.325 OA
HETATM   30  C   UNL     1      43.158  -8.758  -2.197  1.00  0.00     0.142 A 
HETATM   31  C   UNL     1      43.743  -9.523  -1.215  1.00  0.00     0.027 A 
HETATM   32  C   UNL     1      43.283 -10.845  -1.421  1.00  0.00     0.036 A 
ENDBRANCH  27  28
ENDBRANCH  24  27
ENDBRANCH   3  23
TORSDOF 7
ENDMDL
