MODEL 1
REMARK VINA RESULT:      -9.1      0.000      0.000
REMARK  8 active torsions:
REMARK  status: ('A' for Active; 'I' for Inactive)
REMARK    1  A    between atoms: O_2  and  C_3 
REMARK    2  A    between atoms: C_6  and  C_7 
REMARK    3  A    between atoms: C_11  and  C_12 
REMARK       I    between atoms: C_12  and  N_13 
REMARK    4  A    between atoms: N_13  and  N_14 
REMARK       I    between atoms: N_14  and  C_15 
REMARK    5  A    between atoms: C_15  and  C_16 
REMARK    6  A    between atoms: C_16  and  C_17 
REMARK    7  A    between atoms: C_17  and  C_18 
REMARK    8  A    between atoms: N_20  and  C_21 
ROOT
HETATM    1  C   UNL     1      43.166 -13.706   6.257  1.00  0.00     0.288 C 
HETATM    2  N   UNL     1      44.008 -13.892   7.332  1.00  0.00    -0.262 N 
HETATM    3  O   UNL     1      42.501 -12.681   6.121  1.00  0.00    -0.264 OA
HETATM    4  H   UNL     1      44.545 -14.740   7.497  1.00  0.00     0.190 HD
ENDROOT
BRANCH   2   5
HETATM    5  N   UNL     1      44.177 -12.861   8.264  1.00  0.00    -0.267 N 
HETATM    6  C   UNL     1      45.446 -12.354   8.418  1.00  0.00     0.236 C 
HETATM    7  O   UNL     1      46.372 -12.698   7.679  1.00  0.00    -0.272 OA
HETATM    8  H   UNL     1      43.443 -12.773   8.962  1.00  0.00     0.190 HD
BRANCH   6   9
HETATM    9  C   UNL     1      45.627 -11.250   9.442  1.00  0.00     0.109 C 
BRANCH   9  10
HETATM   10  C   UNL     1      45.293 -11.586  10.892  1.00  0.00     0.051 C 
BRANCH  10  11
HETATM   11  C   UNL     1      43.897 -11.255  11.288  1.00  0.00    -0.021 A 
HETATM   12  C   UNL     1      43.037 -10.352  10.698  1.00  0.00     0.127 A 
HETATM   13  N   UNL     1      41.864 -10.351  11.428  1.00  0.00    -0.245 N 
HETATM   14  N   UNL     1      41.936 -11.237  12.456  1.00  0.00    -0.180 NA
HETATM   15  C   UNL     1      43.155 -11.765  12.370  1.00  0.00     0.147 A 
BRANCH  13  16
HETATM   16  C   UNL     1      40.699  -9.561  11.220  1.00  0.00     0.058 A 
HETATM   17  C   UNL     1      39.463  -9.925  11.773  1.00  0.00     0.031 A 
HETATM   18  C   UNL     1      38.333  -9.137  11.539  1.00  0.00     0.002 A 
HETATM   19  C   UNL     1      38.427  -7.987  10.757  1.00  0.00     0.000 A 
HETATM   20  C   UNL     1      39.652  -7.616  10.209  1.00  0.00     0.002 A 
HETATM   21  C   UNL     1      40.786  -8.399  10.438  1.00  0.00     0.031 A 
ENDBRANCH  13  16
ENDBRANCH  10  11
ENDBRANCH   9  10
ENDBRANCH   6   9
ENDBRANCH   2   5
BRANCH   1  22
HETATM   22  C   UNL     1      43.153 -14.781   5.303  1.00  0.00     0.121 A 
HETATM   23  N   UNL     1      42.899 -14.575   3.975  1.00  0.00    -0.272 N 
HETATM   24  N   UNL     1      43.023 -15.674   3.214  1.00  0.00    -0.174 NA
HETATM   25  H   UNL     1      42.672 -13.692   3.527  1.00  0.00     0.189 HD
HETATM   26  C   UNL     1      43.320 -16.653   4.082  1.00  0.00     0.089 A 
HETATM   27  C   UNL     1      43.391 -16.137   5.405  1.00  0.00     0.071 A 
BRANCH  26  28
HETATM   28  C   UNL     1      43.584 -18.026   3.651  1.00  0.00    -0.005 A 
HETATM   29  C   UNL     1      43.300 -18.424   2.338  1.00  0.00     0.016 A 
HETATM   30  C   UNL     1      43.630 -19.709   1.890  1.00  0.00     0.037 A 
HETATM   31  C   UNL     1      44.243 -20.614   2.755  1.00  0.00     0.068 A 
HETATM   32  C   UNL     1      44.484 -20.241   4.078  1.00  0.00     0.037 A 
HETATM   33  C   UNL     1      44.165 -18.955   4.524  1.00  0.00     0.016 A 
BRANCH  31  34
HETATM   34  O   UNL     1      44.633 -21.884   2.432  1.00  0.00    -0.356 OA
HETATM   35  C   UNL     1      44.721 -22.802   3.515  1.00  0.00     0.210 C 
ENDBRANCH  31  34
ENDBRANCH  26  28
ENDBRANCH   1  22
TORSDOF 8
ENDMDL
MODEL 2
REMARK VINA RESULT:      -8.8      2.910     11.451
REMARK  8 active torsions:
REMARK  status: ('A' for Active; 'I' for Inactive)
REMARK    1  A    between atoms: O_2  and  C_3 
REMARK    2  A    between atoms: C_6  and  C_7 
REMARK    3  A    between atoms: C_11  and  C_12 
REMARK       I    between atoms: C_12  and  N_13 
REMARK    4  A    between atoms: N_13  and  N_14 
REMARK       I    between atoms: N_14  and  C_15 
REMARK    5  A    between atoms: C_15  and  C_16 
REMARK    6  A    between atoms: C_16  and  C_17 
REMARK    7  A    between atoms: C_17  and  C_18 
REMARK    8  A    between atoms: N_20  and  C_21 
ROOT
HETATM    1  C   UNL     1      41.813 -11.198   7.121  1.00  0.00     0.288 C 
HETATM    2  N   UNL     1      42.081 -12.364   6.437  1.00  0.00    -0.262 N 
HETATM    3  O   UNL     1      41.196 -10.267   6.605  1.00  0.00    -0.264 OA
HETATM    4  H   UNL     1      42.619 -13.138   6.818  1.00  0.00     0.190 HD
ENDROOT
BRANCH   2   5
HETATM    5  N   UNL     1      41.578 -12.536   5.142  1.00  0.00    -0.267 N 
HETATM    6  C   UNL     1      42.457 -12.975   4.180  1.00  0.00     0.236 C 
HETATM    7  O   UNL     1      43.603 -13.329   4.466  1.00  0.00    -0.272 OA
HETATM    8  H   UNL     1      40.711 -12.045   4.936  1.00  0.00     0.190 HD
BRANCH   6   9
HETATM    9  C   UNL     1      41.912 -13.143   2.775  1.00  0.00     0.109 C 
BRANCH   9  10
HETATM   10  C   UNL     1      40.943 -14.296   2.538  1.00  0.00     0.051 C 
BRANCH  10  11
HETATM   11  C   UNL     1      41.405 -15.602   3.083  1.00  0.00    -0.021 A 
HETATM   12  C   UNL     1      42.264 -16.511   2.500  1.00  0.00     0.127 A 
HETATM   13  N   UNL     1      42.373 -17.593   3.351  1.00  0.00    -0.245 N 
HETATM   14  N   UNL     1      41.627 -17.400   4.471  1.00  0.00    -0.180 NA
HETATM   15  C   UNL     1      41.047 -16.215   4.299  1.00  0.00     0.147 A 
BRANCH  13  16
HETATM   16  C   UNL     1      43.120 -18.789   3.164  1.00  0.00     0.058 A 
HETATM   17  C   UNL     1      42.958 -19.578   2.017  1.00  0.00     0.031 A 
HETATM   18  C   UNL     1      43.695 -20.756   1.868  1.00  0.00     0.002 A 
HETATM   19  C   UNL     1      44.594 -21.153   2.856  1.00  0.00     0.000 A 
HETATM   20  C   UNL     1      44.763 -20.372   3.997  1.00  0.00     0.002 A 
HETATM   21  C   UNL     1      44.031 -19.193   4.153  1.00  0.00     0.031 A 
ENDBRANCH  13  16
ENDBRANCH  10  11
ENDBRANCH   9  10
ENDBRANCH   6   9
ENDBRANCH   2   5
BRANCH   1  22
HETATM   22  C   UNL     1      42.278 -11.171   8.481  1.00  0.00     0.121 A 
HETATM   23  N   UNL     1      43.534 -11.583   8.831  1.00  0.00    -0.272 N 
HETATM   24  N   UNL     1      43.833 -11.399  10.127  1.00  0.00    -0.174 NA
HETATM   25  H   UNL     1      44.244 -11.968   8.215  1.00  0.00     0.189 HD
HETATM   26  C   UNL     1      42.712 -10.890  10.663  1.00  0.00     0.089 A 
HETATM   27  C   UNL     1      41.707 -10.751   9.666  1.00  0.00     0.071 A 
BRANCH  26  28
HETATM   28  C   UNL     1      42.625 -10.498  12.069  1.00  0.00    -0.005 A 
HETATM   29  C   UNL     1      43.612  -9.683  12.639  1.00  0.00     0.016 A 
HETATM   30  C   UNL     1      43.494  -9.228  13.959  1.00  0.00     0.037 A 
HETATM   31  C   UNL     1      42.387  -9.591  14.725  1.00  0.00     0.068 A 
HETATM   32  C   UNL     1      41.426 -10.442  14.180  1.00  0.00     0.037 A 
HETATM   33  C   UNL     1      41.537 -10.888  12.859  1.00  0.00     0.016 A 
BRANCH  31  34
HETATM   34  O   UNL     1      42.147  -9.195  16.012  1.00  0.00    -0.356 OA
HETATM   35  C   UNL     1      40.859  -8.645  16.263  1.00  0.00     0.210 C 
ENDBRANCH  31  34
ENDBRANCH  26  28
ENDBRANCH   1  22
TORSDOF 8
ENDMDL
MODEL 3
REMARK VINA RESULT:      -8.8      1.831      2.196
REMARK  8 active torsions:
REMARK  status: ('A' for Active; 'I' for Inactive)
REMARK    1  A    between atoms: O_2  and  C_3 
REMARK    2  A    between atoms: C_6  and  C_7 
REMARK    3  A    between atoms: C_11  and  C_12 
REMARK       I    between atoms: C_12  and  N_13 
REMARK    4  A    between atoms: N_13  and  N_14 
REMARK       I    between atoms: N_14  and  C_15 
REMARK    5  A    between atoms: C_15  and  C_16 
REMARK    6  A    between atoms: C_16  and  C_17 
REMARK    7  A    between atoms: C_17  and  C_18 
REMARK    8  A    between atoms: N_20  and  C_21 
ROOT
HETATM    1  C   UNL     1      43.332 -13.718   6.238  1.00  0.00     0.288 C 
HETATM    2  N   UNL     1      44.049 -14.012   7.377  1.00  0.00    -0.262 N 
HETATM    3  O   UNL     1      42.768 -12.635   6.086  1.00  0.00    -0.264 OA
HETATM    4  H   UNL     1      44.497 -14.908   7.554  1.00  0.00     0.190 HD
ENDROOT
BRANCH   2   5
HETATM    5  N   UNL     1      44.209 -13.034   8.366  1.00  0.00    -0.267 N 
HETATM    6  C   UNL     1      45.477 -12.540   8.563  1.00  0.00     0.236 C 
HETATM    7  O   UNL     1      46.411 -12.847   7.818  1.00  0.00    -0.272 OA
HETATM    8  H   UNL     1      43.466 -12.981   9.059  1.00  0.00     0.190 HD
BRANCH   6   9
HETATM    9  C   UNL     1      45.648 -11.494   9.647  1.00  0.00     0.109 C 
BRANCH   9  10
HETATM   10  C   UNL     1      44.553 -10.441   9.775  1.00  0.00     0.051 C 
BRANCH  10  11
HETATM   11  C   UNL     1      43.795 -10.503  11.055  1.00  0.00    -0.021 A 
HETATM   12  C   UNL     1      43.266  -9.456  11.781  1.00  0.00     0.127 A 
HETATM   13  N   UNL     1      42.682  -9.985  12.916  1.00  0.00    -0.245 N 
HETATM   14  N   UNL     1      42.801 -11.339  12.932  1.00  0.00    -0.180 NA
HETATM   15  C   UNL     1      43.473 -11.638  11.823  1.00  0.00     0.147 A 
BRANCH  13  16
HETATM   16  C   UNL     1      42.037  -9.292  13.979  1.00  0.00     0.058 A 
HETATM   17  C   UNL     1      41.162  -8.227  13.729  1.00  0.00     0.031 A 
HETATM   18  C   UNL     1      40.556  -7.554  14.795  1.00  0.00     0.002 A 
HETATM   19  C   UNL     1      40.817  -7.940  16.108  1.00  0.00     0.000 A 
HETATM   20  C   UNL     1      41.682  -9.000  16.364  1.00  0.00     0.002 A 
HETATM   21  C   UNL     1      42.292  -9.676  15.305  1.00  0.00     0.031 A 
ENDBRANCH  13  16
ENDBRANCH  10  11
ENDBRANCH   9  10
ENDBRANCH   6   9
ENDBRANCH   2   5
BRANCH   1  22
HETATM   22  C   UNL     1      43.325 -14.752   5.240  1.00  0.00     0.121 A 
HETATM   23  N   UNL     1      43.254 -14.475   3.903  1.00  0.00    -0.272 N 
HETATM   24  N   UNL     1      43.356 -15.555   3.112  1.00  0.00    -0.174 NA
HETATM   25  H   UNL     1      43.171 -13.559   3.473  1.00  0.00     0.189 HD
HETATM   26  C   UNL     1      43.448 -16.589   3.962  1.00  0.00     0.089 A 
HETATM   27  C   UNL     1      43.412 -16.129   5.307  1.00  0.00     0.071 A 
BRANCH  26  28
HETATM   28  C   UNL     1      43.622 -17.967   3.502  1.00  0.00    -0.005 A 
HETATM   29  C   UNL     1      43.413 -18.296   2.156  1.00  0.00     0.016 A 
HETATM   30  C   UNL     1      43.662 -19.592   1.687  1.00  0.00     0.037 A 
HETATM   31  C   UNL     1      44.118 -20.576   2.563  1.00  0.00     0.068 A 
HETATM   32  C   UNL     1      44.281 -20.268   3.914  1.00  0.00     0.037 A 
HETATM   33  C   UNL     1      44.043 -18.971   4.382  1.00  0.00     0.016 A 
BRANCH  31  34
HETATM   34  O   UNL     1      44.418 -21.866   2.224  1.00  0.00    -0.356 OA
HETATM   35  C   UNL     1      44.800 -22.718   3.297  1.00  0.00     0.210 C 
ENDBRANCH  31  34
ENDBRANCH  26  28
ENDBRANCH   1  22
TORSDOF 8
ENDMDL
MODEL 4
REMARK VINA RESULT:      -8.7      5.351      9.951
REMARK  8 active torsions:
REMARK  status: ('A' for Active; 'I' for Inactive)
REMARK    1  A    between atoms: O_2  and  C_3 
REMARK    2  A    between atoms: C_6  and  C_7 
REMARK    3  A    between atoms: C_11  and  C_12 
REMARK       I    between atoms: C_12  and  N_13 
REMARK    4  A    between atoms: N_13  and  N_14 
REMARK       I    between atoms: N_14  and  C_15 
REMARK    5  A    between atoms: C_15  and  C_16 
REMARK    6  A    between atoms: C_16  and  C_17 
REMARK    7  A    between atoms: C_17  and  C_18 
REMARK    8  A    between atoms: N_20  and  C_21 
ROOT
HETATM    1  C   UNL     1      42.665 -15.075   2.339  1.00  0.00     0.288 C 
HETATM    2  N   UNL     1      42.687 -14.213   3.414  1.00  0.00    -0.262 N 
HETATM    3  O   UNL     1      43.225 -16.169   2.371  1.00  0.00    -0.264 OA
HETATM    4  H   UNL     1      42.268 -13.287   3.413  1.00  0.00     0.190 HD
ENDROOT
BRANCH   2   5
HETATM    5  N   UNL     1      43.297 -14.614   4.609  1.00  0.00    -0.267 N 
HETATM    6  C   UNL     1      42.471 -14.979   5.646  1.00  0.00     0.236 C 
HETATM    7  O   UNL     1      41.251 -15.077   5.495  1.00  0.00    -0.272 OA
HETATM    8  H   UNL     1      44.264 -14.322   4.730  1.00  0.00     0.190 HD
BRANCH   6   9
HETATM    9  C   UNL     1      43.137 -15.395   6.943  1.00  0.00     0.109 C 
BRANCH   9  10
HETATM   10  C   UNL     1      44.496 -16.078   6.838  1.00  0.00     0.051 C 
BRANCH  10  11
HETATM   11  C   UNL     1      44.434 -17.493   6.380  1.00  0.00    -0.021 A 
HETATM   12  C   UNL     1      44.463 -17.970   5.086  1.00  0.00     0.127 A 
HETATM   13  N   UNL     1      44.341 -19.345   5.142  1.00  0.00    -0.245 N 
HETATM   14  N   UNL     1      44.255 -19.768   6.431  1.00  0.00    -0.180 NA
HETATM   15  C   UNL     1      44.303 -18.657   7.162  1.00  0.00     0.147 A 
BRANCH  13  16
HETATM   16  C   UNL     1      44.288 -20.269   4.061  1.00  0.00     0.058 A 
HETATM   17  C   UNL     1      43.792 -19.893   2.805  1.00  0.00     0.031 A 
HETATM   18  C   UNL     1      43.738 -20.827   1.766  1.00  0.00     0.002 A 
HETATM   19  C   UNL     1      44.176 -22.134   1.972  1.00  0.00     0.000 A 
HETATM   20  C   UNL     1      44.674 -22.513   3.216  1.00  0.00     0.002 A 
HETATM   21  C   UNL     1      44.732 -21.586   4.259  1.00  0.00     0.031 A 
ENDBRANCH  13  16
ENDBRANCH  10  11
ENDBRANCH   9  10
ENDBRANCH   6   9
ENDBRANCH   2   5
BRANCH   1  22
HETATM   22  C   UNL     1      41.916 -14.610   1.204  1.00  0.00     0.121 A 
HETATM   23  N   UNL     1      42.123 -13.379   0.647  1.00  0.00    -0.272 N 
HETATM   24  N   UNL     1      41.405 -13.149  -0.464  1.00  0.00    -0.174 NA
HETATM   25  H   UNL     1      42.774 -12.666   0.965  1.00  0.00     0.189 HD
HETATM   26  C   UNL     1      40.658 -14.253  -0.617  1.00  0.00     0.089 A 
HETATM   27  C   UNL     1      40.935 -15.185   0.421  1.00  0.00     0.071 A 
BRANCH  26  28
HETATM   28  C   UNL     1      39.751 -14.434  -1.750  1.00  0.00    -0.005 A 
HETATM   29  C   UNL     1      40.158 -15.167  -2.873  1.00  0.00     0.016 A 
HETATM   30  C   UNL     1      39.269 -15.421  -3.925  1.00  0.00     0.037 A 
HETATM   31  C   UNL     1      37.963 -14.938  -3.868  1.00  0.00     0.068 A 
HETATM   32  C   UNL     1      37.567 -14.165  -2.776  1.00  0.00     0.037 A 
HETATM   33  C   UNL     1      38.449 -13.920  -1.720  1.00  0.00     0.016 A 
BRANCH  31  34
HETATM   34  O   UNL     1      36.999 -15.137  -4.817  1.00  0.00    -0.356 OA
HETATM   35  C   UNL     1      35.966 -14.160  -4.867  1.00  0.00     0.210 C 
ENDBRANCH  31  34
ENDBRANCH  26  28
ENDBRANCH   1  22
TORSDOF 8
ENDMDL
MODEL 5
REMARK VINA RESULT:      -8.6      2.421      3.731
REMARK  8 active torsions:
REMARK  status: ('A' for Active; 'I' for Inactive)
REMARK    1  A    between atoms: O_2  and  C_3 
REMARK    2  A    between atoms: C_6  and  C_7 
REMARK    3  A    between atoms: C_11  and  C_12 
REMARK       I    between atoms: C_12  and  N_13 
REMARK    4  A    between atoms: N_13  and  N_14 
REMARK       I    between atoms: N_14  and  C_15 
REMARK    5  A    between atoms: C_15  and  C_16 
REMARK    6  A    between atoms: C_16  and  C_17 
REMARK    7  A    between atoms: C_17  and  C_18 
REMARK    8  A    between atoms: N_20  and  C_21 
ROOT
HETATM    1  C   UNL     1      42.170 -13.226   5.390  1.00  0.00     0.288 C 
HETATM    2  N   UNL     1      41.722 -12.731   6.595  1.00  0.00    -0.262 N 
HETATM    3  O   UNL     1      42.179 -12.542   4.367  1.00  0.00    -0.264 OA
HETATM    4  H   UNL     1      41.665 -13.276   7.451  1.00  0.00     0.190 HD
ENDROOT
BRANCH   2   5
HETATM    5  N   UNL     1      41.330 -11.390   6.688  1.00  0.00    -0.267 N 
HETATM    6  C   UNL     1      39.985 -11.135   6.818  1.00  0.00     0.236 C 
HETATM    7  O   UNL     1      39.169 -12.045   6.978  1.00  0.00    -0.272 OA
HETATM    8  H   UNL     1      42.006 -10.708   6.351  1.00  0.00     0.190 HD
BRANCH   6   9
HETATM    9  C   UNL     1      39.565  -9.680   6.900  1.00  0.00     0.109 C 
BRANCH   9  10
HETATM   10  C   UNL     1      40.628  -8.672   7.323  1.00  0.00     0.051 C 
BRANCH  10  11
HETATM   11  C   UNL     1      40.663  -8.400   8.786  1.00  0.00    -0.021 A 
HETATM   12  C   UNL     1      41.397  -9.053   9.755  1.00  0.00     0.127 A 
HETATM   13  N   UNL     1      41.083  -8.483  10.974  1.00  0.00    -0.245 N 
HETATM   14  N   UNL     1      40.187  -7.474  10.816  1.00  0.00    -0.180 NA
HETATM   15  C   UNL     1      39.936  -7.436   9.510  1.00  0.00     0.147 A 
BRANCH  13  16
HETATM   16  C   UNL     1      41.564  -8.844  12.264  1.00  0.00     0.058 A 
HETATM   17  C   UNL     1      40.697  -8.957  13.359  1.00  0.00     0.031 A 
HETATM   18  C   UNL     1      41.202  -9.298  14.618  1.00  0.00     0.002 A 
HETATM   19  C   UNL     1      42.566  -9.526  14.791  1.00  0.00     0.000 A 
HETATM   20  C   UNL     1      43.432  -9.419  13.706  1.00  0.00     0.002 A 
HETATM   21  C   UNL     1      42.936  -9.079  12.445  1.00  0.00     0.031 A 
ENDBRANCH  13  16
ENDBRANCH  10  11
ENDBRANCH   9  10
ENDBRANCH   6   9
ENDBRANCH   2   5
BRANCH   1  22
HETATM   22  C   UNL     1      42.653 -14.579   5.431  1.00  0.00     0.121 A 
HETATM   23  N   UNL     1      42.680 -15.309   6.586  1.00  0.00    -0.272 N 
HETATM   24  N   UNL     1      43.070 -16.584   6.423  1.00  0.00    -0.174 NA
HETATM   25  H   UNL     1      42.406 -14.996   7.513  1.00  0.00     0.189 HD
HETATM   26  C   UNL     1      43.360 -16.683   5.117  1.00  0.00     0.089 A 
HETATM   27  C   UNL     1      43.131 -15.441   4.463  1.00  0.00     0.071 A 
BRANCH  26  28
HETATM   28  C   UNL     1      43.787 -17.940   4.503  1.00  0.00    -0.005 A 
HETATM   29  C   UNL     1      44.548 -18.862   5.235  1.00  0.00     0.016 A 
HETATM   30  C   UNL     1      44.887 -20.107   4.688  1.00  0.00     0.037 A 
HETATM   31  C   UNL     1      44.474 -20.439   3.399  1.00  0.00     0.068 A 
HETATM   32  C   UNL     1      43.758 -19.506   2.648  1.00  0.00     0.037 A 
HETATM   33  C   UNL     1      43.409 -18.268   3.196  1.00  0.00     0.016 A 
BRANCH  31  34
HETATM   34  O   UNL     1      44.721 -21.625   2.766  1.00  0.00    -0.356 OA
HETATM   35  C   UNL     1      43.988 -21.856   1.569  1.00  0.00     0.210 C 
ENDBRANCH  31  34
ENDBRANCH  26  28
ENDBRANCH   1  22
TORSDOF 8
ENDMDL
MODEL 6
REMARK VINA RESULT:      -8.5      5.865     10.525
REMARK  8 active torsions:
REMARK  status: ('A' for Active; 'I' for Inactive)
REMARK    1  A    between atoms: O_2  and  C_3 
REMARK    2  A    between atoms: C_6  and  C_7 
REMARK    3  A    between atoms: C_11  and  C_12 
REMARK       I    between atoms: C_12  and  N_13 
REMARK    4  A    between atoms: N_13  and  N_14 
REMARK       I    between atoms: N_14  and  C_15 
REMARK    5  A    between atoms: C_15  and  C_16 
REMARK    6  A    between atoms: C_16  and  C_17 
REMARK    7  A    between atoms: C_17  and  C_18 
REMARK    8  A    between atoms: N_20  and  C_21 
ROOT
HETATM    1  C   UNL     1      41.530 -14.889   1.639  1.00  0.00     0.288 C 
HETATM    2  N   UNL     1      42.537 -14.639   2.545  1.00  0.00    -0.262 N 
HETATM    3  O   UNL     1      40.533 -15.545   1.938  1.00  0.00    -0.264 OA
HETATM    4  H   UNL     1      43.391 -14.133   2.324  1.00  0.00     0.190 HD
ENDROOT
BRANCH   2   5
HETATM    5  N   UNL     1      42.401 -15.075   3.868  1.00  0.00    -0.267 N 
HETATM    6  C   UNL     1      43.273 -14.555   4.795  1.00  0.00     0.236 C 
HETATM    7  O   UNL     1      44.056 -13.647   4.506  1.00  0.00    -0.272 OA
HETATM    8  H   UNL     1      41.893 -15.947   3.995  1.00  0.00     0.190 HD
BRANCH   6   9
HETATM    9  C   UNL     1      43.133 -15.045   6.223  1.00  0.00     0.109 C 
BRANCH   9  10
HETATM   10  C   UNL     1      44.282 -15.872   6.790  1.00  0.00     0.051 C 
BRANCH  10  11
HETATM   11  C   UNL     1      44.282 -17.295   6.354  1.00  0.00    -0.021 A 
HETATM   12  C   UNL     1      44.320 -17.790   5.067  1.00  0.00     0.127 A 
HETATM   13  N   UNL     1      44.265 -19.168   5.145  1.00  0.00    -0.245 N 
HETATM   14  N   UNL     1      44.212 -19.574   6.441  1.00  0.00    -0.180 NA
HETATM   15  C   UNL     1      44.215 -18.452   7.155  1.00  0.00     0.147 A 
BRANCH  13  16
HETATM   16  C   UNL     1      44.245 -20.110   4.079  1.00  0.00     0.058 A 
HETATM   17  C   UNL     1      43.768 -19.762   2.808  1.00  0.00     0.031 A 
HETATM   18  C   UNL     1      43.745 -20.714   1.784  1.00  0.00     0.002 A 
HETATM   19  C   UNL     1      44.198 -22.011   2.020  1.00  0.00     0.000 A 
HETATM   20  C   UNL     1      44.677 -22.363   3.279  1.00  0.00     0.002 A 
HETATM   21  C   UNL     1      44.702 -21.417   4.307  1.00  0.00     0.031 A 
ENDBRANCH  13  16
ENDBRANCH  10  11
ENDBRANCH   9  10
ENDBRANCH   6   9
ENDBRANCH   2   5
BRANCH   1  22
HETATM   22  C   UNL     1      41.719 -14.300   0.342  1.00  0.00     0.121 A 
HETATM   23  N   UNL     1      41.504 -14.997  -0.814  1.00  0.00    -0.272 N 
HETATM   24  N   UNL     1      41.636 -14.265  -1.932  1.00  0.00    -0.174 NA
HETATM   25  H   UNL     1      41.229 -15.972  -0.898  1.00  0.00     0.189 HD
HETATM   26  C   UNL     1      42.001 -13.049  -1.497  1.00  0.00     0.089 A 
HETATM   27  C   UNL     1      42.084 -13.036  -0.077  1.00  0.00     0.071 A 
BRANCH  26  28
HETATM   28  C   UNL     1      42.208 -11.922  -2.406  1.00  0.00    -0.005 A 
HETATM   29  C   UNL     1      42.015 -12.081  -3.785  1.00  0.00     0.016 A 
HETATM   30  C   UNL     1      42.123 -10.988  -4.655  1.00  0.00     0.037 A 
HETATM   31  C   UNL     1      42.433  -9.725  -4.154  1.00  0.00     0.068 A 
HETATM   32  C   UNL     1      42.676  -9.570  -2.789  1.00  0.00     0.037 A 
HETATM   33  C   UNL     1      42.557 -10.657  -1.918  1.00  0.00     0.016 A 
BRANCH  31  34
HETATM   34  O   UNL     1      42.545  -8.581  -4.895  1.00  0.00    -0.356 OA
HETATM   35  C   UNL     1      42.631  -8.759  -6.304  1.00  0.00     0.210 C 
ENDBRANCH  31  34
ENDBRANCH  26  28
ENDBRANCH   1  22
TORSDOF 8
ENDMDL
MODEL 7
REMARK VINA RESULT:      -8.5      2.849     11.933
REMARK  8 active torsions:
REMARK  status: ('A' for Active; 'I' for Inactive)
REMARK    1  A    between atoms: O_2  and  C_3 
REMARK    2  A    between atoms: C_6  and  C_7 
REMARK    3  A    between atoms: C_11  and  C_12 
REMARK       I    between atoms: C_12  and  N_13 
REMARK    4  A    between atoms: N_13  and  N_14 
REMARK       I    between atoms: N_14  and  C_15 
REMARK    5  A    between atoms: C_15  and  C_16 
REMARK    6  A    between atoms: C_16  and  C_17 
REMARK    7  A    between atoms: C_17  and  C_18 
REMARK    8  A    between atoms: N_20  and  C_21 
ROOT
HETATM    1  C   UNL     1      41.379 -11.058   6.728  1.00  0.00     0.288 C 
HETATM    2  N   UNL     1      41.419 -12.431   6.835  1.00  0.00    -0.262 N 
HETATM    3  O   UNL     1      41.241 -10.494   5.644  1.00  0.00    -0.264 OA
HETATM    4  H   UNL     1      41.568 -12.932   7.708  1.00  0.00     0.190 HD
ENDROOT
BRANCH   2   5
HETATM    5  N   UNL     1      41.224 -13.220   5.695  1.00  0.00    -0.267 N 
HETATM    6  C   UNL     1      42.330 -13.841   5.163  1.00  0.00     0.236 C 
HETATM    7  O   UNL     1      43.422 -13.814   5.736  1.00  0.00    -0.272 OA
HETATM    8  H   UNL     1      40.371 -13.037   5.173  1.00  0.00     0.190 HD
BRANCH   6   9
HETATM    9  C   UNL     1      42.117 -14.679   3.918  1.00  0.00     0.109 C 
BRANCH   9  10
HETATM   10  C   UNL     1      43.329 -14.914   3.023  1.00  0.00     0.051 C 
BRANCH  10  11
HETATM   11  C   UNL     1      43.558 -16.341   2.670  1.00  0.00    -0.021 A 
HETATM   12  C   UNL     1      43.729 -17.412   3.523  1.00  0.00     0.127 A 
HETATM   13  N   UNL     1      43.950 -18.535   2.750  1.00  0.00    -0.245 N 
HETATM   14  N   UNL     1      43.907 -18.224   1.428  1.00  0.00    -0.180 NA
HETATM   15  C   UNL     1      43.681 -16.914   1.389  1.00  0.00     0.147 A 
BRANCH  13  16
HETATM   16  C   UNL     1      44.210 -19.865   3.184  1.00  0.00     0.058 A 
HETATM   17  C   UNL     1      44.608 -20.138   4.500  1.00  0.00     0.031 A 
HETATM   18  C   UNL     1      44.871 -21.454   4.892  1.00  0.00     0.002 A 
HETATM   19  C   UNL     1      44.739 -22.499   3.981  1.00  0.00     0.000 A 
HETATM   20  C   UNL     1      44.340 -22.236   2.673  1.00  0.00     0.002 A 
HETATM   21  C   UNL     1      44.075 -20.925   2.273  1.00  0.00     0.031 A 
ENDBRANCH  13  16
ENDBRANCH  10  11
ENDBRANCH   9  10
ENDBRANCH   6   9
ENDBRANCH   2   5
BRANCH   1  22
HETATM   22  C   UNL     1      41.477 -10.348   7.974  1.00  0.00     0.121 A 
HETATM   23  N   UNL     1      41.019  -9.069   8.122  1.00  0.00    -0.272 N 
HETATM   24  N   UNL     1      41.103  -8.596   9.376  1.00  0.00    -0.174 NA
HETATM   25  H   UNL     1      40.602  -8.482   7.405  1.00  0.00     0.189 HD
HETATM   26  C   UNL     1      41.687  -9.585  10.071  1.00  0.00     0.089 A 
HETATM   27  C   UNL     1      41.956 -10.694   9.222  1.00  0.00     0.071 A 
BRANCH  26  28
HETATM   28  C   UNL     1      41.927  -9.493  11.511  1.00  0.00    -0.005 A 
HETATM   29  C   UNL     1      43.192  -9.786  12.038  1.00  0.00     0.016 A 
HETATM   30  C   UNL     1      43.458  -9.617  13.402  1.00  0.00     0.037 A 
HETATM   31  C   UNL     1      42.457  -9.158  14.257  1.00  0.00     0.068 A 
HETATM   32  C   UNL     1      41.181  -8.912  13.748  1.00  0.00     0.037 A 
HETATM   33  C   UNL     1      40.917  -9.070  12.384  1.00  0.00     0.016 A 
BRANCH  31  34
HETATM   34  O   UNL     1      42.598  -8.931  15.598  1.00  0.00    -0.356 OA
HETATM   35  C   UNL     1      41.590  -8.129  16.203  1.00  0.00     0.210 C 
ENDBRANCH  31  34
ENDBRANCH  26  28
ENDBRANCH   1  22
TORSDOF 8
ENDMDL
MODEL 8
REMARK VINA RESULT:      -8.5      2.288      4.130
REMARK  8 active torsions:
REMARK  status: ('A' for Active; 'I' for Inactive)
REMARK    1  A    between atoms: O_2  and  C_3 
REMARK    2  A    between atoms: C_6  and  C_7 
REMARK    3  A    between atoms: C_11  and  C_12 
REMARK       I    between atoms: C_12  and  N_13 
REMARK    4  A    between atoms: N_13  and  N_14 
REMARK       I    between atoms: N_14  and  C_15 
REMARK    5  A    between atoms: C_15  and  C_16 
REMARK    6  A    between atoms: C_16  and  C_17 
REMARK    7  A    between atoms: C_17  and  C_18 
REMARK    8  A    between atoms: N_20  and  C_21 
ROOT
HETATM    1  C   UNL     1      42.519 -13.150   4.762  1.00  0.00     0.288 C 
HETATM    2  N   UNL     1      42.108 -12.163   3.893  1.00  0.00    -0.262 N 
HETATM    3  O   UNL     1      42.599 -12.958   5.975  1.00  0.00    -0.264 OA
HETATM    4  H   UNL     1      42.065 -12.273   2.883  1.00  0.00     0.190 HD
ENDROOT
BRANCH   2   5
HETATM    5  N   UNL     1      41.697 -10.924   4.399  1.00  0.00    -0.267 N 
HETATM    6  C   UNL     1      40.343 -10.710   4.516  1.00  0.00     0.236 C 
HETATM    7  O   UNL     1      39.528 -11.612   4.309  1.00  0.00    -0.272 OA
HETATM    8  H   UNL     1      42.386 -10.178   4.354  1.00  0.00     0.190 HD
BRANCH   6   9
HETATM    9  C   UNL     1      39.902  -9.360   5.047  1.00  0.00     0.109 C 
BRANCH   9  10
HETATM   10  C   UNL     1      39.090  -9.352   6.337  1.00  0.00     0.051 C 
BRANCH  10  11
HETATM   11  C   UNL     1      39.823  -9.873   7.522  1.00  0.00    -0.021 A 
HETATM   12  C   UNL     1      41.176  -9.804   7.784  1.00  0.00     0.127 A 
HETATM   13  N   UNL     1      41.407 -10.453   8.981  1.00  0.00    -0.245 N 
HETATM   14  N   UNL     1      40.244 -10.921   9.506  1.00  0.00    -0.180 NA
HETATM   15  C   UNL     1      39.306 -10.579   8.626  1.00  0.00     0.147 A 
BRANCH  13  16
HETATM   16  C   UNL     1      42.649 -10.667   9.642  1.00  0.00     0.058 A 
HETATM   17  C   UNL     1      42.848 -10.263  10.969  1.00  0.00     0.031 A 
HETATM   18  C   UNL     1      44.084 -10.472  11.586  1.00  0.00     0.002 A 
HETATM   19  C   UNL     1      45.124 -11.083  10.889  1.00  0.00     0.000 A 
HETATM   20  C   UNL     1      44.933 -11.492   9.571  1.00  0.00     0.002 A 
HETATM   21  C   UNL     1      43.700 -11.286   8.947  1.00  0.00     0.031 A 
ENDBRANCH  13  16
ENDBRANCH  10  11
ENDBRANCH   9  10
ENDBRANCH   6   9
ENDBRANCH   2   5
BRANCH   1  22
HETATM   22  C   UNL     1      42.811 -14.417   4.149  1.00  0.00     0.121 A 
HETATM   23  N   UNL     1      43.122 -14.531   2.823  1.00  0.00    -0.272 N 
HETATM   24  N   UNL     1      43.460 -15.773   2.442  1.00  0.00    -0.174 NA
HETATM   25  H   UNL     1      43.154 -13.783   2.137  1.00  0.00     0.189 HD
HETATM   26  C   UNL     1      43.317 -16.517   3.550  1.00  0.00     0.089 A 
HETATM   27  C   UNL     1      42.891 -15.706   4.638  1.00  0.00     0.071 A 
BRANCH  26  28
HETATM   28  C   UNL     1      43.633 -17.944   3.580  1.00  0.00    -0.005 A 
HETATM   29  C   UNL     1      43.616 -18.699   2.399  1.00  0.00     0.016 A 
HETATM   30  C   UNL     1      44.002 -20.045   2.402  1.00  0.00     0.037 A 
HETATM   31  C   UNL     1      44.403 -20.654   3.590  1.00  0.00     0.068 A 
HETATM   32  C   UNL     1      44.374 -19.923   4.778  1.00  0.00     0.037 A 
HETATM   33  C   UNL     1      44.000 -18.575   4.775  1.00  0.00     0.016 A 
BRANCH  31  34
HETATM   34  O   UNL     1      44.822 -21.949   3.718  1.00  0.00    -0.356 OA
HETATM   35  C   UNL     1      45.079 -22.391   5.046  1.00  0.00     0.210 C 
ENDBRANCH  31  34
ENDBRANCH  26  28
ENDBRANCH   1  22
TORSDOF 8
ENDMDL
MODEL 9
REMARK VINA RESULT:      -8.4      6.168     10.541
REMARK  8 active torsions:
REMARK  status: ('A' for Active; 'I' for Inactive)
REMARK    1  A    between atoms: O_2  and  C_3 
REMARK    2  A    between atoms: C_6  and  C_7 
REMARK    3  A    between atoms: C_11  and  C_12 
REMARK       I    between atoms: C_12  and  N_13 
REMARK    4  A    between atoms: N_13  and  N_14 
REMARK       I    between atoms: N_14  and  C_15 
REMARK    5  A    between atoms: C_15  and  C_16 
REMARK    6  A    between atoms: C_16  and  C_17 
REMARK    7  A    between atoms: C_17  and  C_18 
REMARK    8  A    between atoms: N_20  and  C_21 
ROOT
HETATM    1  C   UNL     1      40.559 -14.776   1.959  1.00  0.00     0.288 C 
HETATM    2  N   UNL     1      41.450 -13.874   2.499  1.00  0.00    -0.262 N 
HETATM    3  O   UNL     1      40.148 -15.745   2.594  1.00  0.00    -0.264 OA
HETATM    4  H   UNL     1      41.840 -13.084   1.993  1.00  0.00     0.190 HD
ENDROOT
BRANCH   2   5
HETATM    5  N   UNL     1      41.848 -14.013   3.834  1.00  0.00    -0.267 N 
HETATM    6  C   UNL     1      43.200 -14.031   4.088  1.00  0.00     0.236 C 
HETATM    7  O   UNL     1      44.026 -13.804   3.201  1.00  0.00    -0.272 OA
HETATM    8  H   UNL     1      41.148 -14.391   4.467  1.00  0.00     0.190 HD
BRANCH   6   9
HETATM    9  C   UNL     1      43.627 -14.199   5.534  1.00  0.00     0.109 C 
BRANCH   9  10
HETATM   10  C   UNL     1      43.086 -15.414   6.281  1.00  0.00     0.051 C 
BRANCH  10  11
HETATM   11  C   UNL     1      43.705 -16.705   5.874  1.00  0.00    -0.021 A 
HETATM   12  C   UNL     1      43.379 -17.502   4.796  1.00  0.00     0.127 A 
HETATM   13  N   UNL     1      44.192 -18.618   4.837  1.00  0.00    -0.245 N 
HETATM   14  N   UNL     1      45.042 -18.554   5.895  1.00  0.00    -0.180 NA
HETATM   15  C   UNL     1      44.740 -17.415   6.512  1.00  0.00     0.147 A 
BRANCH  13  16
HETATM   16  C   UNL     1      44.201 -19.733   3.954  1.00  0.00     0.058 A 
HETATM   17  C   UNL     1      43.693 -19.636   2.651  1.00  0.00     0.031 A 
HETATM   18  C   UNL     1      43.701 -20.753   1.811  1.00  0.00     0.002 A 
HETATM   19  C   UNL     1      44.215 -21.968   2.262  1.00  0.00     0.000 A 
HETATM   20  C   UNL     1      44.726 -22.071   3.553  1.00  0.00     0.002 A 
HETATM   21  C   UNL     1      44.721 -20.959   4.399  1.00  0.00     0.031 A 
ENDBRANCH  13  16
ENDBRANCH  10  11
ENDBRANCH   9  10
ENDBRANCH   6   9
ENDBRANCH   2   5
BRANCH   1  22
HETATM   22  C   UNL     1      40.130 -14.478   0.620  1.00  0.00     0.121 A 
HETATM   23  N   UNL     1      40.976 -14.551  -0.451  1.00  0.00    -0.272 N 
HETATM   24  N   UNL     1      40.384 -14.334  -1.637  1.00  0.00    -0.174 NA
HETATM   25  H   UNL     1      41.965 -14.783  -0.433  1.00  0.00     0.189 HD
HETATM   26  C   UNL     1      39.108 -14.056  -1.330  1.00  0.00     0.089 A 
HETATM   27  C   UNL     1      38.913 -14.116   0.077  1.00  0.00     0.071 A 
BRANCH  26  28
HETATM   28  C   UNL     1      38.096 -13.798  -2.354  1.00  0.00    -0.005 A 
HETATM   29  C   UNL     1      37.564 -12.512  -2.516  1.00  0.00     0.016 A 
HETATM   30  C   UNL     1      36.661 -12.234  -3.550  1.00  0.00     0.037 A 
HETATM   31  C   UNL     1      36.274 -13.243  -4.430  1.00  0.00     0.068 A 
HETATM   32  C   UNL     1      36.762 -14.537  -4.244  1.00  0.00     0.037 A 
HETATM   33  C   UNL     1      37.672 -14.814  -3.220  1.00  0.00     0.016 A 
BRANCH  31  34
HETATM   34  O   UNL     1      35.421 -13.093  -5.488  1.00  0.00    -0.356 OA
HETATM   35  C   UNL     1      35.670 -11.976  -6.333  1.00  0.00     0.210 C 
ENDBRANCH  31  34
ENDBRANCH  26  28
ENDBRANCH   1  22
TORSDOF 8
ENDMDL
MODEL 10
REMARK VINA RESULT:      -8.3      3.283     11.077
REMARK  8 active torsions:
REMARK  status: ('A' for Active; 'I' for Inactive)
REMARK    1  A    between atoms: O_2  and  C_3 
REMARK    2  A    between atoms: C_6  and  C_7 
REMARK    3  A    between atoms: C_11  and  C_12 
REMARK       I    between atoms: C_12  and  N_13 
REMARK    4  A    between atoms: N_13  and  N_14 
REMARK       I    between atoms: N_14  and  C_15 
REMARK    5  A    between atoms: C_15  and  C_16 
REMARK    6  A    between atoms: C_16  and  C_17 
REMARK    7  A    between atoms: C_17  and  C_18 
REMARK    8  A    between atoms: N_20  and  C_21 
ROOT
HETATM    1  C   UNL     1      40.902 -10.866   4.619  1.00  0.00     0.288 C 
HETATM    2  N   UNL     1      41.861 -11.513   3.871  1.00  0.00    -0.262 N 
HETATM    3  O   UNL     1      39.769 -10.659   4.187  1.00  0.00    -0.264 OA
HETATM    4  H   UNL     1      42.817 -11.670   4.180  1.00  0.00     0.190 HD
ENDROOT
BRANCH   2   5
HETATM    5  N   UNL     1      41.528 -12.019   2.609  1.00  0.00    -0.267 N 
HETATM    6  C   UNL     1      42.313 -13.033   2.110  1.00  0.00     0.236 C 
HETATM    7  O   UNL     1      43.191 -13.564   2.794  1.00  0.00    -0.272 OA
HETATM    8  H   UNL     1      40.945 -11.418   2.032  1.00  0.00     0.190 HD
BRANCH   6   9
HETATM    9  C   UNL     1      41.959 -13.565   0.735  1.00  0.00     0.109 C 
BRANCH   9  10
HETATM   10  C   UNL     1      41.003 -14.751   0.674  1.00  0.00     0.051 C 
BRANCH  10  11
HETATM   11  C   UNL     1      41.367 -15.875   1.580  1.00  0.00    -0.021 A 
HETATM   12  C   UNL     1      42.357 -16.820   1.407  1.00  0.00     0.127 A 
HETATM   13  N   UNL     1      42.302 -17.687   2.481  1.00  0.00    -0.245 N 
HETATM   14  N   UNL     1      41.323 -17.317   3.347  1.00  0.00    -0.180 NA
HETATM   15  C   UNL     1      40.765 -16.242   2.799  1.00  0.00     0.147 A 
BRANCH  13  16
HETATM   16  C   UNL     1      43.104 -18.837   2.725  1.00  0.00     0.058 A 
HETATM   17  C   UNL     1      43.135 -19.908   1.822  1.00  0.00     0.031 A 
HETATM   18  C   UNL     1      43.920 -21.032   2.097  1.00  0.00     0.002 A 
HETATM   19  C   UNL     1      44.674 -21.094   3.267  1.00  0.00     0.000 A 
HETATM   20  C   UNL     1      44.652 -20.032   4.167  1.00  0.00     0.002 A 
HETATM   21  C   UNL     1      43.870 -18.905   3.900  1.00  0.00     0.031 A 
ENDBRANCH  13  16
ENDBRANCH  10  11
ENDBRANCH   9  10
ENDBRANCH   6   9
ENDBRANCH   2   5
BRANCH   1  22
HETATM   22  C   UNL     1      41.317 -10.488   5.942  1.00  0.00     0.121 A 
HETATM   23  N   UNL     1      41.601  -9.193   6.275  1.00  0.00    -0.272 N 
HETATM   24  N   UNL     1      41.878  -9.007   7.576  1.00  0.00    -0.174 NA
HETATM   25  H   UNL     1      41.586  -8.386   5.658  1.00  0.00     0.189 HD
HETATM   26  C   UNL     1      41.823 -10.236   8.112  1.00  0.00     0.089 A 
HETATM   27  C   UNL     1      41.494 -11.195   7.115  1.00  0.00     0.071 A 
BRANCH  26  28
HETATM   28  C   UNL     1      42.023 -10.476   9.540  1.00  0.00    -0.005 A 
HETATM   29  C   UNL     1      43.283 -10.282  10.122  1.00  0.00     0.016 A 
HETATM   30  C   UNL     1      43.466 -10.423  11.503  1.00  0.00     0.037 A 
HETATM   31  C   UNL     1      42.389 -10.768  12.318  1.00  0.00     0.068 A 
HETATM   32  C   UNL     1      41.143 -11.011  11.740  1.00  0.00     0.037 A 
HETATM   33  C   UNL     1      40.956 -10.860  10.362  1.00  0.00     0.016 A 
BRANCH  31  34
HETATM   34  O   UNL     1      42.434 -10.913  13.677  1.00  0.00    -0.356 OA
HETATM   35  C   UNL     1      42.729  -9.735  14.419  1.00  0.00     0.210 C 
ENDBRANCH  31  34
ENDBRANCH  26  28
ENDBRANCH   1  22
TORSDOF 8
ENDMDL
