MODEL 1
REMARK VINA RESULT:      -8.9      0.000      0.000
REMARK  6 active torsions:
REMARK  status: ('A' for Active; 'I' for Inactive)
REMARK    1  A    between atoms: C_2  and  O_3 
REMARK    2  A    between atoms: O_3  and  C_4 
REMARK    3  A    between atoms: C_5  and  C_6 
REMARK    4  A    between atoms: C_10  and  C_11 
REMARK       I    between atoms: C_11  and  N_12 
REMARK    5  A    between atoms: N_12  and  N_13 
REMARK    6  A    between atoms: C_14  and  C_15 
ROOT
HETATM    1  C   UNL     1      44.820 -13.297   8.064  1.00  0.00     0.289 C 
HETATM    2  N   UNL     1      44.035 -14.406   7.785  1.00  0.00    -0.242 N 
HETATM    3  O   UNL     1      45.948 -13.114   7.618  1.00  0.00    -0.264 OA
HETATM    4  H   UNL     1      43.120 -14.499   8.203  1.00  0.00     0.192 HD
ENDROOT
BRANCH   1   5
HETATM    5  C   UNL     1      44.202 -12.337   8.945  1.00  0.00     0.121 A 
HETATM    6  N   UNL     1      43.649 -11.184   8.464  1.00  0.00    -0.272 N 
HETATM    7  N   UNL     1      43.100 -10.401   9.404  1.00  0.00    -0.174 NA
HETATM    8  H   UNL     1      43.615 -10.888   7.493  1.00  0.00     0.189 HD
HETATM    9  C   UNL     1      43.318 -11.053  10.560  1.00  0.00     0.092 A 
HETATM   10  C   UNL     1      43.993 -12.281  10.308  1.00  0.00     0.071 A 
BRANCH   9  11
HETATM   11  C   UNL     1      42.847 -10.514  11.846  1.00  0.00     0.028 A 
HETATM   12  C   UNL     1      41.504 -10.611  12.273  1.00  0.00     0.081 A 
HETATM   13  C   UNL     1      41.132 -10.046  13.503  1.00  0.00     0.038 A 
HETATM   14  C   UNL     1      42.075  -9.407  14.313  1.00  0.00     0.003 A 
HETATM   15  C   UNL     1      43.401  -9.325  13.906  1.00  0.00     0.001 A 
HETATM   16  C   UNL     1      43.782  -9.875  12.682  1.00  0.00     0.017 A 
BRANCH  12  17
HETATM   17  O   UNL     1      40.621 -11.262  11.447  1.00  0.00    -0.351 OA
BRANCH  17  18
HETATM   18  C   UNL     1      39.705 -10.471  10.693  1.00  0.00     0.171 C 
HETATM   19  C   UNL     1      39.582 -11.095   9.314  1.00  0.00     0.034 C 
ENDBRANCH  17  18
ENDBRANCH  12  17
ENDBRANCH   9  11
ENDBRANCH   1   5
BRANCH   2  20
HETATM   20  N   UNL     1      44.488 -15.379   6.937  1.00  0.00    -0.183 NA
HETATM   21  C   UNL     1      43.709 -16.403   6.794  1.00  0.00     0.152 C 
BRANCH  21  22
HETATM   22  C   UNL     1      44.094 -17.480   5.908  1.00  0.00     0.011 A 
HETATM   23  C   UNL     1      43.541 -17.788   4.623  1.00  0.00     0.004 A 
HETATM   24  C   UNL     1      44.225 -18.902   4.132  1.00  0.00     0.043 A 
HETATM   25  C   UNL     1      42.521 -17.224   3.826  1.00  0.00     0.014 A 
HETATM   26  C   UNL     1      43.943 -19.479   2.887  1.00  0.00     0.030 A 
HETATM   27  N   UNL     1      45.155 -19.260   5.080  1.00  0.00    -0.364 N 
HETATM   28  C   UNL     1      42.929 -18.899   2.118  1.00  0.00     0.002 A 
HETATM   29  C   UNL     1      42.226 -17.789   2.579  1.00  0.00     0.001 A 
HETATM   30  H   UNL     1      45.796 -20.036   4.994  1.00  0.00     0.165 HD
HETATM   31  C   UNL     1      45.085 -18.413   6.151  1.00  0.00     0.102 A 
ENDBRANCH  21  22
ENDBRANCH   2  20
TORSDOF 6
ENDMDL
MODEL 2
REMARK VINA RESULT:      -8.8      7.560     11.652
REMARK  6 active torsions:
REMARK  status: ('A' for Active; 'I' for Inactive)
REMARK    1  A    between atoms: C_2  and  O_3 
REMARK    2  A    between atoms: O_3  and  C_4 
REMARK    3  A    between atoms: C_5  and  C_6 
REMARK    4  A    between atoms: C_10  and  C_11 
REMARK       I    between atoms: C_11  and  N_12 
REMARK    5  A    between atoms: N_12  and  N_13 
REMARK    6  A    between atoms: C_14  and  C_15 
ROOT
HETATM    1  C   UNL     1      41.376 -16.152   0.414  1.00  0.00     0.289 C 
HETATM    2  N   UNL     1      41.666 -15.799  -0.896  1.00  0.00    -0.242 N 
HETATM    3  O   UNL     1      40.410 -15.739   1.047  1.00  0.00    -0.264 OA
HETATM    4  H   UNL     1      42.491 -16.165  -1.350  1.00  0.00     0.192 HD
ENDROOT
BRANCH   1   5
HETATM    5  C   UNL     1      42.318 -17.069   1.005  1.00  0.00     0.121 A 
HETATM    6  N   UNL     1      43.664 -16.840   0.950  1.00  0.00    -0.272 N 
HETATM    7  N   UNL     1      44.408 -17.774   1.558  1.00  0.00    -0.174 NA
HETATM    8  H   UNL     1      44.126 -16.049   0.511  1.00  0.00     0.189 HD
HETATM    9  C   UNL     1      43.520 -18.673   2.016  1.00  0.00     0.092 A 
HETATM   10  C   UNL     1      42.196 -18.254   1.701  1.00  0.00     0.071 A 
BRANCH   9  11
HETATM   11  C   UNL     1      43.950 -19.865   2.765  1.00  0.00     0.028 A 
HETATM   12  C   UNL     1      44.335 -19.820   4.123  1.00  0.00     0.081 A 
HETATM   13  C   UNL     1      44.758 -21.000   4.756  1.00  0.00     0.038 A 
HETATM   14  C   UNL     1      44.784 -22.214   4.066  1.00  0.00     0.003 A 
HETATM   15  C   UNL     1      44.389 -22.267   2.735  1.00  0.00     0.001 A 
HETATM   16  C   UNL     1      43.974 -21.101   2.092  1.00  0.00     0.017 A 
BRANCH  12  17
HETATM   17  O   UNL     1      44.276 -18.605   4.760  1.00  0.00    -0.351 OA
BRANCH  17  18
HETATM   18  C   UNL     1      43.413 -18.483   5.888  1.00  0.00     0.171 C 
HETATM   19  C   UNL     1      42.064 -17.995   5.388  1.00  0.00     0.034 C 
ENDBRANCH  17  18
ENDBRANCH  12  17
ENDBRANCH   9  11
ENDBRANCH   1   5
BRANCH   2  20
HETATM   20  N   UNL     1      40.835 -14.960  -1.587  1.00  0.00    -0.183 NA
HETATM   21  C   UNL     1      41.422 -14.047  -2.291  1.00  0.00     0.152 C 
BRANCH  21  22
HETATM   22  C   UNL     1      40.630 -13.118  -3.069  1.00  0.00     0.011 A 
HETATM   23  C   UNL     1      41.101 -12.007  -3.841  1.00  0.00     0.004 A 
HETATM   24  C   UNL     1      39.986 -11.403  -4.424  1.00  0.00     0.043 A 
HETATM   25  C   UNL     1      42.374 -11.455  -4.101  1.00  0.00     0.014 A 
HETATM   26  C   UNL     1      40.078 -10.279  -5.254  1.00  0.00     0.030 A 
HETATM   27  N   UNL     1      38.880 -12.116  -4.022  1.00  0.00    -0.364 N 
HETATM   28  C   UNL     1      41.350  -9.753  -5.496  1.00  0.00     0.002 A 
HETATM   29  C   UNL     1      42.484 -10.330  -4.928  1.00  0.00     0.001 A 
HETATM   30  H   UNL     1      37.929 -11.905  -4.293  1.00  0.00     0.165 HD
HETATM   31  C   UNL     1      39.255 -13.148  -3.208  1.00  0.00     0.102 A 
ENDBRANCH  21  22
ENDBRANCH   2  20
TORSDOF 6
ENDMDL
MODEL 3
REMARK VINA RESULT:      -8.6      7.972     11.276
REMARK  6 active torsions:
REMARK  status: ('A' for Active; 'I' for Inactive)
REMARK    1  A    between atoms: C_2  and  O_3 
REMARK    2  A    between atoms: O_3  and  C_4 
REMARK    3  A    between atoms: C_5  and  C_6 
REMARK    4  A    between atoms: C_10  and  C_11 
REMARK       I    between atoms: C_11  and  N_12 
REMARK    5  A    between atoms: N_12  and  N_13 
REMARK    6  A    between atoms: C_14  and  C_15 
ROOT
HETATM    1  C   UNL     1      41.390 -15.800   0.216  1.00  0.00     0.289 C 
HETATM    2  N   UNL     1      42.338 -16.812   0.238  1.00  0.00    -0.242 N 
HETATM    3  O   UNL     1      40.630 -15.540   1.144  1.00  0.00    -0.264 OA
HETATM    4  H   UNL     1      42.919 -16.981  -0.571  1.00  0.00     0.192 HD
ENDROOT
BRANCH   1   5
HETATM    5  C   UNL     1      41.353 -15.045  -1.012  1.00  0.00     0.121 A 
HETATM    6  N   UNL     1      41.385 -15.665  -2.228  1.00  0.00    -0.272 N 
HETATM    7  N   UNL     1      41.328 -14.830  -3.276  1.00  0.00    -0.174 NA
HETATM    8  H   UNL     1      41.437 -16.666  -2.397  1.00  0.00     0.189 HD
HETATM    9  C   UNL     1      41.279 -13.602  -2.730  1.00  0.00     0.092 A 
HETATM   10  C   UNL     1      41.277 -13.700  -1.309  1.00  0.00     0.071 A 
BRANCH   9  11
HETATM   11  C   UNL     1      41.196 -12.393  -3.565  1.00  0.00     0.028 A 
HETATM   12  C   UNL     1      39.970 -11.851  -4.011  1.00  0.00     0.081 A 
HETATM   13  C   UNL     1      39.981 -10.709  -4.827  1.00  0.00     0.038 A 
HETATM   14  C   UNL     1      41.184 -10.097  -5.187  1.00  0.00     0.003 A 
HETATM   15  C   UNL     1      42.392 -10.615  -4.737  1.00  0.00     0.001 A 
HETATM   16  C   UNL     1      42.395 -11.754  -3.932  1.00  0.00     0.017 A 
BRANCH  12  17
HETATM   17  O   UNL     1      38.817 -12.482  -3.615  1.00  0.00    -0.351 OA
BRANCH  17  18
HETATM   18  C   UNL     1      37.812 -11.697  -2.976  1.00  0.00     0.171 C 
HETATM   19  C   UNL     1      38.114 -11.682  -1.487  1.00  0.00     0.034 C 
ENDBRANCH  17  18
ENDBRANCH  12  17
ENDBRANCH   9  11
ENDBRANCH   1   5
BRANCH   2  20
HETATM   20  N   UNL     1      42.501 -17.584   1.355  1.00  0.00    -0.183 NA
HETATM   21  C   UNL     1      43.714 -17.686   1.793  1.00  0.00     0.152 C 
BRANCH  21  22
HETATM   22  C   UNL     1      43.988 -18.470   2.978  1.00  0.00     0.011 A 
HETATM   23  C   UNL     1      44.191 -19.886   3.056  1.00  0.00     0.004 A 
HETATM   24  C   UNL     1      44.431 -20.198   4.396  1.00  0.00     0.043 A 
HETATM   25  C   UNL     1      44.195 -20.936   2.113  1.00  0.00     0.014 A 
HETATM   26  C   UNL     1      44.676 -21.504   4.839  1.00  0.00     0.030 A 
HETATM   27  N   UNL     1      44.374 -19.021   5.105  1.00  0.00    -0.364 N 
HETATM   28  C   UNL     1      44.674 -22.524   3.883  1.00  0.00     0.002 A 
HETATM   29  C   UNL     1      44.437 -22.247   2.539  1.00  0.00     0.001 A 
HETATM   30  H   UNL     1      44.511 -18.944   6.103  1.00  0.00     0.165 HD
HETATM   31  C   UNL     1      44.108 -17.977   4.264  1.00  0.00     0.102 A 
ENDBRANCH  21  22
ENDBRANCH   2  20
TORSDOF 6
ENDMDL
MODEL 4
REMARK VINA RESULT:      -8.4      7.080     11.533
REMARK  6 active torsions:
REMARK  status: ('A' for Active; 'I' for Inactive)
REMARK    1  A    between atoms: C_2  and  O_3 
REMARK    2  A    between atoms: O_3  and  C_4 
REMARK    3  A    between atoms: C_5  and  C_6 
REMARK    4  A    between atoms: C_10  and  C_11 
REMARK       I    between atoms: C_11  and  N_12 
REMARK    5  A    between atoms: N_12  and  N_13 
REMARK    6  A    between atoms: C_14  and  C_15 
ROOT
HETATM    1  C   UNL     1      41.290 -15.895   0.844  1.00  0.00     0.289 C 
HETATM    2  N   UNL     1      41.712 -15.104  -0.214  1.00  0.00    -0.242 N 
HETATM    3  O   UNL     1      40.209 -15.776   1.413  1.00  0.00    -0.264 OA
HETATM    4  H   UNL     1      42.625 -15.247  -0.623  1.00  0.00     0.192 HD
ENDROOT
BRANCH   1   5
HETATM    5  C   UNL     1      42.238 -16.903   1.249  1.00  0.00     0.121 A 
HETATM    6  N   UNL     1      43.562 -16.802   0.930  1.00  0.00    -0.272 N 
HETATM    7  N   UNL     1      44.320 -17.808   1.390  1.00  0.00    -0.174 NA
HETATM    8  H   UNL     1      44.003 -16.054   0.402  1.00  0.00     0.189 HD
HETATM    9  C   UNL     1      43.456 -18.623   2.022  1.00  0.00     0.092 A 
HETATM   10  C   UNL     1      42.143 -18.077   1.968  1.00  0.00     0.071 A 
BRANCH   9  11
HETATM   11  C   UNL     1      43.909 -19.857   2.684  1.00  0.00     0.028 A 
HETATM   12  C   UNL     1      44.336 -19.893   4.030  1.00  0.00     0.081 A 
HETATM   13  C   UNL     1      44.778 -21.108   4.577  1.00  0.00     0.038 A 
HETATM   14  C   UNL     1      44.784 -22.278   3.814  1.00  0.00     0.003 A 
HETATM   15  C   UNL     1      44.348 -22.252   2.495  1.00  0.00     0.001 A 
HETATM   16  C   UNL     1      43.914 -21.050   1.937  1.00  0.00     0.017 A 
BRANCH  12  17
HETATM   17  O   UNL     1      44.296 -18.719   4.740  1.00  0.00    -0.351 OA
BRANCH  17  18
HETATM   18  C   UNL     1      45.043 -18.646   5.953  1.00  0.00     0.171 C 
HETATM   19  C   UNL     1      44.753 -17.299   6.593  1.00  0.00     0.034 C 
ENDBRANCH  17  18
ENDBRANCH  12  17
ENDBRANCH   9  11
ENDBRANCH   1   5
BRANCH   2  20
HETATM   20  N   UNL     1      40.895 -14.129  -0.719  1.00  0.00    -0.183 NA
HETATM   21  C   UNL     1      40.547 -14.277  -1.956  1.00  0.00     0.152 C 
BRANCH  21  22
HETATM   22  C   UNL     1      39.673 -13.306  -2.578  1.00  0.00     0.011 A 
HETATM   23  C   UNL     1      38.449 -13.560  -3.278  1.00  0.00     0.004 A 
HETATM   24  C   UNL     1      37.946 -12.326  -3.697  1.00  0.00     0.043 A 
HETATM   25  C   UNL     1      37.716 -14.724  -3.595  1.00  0.00     0.014 A 
HETATM   26  C   UNL     1      36.750 -12.198  -4.414  1.00  0.00     0.030 A 
HETATM   27  N   UNL     1      38.829 -11.361  -3.272  1.00  0.00    -0.364 N 
HETATM   28  C   UNL     1      36.045 -13.367  -4.714  1.00  0.00     0.002 A 
HETATM   29  C   UNL     1      36.519 -14.613  -4.313  1.00  0.00     0.001 A 
HETATM   30  H   UNL     1      38.720 -10.370  -3.434  1.00  0.00     0.165 HD
HETATM   31  C   UNL     1      39.870 -11.938  -2.600  1.00  0.00     0.102 A 
ENDBRANCH  21  22
ENDBRANCH   2  20
TORSDOF 6
ENDMDL
MODEL 5
REMARK VINA RESULT:      -8.2      6.823     11.000
REMARK  6 active torsions:
REMARK  status: ('A' for Active; 'I' for Inactive)
REMARK    1  A    between atoms: C_2  and  O_3 
REMARK    2  A    between atoms: O_3  and  C_4 
REMARK    3  A    between atoms: C_5  and  C_6 
REMARK    4  A    between atoms: C_10  and  C_11 
REMARK       I    between atoms: C_11  and  N_12 
REMARK    5  A    between atoms: N_12  and  N_13 
REMARK    6  A    between atoms: C_14  and  C_15 
ROOT
HETATM    1  C   UNL     1      42.827 -14.184   2.320  1.00  0.00     0.289 C 
HETATM    2  N   UNL     1      42.224 -13.865   1.112  1.00  0.00    -0.242 N 
HETATM    3  O   UNL     1      43.340 -13.366   3.078  1.00  0.00    -0.264 OA
HETATM    4  H   UNL     1      41.837 -14.594   0.530  1.00  0.00     0.192 HD
ENDROOT
BRANCH   1   5
HETATM    5  C   UNL     1      42.811 -15.590   2.640  1.00  0.00     0.121 A 
HETATM    6  N   UNL     1      41.792 -16.143   3.362  1.00  0.00    -0.272 N 
HETATM    7  N   UNL     1      41.912 -17.463   3.564  1.00  0.00    -0.174 NA
HETATM    8  H   UNL     1      40.982 -15.659   3.735  1.00  0.00     0.189 HD
HETATM    9  C   UNL     1      43.072 -17.795   2.970  1.00  0.00     0.092 A 
HETATM   10  C   UNL     1      43.656 -16.646   2.365  1.00  0.00     0.071 A 
BRANCH   9  11
HETATM   11  C   UNL     1      43.561 -19.183   2.961  1.00  0.00     0.028 A 
HETATM   12  C   UNL     1      44.361 -19.722   3.993  1.00  0.00     0.081 A 
HETATM   13  C   UNL     1      44.807 -21.049   3.893  1.00  0.00     0.038 A 
HETATM   14  C   UNL     1      44.457 -21.843   2.798  1.00  0.00     0.003 A 
HETATM   15  C   UNL     1      43.656 -21.324   1.789  1.00  0.00     0.001 A 
HETATM   16  C   UNL     1      43.212 -20.004   1.872  1.00  0.00     0.017 A 
BRANCH  12  17
HETATM   17  O   UNL     1      44.663 -18.905   5.053  1.00  0.00    -0.351 OA
BRANCH  17  18
HETATM   18  C   UNL     1      44.219 -19.300   6.350  1.00  0.00     0.171 C 
HETATM   19  C   UNL     1      43.312 -18.203   6.881  1.00  0.00     0.034 C 
ENDBRANCH  17  18
ENDBRANCH  12  17
ENDBRANCH   9  11
ENDBRANCH   1   5
BRANCH   2  20
HETATM   20  N   UNL     1      42.142 -12.562   0.703  1.00  0.00    -0.183 NA
HETATM   21  C   UNL     1      42.479 -12.341  -0.527  1.00  0.00     0.152 C 
BRANCH  21  22
HETATM   22  C   UNL     1      42.412 -10.997  -1.059  1.00  0.00     0.011 A 
HETATM   23  C   UNL     1      42.400 -10.607  -2.438  1.00  0.00     0.004 A 
HETATM   24  C   UNL     1      42.319  -9.213  -2.475  1.00  0.00     0.043 A 
HETATM   25  C   UNL     1      42.447 -11.307  -3.662  1.00  0.00     0.014 A 
HETATM   26  C   UNL     1      42.283  -8.486  -3.672  1.00  0.00     0.030 A 
HETATM   27  N   UNL     1      42.288  -8.772  -1.173  1.00  0.00    -0.364 N 
HETATM   28  C   UNL     1      42.332  -9.205  -4.869  1.00  0.00     0.002 A 
HETATM   29  C   UNL     1      42.413 -10.596  -4.868  1.00  0.00     0.001 A 
HETATM   30  H   UNL     1      42.230  -7.802  -0.894  1.00  0.00     0.165 HD
HETATM   31  C   UNL     1      42.343  -9.834  -0.314  1.00  0.00     0.102 A 
ENDBRANCH  21  22
ENDBRANCH   2  20
TORSDOF 6
ENDMDL
MODEL 6
REMARK VINA RESULT:      -8.1      2.866      4.121
REMARK  6 active torsions:
REMARK  status: ('A' for Active; 'I' for Inactive)
REMARK    1  A    between atoms: C_2  and  O_3 
REMARK    2  A    between atoms: O_3  and  C_4 
REMARK    3  A    between atoms: C_5  and  C_6 
REMARK    4  A    between atoms: C_10  and  C_11 
REMARK       I    between atoms: C_11  and  N_12 
REMARK    5  A    between atoms: N_12  and  N_13 
REMARK    6  A    between atoms: C_14  and  C_15 
ROOT
HETATM    1  C   UNL     1      39.977 -11.675   6.891  1.00  0.00     0.289 C 
HETATM    2  N   UNL     1      40.813 -12.674   6.414  1.00  0.00    -0.242 N 
HETATM    3  O   UNL     1      39.076 -11.153   6.241  1.00  0.00    -0.264 OA
HETATM    4  H   UNL     1      41.546 -13.045   7.001  1.00  0.00     0.192 HD
ENDROOT
BRANCH   1   5
HETATM    5  C   UNL     1      40.245 -11.273   8.250  1.00  0.00     0.121 A 
HETATM    6  N   UNL     1      39.415 -11.632   9.273  1.00  0.00    -0.272 N 
HETATM    7  N   UNL     1      39.806 -11.196  10.480  1.00  0.00    -0.174 NA
HETATM    8  H   UNL     1      38.566 -12.185   9.200  1.00  0.00     0.189 HD
HETATM    9  C   UNL     1      40.931 -10.499  10.242  1.00  0.00     0.092 A 
HETATM   10  C   UNL     1      41.246 -10.541   8.854  1.00  0.00     0.071 A 
BRANCH   9  11
HETATM   11  C   UNL     1      41.684  -9.860  11.334  1.00  0.00     0.028 A 
HETATM   12  C   UNL     1      42.807 -10.460  11.946  1.00  0.00     0.081 A 
HETATM   13  C   UNL     1      43.452  -9.794  12.999  1.00  0.00     0.038 A 
HETATM   14  C   UNL     1      43.008  -8.543  13.435  1.00  0.00     0.003 A 
HETATM   15  C   UNL     1      41.915  -7.941  12.826  1.00  0.00     0.001 A 
HETATM   16  C   UNL     1      41.260  -8.596  11.783  1.00  0.00     0.017 A 
BRANCH  12  17
HETATM   17  O   UNL     1      43.211 -11.682  11.469  1.00  0.00    -0.351 OA
BRANCH  17  18
HETATM   18  C   UNL     1      44.588 -11.847  11.133  1.00  0.00     0.171 C 
HETATM   19  C   UNL     1      44.873 -10.984   9.916  1.00  0.00     0.034 C 
ENDBRANCH  17  18
ENDBRANCH  12  17
ENDBRANCH   9  11
ENDBRANCH   1   5
BRANCH   2  20
HETATM   20  N   UNL     1      40.647 -13.170   5.150  1.00  0.00    -0.183 NA
HETATM   21  C   UNL     1      40.623 -14.461   5.055  1.00  0.00     0.152 C 
BRANCH  21  22
HETATM   22  C   UNL     1      40.439 -15.083   3.762  1.00  0.00     0.011 A 
HETATM   23  C   UNL     1      41.148 -16.207   3.229  1.00  0.00     0.004 A 
HETATM   24  C   UNL     1      40.630 -16.461   1.957  1.00  0.00     0.043 A 
HETATM   25  C   UNL     1      42.184 -17.039   3.707  1.00  0.00     0.014 A 
HETATM   26  C   UNL     1      41.093 -17.501   1.141  1.00  0.00     0.030 A 
HETATM   27  N   UNL     1      39.648 -15.527   1.724  1.00  0.00    -0.364 N 
HETATM   28  C   UNL     1      42.119 -18.309   1.641  1.00  0.00     0.002 A 
HETATM   29  C   UNL     1      42.659 -18.083   2.905  1.00  0.00     0.001 A 
HETATM   30  H   UNL     1      39.097 -15.469   0.878  1.00  0.00     0.165 HD
HETATM   31  C   UNL     1      39.524 -14.694   2.801  1.00  0.00     0.102 A 
ENDBRANCH  21  22
ENDBRANCH   2  20
TORSDOF 6
ENDMDL
MODEL 7
REMARK VINA RESULT:      -8.0      7.216     11.351
REMARK  6 active torsions:
REMARK  status: ('A' for Active; 'I' for Inactive)
REMARK    1  A    between atoms: C_2  and  O_3 
REMARK    2  A    between atoms: O_3  and  C_4 
REMARK    3  A    between atoms: C_5  and  C_6 
REMARK    4  A    between atoms: C_10  and  C_11 
REMARK       I    between atoms: C_11  and  N_12 
REMARK    5  A    between atoms: N_12  and  N_13 
REMARK    6  A    between atoms: C_14  and  C_15 
ROOT
HETATM    1  C   UNL     1      41.409 -15.094  -0.447  1.00  0.00     0.289 C 
HETATM    2  N   UNL     1      41.712 -13.877   0.147  1.00  0.00    -0.242 N 
HETATM    3  O   UNL     1      40.961 -15.219  -1.583  1.00  0.00    -0.264 OA
HETATM    4  H   UNL     1      42.062 -13.849   1.095  1.00  0.00     0.192 HD
ENDROOT
BRANCH   1   5
HETATM    5  C   UNL     1      41.664 -16.243   0.385  1.00  0.00     0.121 A 
HETATM    6  N   UNL     1      40.654 -17.076   0.775  1.00  0.00    -0.272 N 
HETATM    7  N   UNL     1      41.051 -18.108   1.533  1.00  0.00    -0.174 NA
HETATM    8  H   UNL     1      39.670 -16.985   0.541  1.00  0.00     0.189 HD
HETATM    9  C   UNL     1      42.378 -17.939   1.670  1.00  0.00     0.092 A 
HETATM   10  C   UNL     1      42.800 -16.787   0.948  1.00  0.00     0.071 A 
BRANCH   9  11
HETATM   11  C   UNL     1      43.198 -18.890   2.438  1.00  0.00     0.028 A 
HETATM   12  C   UNL     1      43.646 -18.631   3.752  1.00  0.00     0.081 A 
HETATM   13  C   UNL     1      44.447 -19.581   4.405  1.00  0.00     0.038 A 
HETATM   14  C   UNL     1      44.790 -20.781   3.777  1.00  0.00     0.003 A 
HETATM   15  C   UNL     1      44.338 -21.049   2.491  1.00  0.00     0.001 A 
HETATM   16  C   UNL     1      43.548 -20.110   1.829  1.00  0.00     0.017 A 
BRANCH  12  17
HETATM   17  O   UNL     1      43.268 -17.443   4.328  1.00  0.00    -0.351 OA
BRANCH  17  18
HETATM   18  C   UNL     1      42.222 -17.474   5.297  1.00  0.00     0.171 C 
HETATM   19  C   UNL     1      41.210 -16.406   4.919  1.00  0.00     0.034 C 
ENDBRANCH  17  18
ENDBRANCH  12  17
ENDBRANCH   9  11
ENDBRANCH   1   5
BRANCH   2  20
HETATM   20  N   UNL     1      41.548 -12.709  -0.544  1.00  0.00    -0.183 NA
HETATM   21  C   UNL     1      42.571 -11.917  -0.555  1.00  0.00     0.152 C 
BRANCH  21  22
HETATM   22  C   UNL     1      42.501 -10.661  -1.271  1.00  0.00     0.011 A 
HETATM   23  C   UNL     1      42.445 -10.472  -2.689  1.00  0.00     0.004 A 
HETATM   24  C   UNL     1      42.379  -9.096  -2.923  1.00  0.00     0.043 A 
HETATM   25  C   UNL     1      42.442 -11.340  -3.803  1.00  0.00     0.014 A 
HETATM   26  C   UNL     1      42.309  -8.546  -4.209  1.00  0.00     0.030 A 
HETATM   27  N   UNL     1      42.397  -8.474  -1.696  1.00  0.00    -0.364 N 
HETATM   28  C   UNL     1      42.307  -9.430  -5.292  1.00  0.00     0.002 A 
HETATM   29  C   UNL     1      42.373 -10.807  -5.095  1.00  0.00     0.001 A 
HETATM   30  H   UNL     1      42.360  -7.474  -1.558  1.00  0.00     0.165 HD
HETATM   31  C   UNL     1      42.471  -9.404  -0.697  1.00  0.00     0.102 A 
ENDBRANCH  21  22
ENDBRANCH   2  20
TORSDOF 6
ENDMDL
MODEL 8
REMARK VINA RESULT:      -8.0      7.221     11.599
REMARK  6 active torsions:
REMARK  status: ('A' for Active; 'I' for Inactive)
REMARK    1  A    between atoms: C_2  and  O_3 
REMARK    2  A    between atoms: O_3  and  C_4 
REMARK    3  A    between atoms: C_5  and  C_6 
REMARK    4  A    between atoms: C_10  and  C_11 
REMARK       I    between atoms: C_11  and  N_12 
REMARK    5  A    between atoms: N_12  and  N_13 
REMARK    6  A    between atoms: C_14  and  C_15 
ROOT
HETATM    1  C   UNL     1      40.656 -15.727   1.095  1.00  0.00     0.289 C 
HETATM    2  N   UNL     1      40.703 -15.110  -0.146  1.00  0.00    -0.242 N 
HETATM    3  O   UNL     1      39.844 -15.458   1.975  1.00  0.00    -0.264 OA
HETATM    4  H   UNL     1      41.412 -15.371  -0.817  1.00  0.00     0.192 HD
ENDROOT
BRANCH   1   5
HETATM    5  C   UNL     1      41.660 -16.743   1.293  1.00  0.00     0.121 A 
HETATM    6  N   UNL     1      42.828 -16.735   0.585  1.00  0.00    -0.272 N 
HETATM    7  N   UNL     1      43.667 -17.735   0.893  1.00  0.00    -0.174 NA
HETATM    8  H   UNL     1      43.105 -16.058  -0.120  1.00  0.00     0.189 HD
HETATM    9  C   UNL     1      43.017 -18.450   1.828  1.00  0.00     0.092 A 
HETATM   10  C   UNL     1      41.760 -17.846   2.117  1.00  0.00     0.071 A 
BRANCH   9  11
HETATM   11  C   UNL     1      43.622 -19.644   2.440  1.00  0.00     0.028 A 
HETATM   12  C   UNL     1      44.261 -19.621   3.699  1.00  0.00     0.081 A 
HETATM   13  C   UNL     1      44.836 -20.800   4.199  1.00  0.00     0.038 A 
HETATM   14  C   UNL     1      44.767 -21.993   3.476  1.00  0.00     0.003 A 
HETATM   15  C   UNL     1      44.123 -22.026   2.245  1.00  0.00     0.001 A 
HETATM   16  C   UNL     1      43.555 -20.859   1.733  1.00  0.00     0.017 A 
BRANCH  12  17
HETATM   17  O   UNL     1      44.287 -18.426   4.375  1.00  0.00    -0.351 OA
BRANCH  17  18
HETATM   18  C   UNL     1      43.795 -18.405   5.714  1.00  0.00     0.171 C 
HETATM   19  C   UNL     1      44.711 -17.508   6.529  1.00  0.00     0.034 C 
ENDBRANCH  17  18
ENDBRANCH  12  17
ENDBRANCH   9  11
ENDBRANCH   1   5
BRANCH   2  20
HETATM   20  N   UNL     1      39.786 -14.150  -0.477  1.00  0.00    -0.183 NA
HETATM   21  C   UNL     1      39.414 -14.136  -1.716  1.00  0.00     0.152 C 
BRANCH  21  22
HETATM   22  C   UNL     1      38.436 -13.166  -2.162  1.00  0.00     0.011 A 
HETATM   23  C   UNL     1      37.484 -12.459  -1.359  1.00  0.00     0.004 A 
HETATM   24  C   UNL     1      36.758 -11.625  -2.212  1.00  0.00     0.043 A 
HETATM   25  C   UNL     1      37.169 -12.446   0.018  1.00  0.00     0.014 A 
HETATM   26  C   UNL     1      35.736 -10.780  -1.760  1.00  0.00     0.030 A 
HETATM   27  N   UNL     1      37.246 -11.819  -3.483  1.00  0.00    -0.364 N 
HETATM   28  C   UNL     1      35.446 -10.788  -0.393  1.00  0.00     0.002 A 
HETATM   29  C   UNL     1      36.150 -11.607   0.485  1.00  0.00     0.001 A 
HETATM   30  H   UNL     1      36.907 -11.345  -4.308  1.00  0.00     0.165 HD
HETATM   31  C   UNL     1      38.254 -12.742  -3.465  1.00  0.00     0.102 A 
ENDBRANCH  21  22
ENDBRANCH   2  20
TORSDOF 6
ENDMDL
MODEL 9
REMARK VINA RESULT:      -7.9      2.607     10.467
REMARK  6 active torsions:
REMARK  status: ('A' for Active; 'I' for Inactive)
REMARK    1  A    between atoms: C_2  and  O_3 
REMARK    2  A    between atoms: O_3  and  C_4 
REMARK    3  A    between atoms: C_5  and  C_6 
REMARK    4  A    between atoms: C_10  and  C_11 
REMARK       I    between atoms: C_11  and  N_12 
REMARK    5  A    between atoms: N_12  and  N_13 
REMARK    6  A    between atoms: C_14  and  C_15 
ROOT
HETATM    1  C   UNL     1      41.419 -12.765   6.024  1.00  0.00     0.289 C 
HETATM    2  N   UNL     1      42.250 -11.952   6.781  1.00  0.00    -0.242 N 
HETATM    3  O   UNL     1      40.193 -12.746   6.076  1.00  0.00    -0.264 OA
HETATM    4  H   UNL     1      43.253 -12.035   6.699  1.00  0.00     0.192 HD
ENDROOT
BRANCH   1   5
HETATM    5  C   UNL     1      42.114 -13.667   5.140  1.00  0.00     0.121 A 
HETATM    6  N   UNL     1      43.093 -13.224   4.299  1.00  0.00    -0.272 N 
HETATM    7  N   UNL     1      43.656 -14.185   3.551  1.00  0.00    -0.174 NA
HETATM    8  H   UNL     1      43.423 -12.268   4.203  1.00  0.00     0.189 HD
HETATM    9  C   UNL     1      43.005 -15.310   3.896  1.00  0.00     0.092 A 
HETATM   10  C   UNL     1      42.040 -15.025   4.904  1.00  0.00     0.071 A 
BRANCH   9  11
HETATM   11  C   UNL     1      43.345 -16.609   3.294  1.00  0.00     0.028 A 
HETATM   12  C   UNL     1      43.667 -17.750   4.062  1.00  0.00     0.081 A 
HETATM   13  C   UNL     1      44.006 -18.944   3.407  1.00  0.00     0.038 A 
HETATM   14  C   UNL     1      44.010 -19.021   2.012  1.00  0.00     0.003 A 
HETATM   15  C   UNL     1      43.677 -17.907   1.252  1.00  0.00     0.001 A 
HETATM   16  C   UNL     1      43.346 -16.712   1.890  1.00  0.00     0.017 A 
BRANCH  12  17
HETATM   17  O   UNL     1      43.632 -17.625   5.428  1.00  0.00    -0.351 OA
BRANCH  17  18
HETATM   18  C   UNL     1      44.768 -18.066   6.169  1.00  0.00     0.171 C 
HETATM   19  C   UNL     1      44.278 -18.549   7.523  1.00  0.00     0.034 C 
ENDBRANCH  17  18
ENDBRANCH  12  17
ENDBRANCH   9  11
ENDBRANCH   1   5
BRANCH   2  20
HETATM   20  N   UNL     1      41.719 -11.027   7.638  1.00  0.00    -0.183 NA
HETATM   21  C   UNL     1      42.455 -10.724   8.659  1.00  0.00     0.152 C 
BRANCH  21  22
HETATM   22  C   UNL     1      41.988  -9.745   9.617  1.00  0.00     0.011 A 
HETATM   23  C   UNL     1      42.436  -9.566  10.965  1.00  0.00     0.004 A 
HETATM   24  C   UNL     1      41.712  -8.500  11.506  1.00  0.00     0.043 A 
HETATM   25  C   UNL     1      43.391 -10.208  11.782  1.00  0.00     0.014 A 
HETATM   26  C   UNL     1      41.895  -8.045  12.817  1.00  0.00     0.030 A 
HETATM   27  N   UNL     1      40.857  -8.051  10.527  1.00  0.00    -0.364 N 
HETATM   28  C   UNL     1      42.848  -8.699  13.603  1.00  0.00     0.002 A 
HETATM   29  C   UNL     1      43.586  -9.766  13.096  1.00  0.00     0.001 A 
HETATM   30  H   UNL     1      40.209  -7.284  10.636  1.00  0.00     0.165 HD
HETATM   31  C   UNL     1      41.014  -8.791   9.388  1.00  0.00     0.102 A 
ENDBRANCH  21  22
ENDBRANCH   2  20
TORSDOF 6
ENDMDL
MODEL 10
REMARK VINA RESULT:      -7.9      2.508      3.320
REMARK  6 active torsions:
REMARK  status: ('A' for Active; 'I' for Inactive)
REMARK    1  A    between atoms: C_2  and  O_3 
REMARK    2  A    between atoms: O_3  and  C_4 
REMARK    3  A    between atoms: C_5  and  C_6 
REMARK    4  A    between atoms: C_10  and  C_11 
REMARK       I    between atoms: C_11  and  N_12 
REMARK    5  A    between atoms: N_12  and  N_13 
REMARK    6  A    between atoms: C_14  and  C_15 
ROOT
HETATM    1  C   UNL     1      41.628 -12.032   6.059  1.00  0.00     0.289 C 
HETATM    2  N   UNL     1      42.549 -13.065   5.966  1.00  0.00    -0.242 N 
HETATM    3  O   UNL     1      40.945 -11.624   5.124  1.00  0.00    -0.264 OA
HETATM    4  H   UNL     1      43.090 -13.336   6.775  1.00  0.00     0.192 HD
ENDROOT
BRANCH   1   5
HETATM    5  C   UNL     1      41.521 -11.446   7.371  1.00  0.00     0.121 A 
HETATM    6  N   UNL     1      40.313 -11.315   7.995  1.00  0.00    -0.272 N 
HETATM    7  N   UNL     1      40.379 -10.766   9.217  1.00  0.00    -0.174 NA
HETATM    8  H   UNL     1      39.408 -11.596   7.629  1.00  0.00     0.189 HD
HETATM    9  C   UNL     1      41.684 -10.500   9.401  1.00  0.00     0.092 A 
HETATM   10  C   UNL     1      42.433 -10.929   8.269  1.00  0.00     0.071 A 
BRANCH   9  11
HETATM   11  C   UNL     1      42.176  -9.893  10.649  1.00  0.00     0.028 A 
HETATM   12  C   UNL     1      43.131 -10.517  11.481  1.00  0.00     0.081 A 
HETATM   13  C   UNL     1      43.527  -9.881  12.669  1.00  0.00     0.038 A 
HETATM   14  C   UNL     1      43.001  -8.637  13.025  1.00  0.00     0.003 A 
HETATM   15  C   UNL     1      42.074  -8.011  12.201  1.00  0.00     0.001 A 
HETATM   16  C   UNL     1      41.667  -8.636  11.022  1.00  0.00     0.017 A 
BRANCH  12  17
HETATM   17  O   UNL     1      43.628 -11.732  11.077  1.00  0.00    -0.351 OA
BRANCH  17  18
HETATM   18  C   UNL     1      45.044 -11.895  11.037  1.00  0.00     0.171 C 
HETATM   19  C   UNL     1      45.561 -11.150   9.818  1.00  0.00     0.034 C 
ENDBRANCH  17  18
ENDBRANCH  12  17
ENDBRANCH   9  11
ENDBRANCH   1   5
BRANCH   2  20
HETATM   20  N   UNL     1      42.727 -13.730   4.784  1.00  0.00    -0.183 NA
HETATM   21  C   UNL     1      42.832 -15.016   4.877  1.00  0.00     0.152 C 
BRANCH  21  22
HETATM   22  C   UNL     1      43.009 -15.811   3.680  1.00  0.00     0.011 A 
HETATM   23  C   UNL     1      43.449 -17.172   3.598  1.00  0.00     0.004 A 
HETATM   24  C   UNL     1      43.461 -17.523   2.246  1.00  0.00     0.043 A 
HETATM   25  C   UNL     1      43.839 -18.143   4.545  1.00  0.00     0.014 A 
HETATM   26  C   UNL     1      43.841 -18.794   1.795  1.00  0.00     0.030 A 
HETATM   27  N   UNL     1      43.048 -16.421   1.535  1.00  0.00    -0.364 N 
HETATM   28  C   UNL     1      44.221 -19.736   2.755  1.00  0.00     0.002 A 
HETATM   29  C   UNL     1      44.222 -19.418   4.111  1.00  0.00     0.001 A 
HETATM   30  H   UNL     1      42.960 -16.385   0.529  1.00  0.00     0.165 HD
HETATM   31  C   UNL     1      42.774 -15.387   2.386  1.00  0.00     0.102 A 
ENDBRANCH  21  22
ENDBRANCH   2  20
TORSDOF 6
ENDMDL
