MODEL 1
REMARK VINA RESULT:      -9.1      0.000      0.000
REMARK  3 active torsions:
REMARK  status: ('A' for Active; 'I' for Inactive)
REMARK    1  A    between atoms: C_4  and  N_5 
REMARK       I    between atoms: N_5  and  C_6 
REMARK    2  A    between atoms: C_6  and  C_7 
REMARK    3  A    between atoms: C_7  and  N_8 
ROOT
HETATM    1  N   UNL     1      43.502 -15.940   4.325  1.00  0.00    -0.224 N 
HETATM    2  N   UNL     1      43.391 -16.309   2.972  1.00  0.00    -0.180 NA
HETATM    3  C   UNL     1      43.580 -17.554   2.635  1.00  0.00     0.153 A 
HETATM    4  C   UNL     1      43.917 -18.547   3.617  1.00  0.00     0.028 A 
HETATM    5  C   UNL     1      44.037 -18.163   4.929  1.00  0.00     0.116 A 
HETATM    6  N   UNL     1      44.349 -19.260   5.676  1.00  0.00    -0.350 N 
HETATM    7  H   UNL     1      44.482 -19.256   6.679  1.00  0.00     0.166 HD
HETATM    8  C   UNL     1      44.447 -20.364   4.855  1.00  0.00     0.044 A 
HETATM    9  C   UNL     1      44.178 -19.940   3.547  1.00  0.00     0.005 A 
HETATM   10  C   UNL     1      44.748 -21.694   5.170  1.00  0.00     0.030 A 
HETATM   11  C   UNL     1      44.778 -22.617   4.121  1.00  0.00     0.002 A 
HETATM   12  C   UNL     1      44.517 -22.225   2.810  1.00  0.00     0.001 A 
HETATM   13  C   UNL     1      44.215 -20.892   2.509  1.00  0.00     0.014 A 
HETATM   14  C   UNL     1      43.847 -16.816   5.372  1.00  0.00     0.291 A 
HETATM   15  O   UNL     1      43.992 -16.472   6.542  1.00  0.00    -0.264 OA
ENDROOT
BRANCH   1  16
HETATM   16  C   UNL     1      43.233 -14.550   4.662  1.00  0.00     0.258 C 
BRANCH  16  17
HETATM   17  C   UNL     1      42.201 -13.938   3.700  1.00  0.00     0.244 C 
HETATM   18  N   UNL     1      40.842 -14.130   4.034  1.00  0.00    -0.320 N 
HETATM   19  C   UNL     1      40.430 -14.715   5.305  1.00  0.00     0.159 C 
HETATM   20  O   UNL     1      42.566 -13.282   2.719  1.00  0.00    -0.271 OA
BRANCH  18  21
HETATM   21  C   UNL     1      39.813 -13.803   3.079  1.00  0.00     0.043 A 
HETATM   22  C   UNL     1      39.249 -12.510   3.128  1.00  0.00     0.037 A 
HETATM   23  C   UNL     1      38.298 -12.074   2.196  1.00  0.00    -0.060 A 
HETATM   24  C   UNL     1      37.719 -10.693   2.279  1.00  0.00     0.048 C 
HETATM   25  C   UNL     1      37.911 -12.939   1.176  1.00  0.00     0.007 A 
HETATM   26  C   UNL     1      38.441 -14.227   1.114  1.00  0.00     0.009 A 
HETATM   27  C   UNL     1      39.372 -14.686   2.069  1.00  0.00    -0.035 A 
HETATM   28  C   UNL     1      39.788 -16.128   1.968  1.00  0.00     0.050 C 
ENDBRANCH  18  21
ENDBRANCH  16  17
ENDBRANCH   1  16
TORSDOF 3
ENDMDL
MODEL 2
REMARK VINA RESULT:      -9.1      3.559      8.061
REMARK  3 active torsions:
REMARK  status: ('A' for Active; 'I' for Inactive)
REMARK    1  A    between atoms: C_4  and  N_5 
REMARK       I    between atoms: N_5  and  C_6 
REMARK    2  A    between atoms: C_6  and  C_7 
REMARK    3  A    between atoms: C_7  and  N_8 
ROOT
HETATM    1  N   UNL     1      42.845 -14.016   5.235  1.00  0.00    -0.224 N 
HETATM    2  N   UNL     1      44.099 -14.496   5.656  1.00  0.00    -0.180 NA
HETATM    3  C   UNL     1      44.650 -13.985   6.721  1.00  0.00     0.153 A 
HETATM    4  C   UNL     1      44.008 -12.932   7.459  1.00  0.00     0.028 A 
HETATM    5  C   UNL     1      42.793 -12.467   7.021  1.00  0.00     0.116 A 
HETATM    6  N   UNL     1      42.372 -11.487   7.870  1.00  0.00    -0.350 N 
HETATM    7  H   UNL     1      41.498 -10.984   7.783  1.00  0.00     0.166 HD
HETATM    8  C   UNL     1      43.316 -11.297   8.859  1.00  0.00     0.044 A 
HETATM    9  C   UNL     1      44.360 -12.199   8.621  1.00  0.00     0.005 A 
HETATM   10  C   UNL     1      43.319 -10.404   9.937  1.00  0.00     0.030 A 
HETATM   11  C   UNL     1      44.422 -10.430  10.795  1.00  0.00     0.002 A 
HETATM   12  C   UNL     1      45.477 -11.314  10.583  1.00  0.00     0.001 A 
HETATM   13  C   UNL     1      45.460 -12.204   9.502  1.00  0.00     0.014 A 
HETATM   14  C   UNL     1      42.130 -12.977   5.860  1.00  0.00     0.291 A 
HETATM   15  O   UNL     1      41.060 -12.531   5.454  1.00  0.00    -0.264 OA
ENDROOT
BRANCH   1  16
HETATM   16  C   UNL     1      42.245 -14.650   4.070  1.00  0.00     0.258 C 
BRANCH  16  17
HETATM   17  C   UNL     1      43.008 -15.927   3.681  1.00  0.00     0.244 C 
HETATM   18  N   UNL     1      42.569 -17.127   4.282  1.00  0.00    -0.320 N 
HETATM   19  C   UNL     1      41.352 -17.195   5.085  1.00  0.00     0.159 C 
HETATM   20  O   UNL     1      43.925 -15.885   2.854  1.00  0.00    -0.271 OA
BRANCH  18  21
HETATM   21  C   UNL     1      43.363 -18.325   4.165  1.00  0.00     0.043 A 
HETATM   22  C   UNL     1      43.135 -19.167   3.056  1.00  0.00     0.037 A 
HETATM   23  C   UNL     1      43.906 -20.311   2.815  1.00  0.00    -0.060 A 
HETATM   24  C   UNL     1      43.635 -21.185   1.626  1.00  0.00     0.048 C 
HETATM   25  C   UNL     1      44.946 -20.616   3.689  1.00  0.00     0.007 A 
HETATM   26  C   UNL     1      45.184 -19.809   4.801  1.00  0.00     0.009 A 
HETATM   27  C   UNL     1      44.389 -18.676   5.070  1.00  0.00    -0.035 A 
HETATM   28  C   UNL     1      44.666 -17.947   6.357  1.00  0.00     0.050 C 
ENDBRANCH  18  21
ENDBRANCH  16  17
ENDBRANCH   1  16
TORSDOF 3
ENDMDL
MODEL 3
REMARK VINA RESULT:      -8.7      3.802      8.585
REMARK  3 active torsions:
REMARK  status: ('A' for Active; 'I' for Inactive)
REMARK    1  A    between atoms: C_4  and  N_5 
REMARK       I    between atoms: N_5  and  C_6 
REMARK    2  A    between atoms: C_6  and  C_7 
REMARK    3  A    between atoms: C_7  and  N_8 
ROOT
HETATM    1  N   UNL     1      41.822 -14.374   1.330  1.00  0.00    -0.224 N 
HETATM    2  N   UNL     1      41.461 -15.129   0.198  1.00  0.00    -0.180 NA
HETATM    3  C   UNL     1      41.504 -14.570  -0.978  1.00  0.00     0.153 A 
HETATM    4  C   UNL     1      41.894 -13.196  -1.135  1.00  0.00     0.028 A 
HETATM    5  C   UNL     1      42.224 -12.473  -0.017  1.00  0.00     0.116 A 
HETATM    6  N   UNL     1      42.567 -11.211  -0.402  1.00  0.00    -0.350 N 
HETATM    7  H   UNL     1      42.866 -10.477   0.227  1.00  0.00     0.166 HD
HETATM    8  C   UNL     1      42.450 -11.099  -1.772  1.00  0.00     0.044 A 
HETATM    9  C   UNL     1      42.025 -12.341  -2.259  1.00  0.00     0.005 A 
HETATM   10  C   UNL     1      42.689 -10.001  -2.607  1.00  0.00     0.030 A 
HETATM   11  C   UNL     1      42.485 -10.175  -3.978  1.00  0.00     0.002 A 
HETATM   12  C   UNL     1      42.061 -11.398  -4.493  1.00  0.00     0.001 A 
HETATM   13  C   UNL     1      41.828 -12.489  -3.647  1.00  0.00     0.014 A 
HETATM   14  C   UNL     1      42.198 -13.018   1.306  1.00  0.00     0.291 A 
HETATM   15  O   UNL     1      42.461 -12.355   2.306  1.00  0.00    -0.264 OA
ENDROOT
BRANCH   1  16
HETATM   16  C   UNL     1      41.808 -15.054   2.617  1.00  0.00     0.258 C 
BRANCH  16  17
HETATM   17  C   UNL     1      42.734 -16.282   2.605  1.00  0.00     0.244 C 
HETATM   18  N   UNL     1      42.258 -17.432   3.271  1.00  0.00    -0.320 N 
HETATM   19  C   UNL     1      40.897 -17.523   3.789  1.00  0.00     0.159 C 
HETATM   20  O   UNL     1      43.811 -16.251   2.001  1.00  0.00    -0.271 OA
BRANCH  18  21
HETATM   21  C   UNL     1      43.146 -18.542   3.516  1.00  0.00     0.043 A 
HETATM   22  C   UNL     1      43.182 -19.583   2.565  1.00  0.00     0.037 A 
HETATM   23  C   UNL     1      44.066 -20.665   2.675  1.00  0.00    -0.060 A 
HETATM   24  C   UNL     1      44.077 -21.757   1.646  1.00  0.00     0.048 C 
HETATM   25  C   UNL     1      44.951 -20.703   3.750  1.00  0.00     0.007 A 
HETATM   26  C   UNL     1      44.925 -19.694   4.711  1.00  0.00     0.009 A 
HETATM   27  C   UNL     1      44.015 -18.620   4.627  1.00  0.00    -0.035 A 
HETATM   28  C   UNL     1      44.001 -17.654   5.779  1.00  0.00     0.050 C 
ENDBRANCH  18  21
ENDBRANCH  16  17
ENDBRANCH   1  16
TORSDOF 3
ENDMDL
MODEL 4
REMARK VINA RESULT:      -8.7      3.280      3.528
REMARK  3 active torsions:
REMARK  status: ('A' for Active; 'I' for Inactive)
REMARK    1  A    between atoms: C_4  and  N_5 
REMARK       I    between atoms: N_5  and  C_6 
REMARK    2  A    between atoms: C_6  and  C_7 
REMARK    3  A    between atoms: C_7  and  N_8 
ROOT
HETATM    1  N   UNL     1      41.641 -15.697   2.729  1.00  0.00    -0.224 N 
HETATM    2  N   UNL     1      41.337 -16.445   1.577  1.00  0.00    -0.180 NA
HETATM    3  C   UNL     1      41.816 -17.651   1.456  1.00  0.00     0.153 A 
HETATM    4  C   UNL     1      42.662 -18.220   2.469  1.00  0.00     0.028 A 
HETATM    5  C   UNL     1      42.960 -17.467   3.577  1.00  0.00     0.116 A 
HETATM    6  N   UNL     1      43.760 -18.204   4.400  1.00  0.00    -0.350 N 
HETATM    7  H   UNL     1      44.115 -17.889   5.294  1.00  0.00     0.166 HD
HETATM    8  C   UNL     1      43.999 -19.436   3.828  1.00  0.00     0.044 A 
HETATM    9  C   UNL     1      43.316 -19.471   2.605  1.00  0.00     0.005 A 
HETATM   10  C   UNL     1      44.760 -20.512   4.299  1.00  0.00     0.030 A 
HETATM   11  C   UNL     1      44.828 -21.656   3.498  1.00  0.00     0.002 A 
HETATM   12  C   UNL     1      44.162 -21.720   2.277  1.00  0.00     0.001 A 
HETATM   13  C   UNL     1      43.401 -20.637   1.819  1.00  0.00     0.014 A 
HETATM   14  C   UNL     1      42.473 -16.136   3.776  1.00  0.00     0.291 A 
HETATM   15  O   UNL     1      42.773 -15.456   4.754  1.00  0.00    -0.264 OA
ENDROOT
BRANCH   1  16
HETATM   16  C   UNL     1      41.043 -14.375   2.844  1.00  0.00     0.258 C 
BRANCH  16  17
HETATM   17  C   UNL     1      41.829 -13.339   2.025  1.00  0.00     0.244 C 
HETATM   18  N   UNL     1      41.102 -12.637   1.038  1.00  0.00    -0.320 N 
HETATM   19  C   UNL     1      39.652 -12.749   0.915  1.00  0.00     0.159 C 
HETATM   20  O   UNL     1      43.021 -13.121   2.264  1.00  0.00    -0.271 OA
BRANCH  18  21
HETATM   21  C   UNL     1      41.798 -11.827   0.070  1.00  0.00     0.043 A 
HETATM   22  C   UNL     1      42.128 -10.503   0.428  1.00  0.00     0.037 A 
HETATM   23  C   UNL     1      42.869  -9.664  -0.414  1.00  0.00    -0.060 A 
HETATM   24  C   UNL     1      43.202  -8.260  -0.002  1.00  0.00     0.048 C 
HETATM   25  C   UNL     1      43.311 -10.160  -1.638  1.00  0.00     0.007 A 
HETATM   26  C   UNL     1      42.985 -11.460  -2.022  1.00  0.00     0.009 A 
HETATM   27  C   UNL     1      42.210 -12.299  -1.196  1.00  0.00    -0.035 A 
HETATM   28  C   UNL     1      41.826 -13.639  -1.763  1.00  0.00     0.050 C 
ENDBRANCH  18  21
ENDBRANCH  16  17
ENDBRANCH   1  16
TORSDOF 3
ENDMDL
MODEL 5
REMARK VINA RESULT:      -8.6      2.750      8.384
REMARK  3 active torsions:
REMARK  status: ('A' for Active; 'I' for Inactive)
REMARK    1  A    between atoms: C_4  and  N_5 
REMARK       I    between atoms: N_5  and  C_6 
REMARK    2  A    between atoms: C_6  and  C_7 
REMARK    3  A    between atoms: C_7  and  N_8 
ROOT
HETATM    1  N   UNL     1      41.663 -14.342   2.228  1.00  0.00    -0.224 N 
HETATM    2  N   UNL     1      42.423 -13.273   1.718  1.00  0.00    -0.180 NA
HETATM    3  C   UNL     1      42.031 -12.677   0.627  1.00  0.00     0.153 A 
HETATM    4  C   UNL     1      40.849 -13.105  -0.070  1.00  0.00     0.028 A 
HETATM    5  C   UNL     1      40.133 -14.160   0.435  1.00  0.00     0.116 A 
HETATM    6  N   UNL     1      39.058 -14.382  -0.376  1.00  0.00    -0.350 N 
HETATM    7  H   UNL     1      38.358 -15.097  -0.223  1.00  0.00     0.166 HD
HETATM    8  C   UNL     1      39.075 -13.482  -1.421  1.00  0.00     0.044 A 
HETATM    9  C   UNL     1      40.199 -12.663  -1.250  1.00  0.00     0.005 A 
HETATM   10  C   UNL     1      38.187 -13.333  -2.492  1.00  0.00     0.030 A 
HETATM   11  C   UNL     1      38.454 -12.320  -3.417  1.00  0.00     0.002 A 
HETATM   12  C   UNL     1      39.564 -11.491  -3.276  1.00  0.00     0.001 A 
HETATM   13  C   UNL     1      40.444 -11.650  -2.199  1.00  0.00     0.014 A 
HETATM   14  C   UNL     1      40.503 -14.864   1.624  1.00  0.00     0.291 A 
HETATM   15  O   UNL     1      39.876 -15.830   2.050  1.00  0.00    -0.264 OA
ENDROOT
BRANCH   1  16
HETATM   16  C   UNL     1      42.111 -14.944   3.475  1.00  0.00     0.258 C 
BRANCH  16  17
HETATM   17  C   UNL     1      42.928 -16.220   3.212  1.00  0.00     0.244 C 
HETATM   18  N   UNL     1      42.518 -17.380   3.905  1.00  0.00    -0.320 N 
HETATM   19  C   UNL     1      41.287 -17.424   4.687  1.00  0.00     0.159 C 
HETATM   20  O   UNL     1      43.860 -16.214   2.402  1.00  0.00    -0.271 OA
BRANCH  18  21
HETATM   21  C   UNL     1      43.358 -18.552   3.906  1.00  0.00     0.043 A 
HETATM   22  C   UNL     1      43.207 -19.477   2.851  1.00  0.00     0.037 A 
HETATM   23  C   UNL     1      44.027 -20.606   2.725  1.00  0.00    -0.060 A 
HETATM   24  C   UNL     1      43.839 -21.570   1.591  1.00  0.00     0.048 C 
HETATM   25  C   UNL     1      45.037 -20.811   3.661  1.00  0.00     0.007 A 
HETATM   26  C   UNL     1      45.198 -19.920   4.722  1.00  0.00     0.009 A 
HETATM   27  C   UNL     1      44.354 -18.801   4.876  1.00  0.00    -0.035 A 
HETATM   28  C   UNL     1      44.548 -17.975   6.119  1.00  0.00     0.050 C 
ENDBRANCH  18  21
ENDBRANCH  16  17
ENDBRANCH   1  16
TORSDOF 3
ENDMDL
MODEL 6
REMARK VINA RESULT:      -8.6      3.418      8.134
REMARK  3 active torsions:
REMARK  status: ('A' for Active; 'I' for Inactive)
REMARK    1  A    between atoms: C_4  and  N_5 
REMARK       I    between atoms: N_5  and  C_6 
REMARK    2  A    between atoms: C_6  and  C_7 
REMARK    3  A    between atoms: C_7  and  N_8 
ROOT
HETATM    1  N   UNL     1      41.151 -14.332   2.328  1.00  0.00    -0.224 N 
HETATM    2  N   UNL     1      40.951 -15.075   1.150  1.00  0.00    -0.180 NA
HETATM    3  C   UNL     1      41.223 -14.526  -0.001  1.00  0.00     0.153 A 
HETATM    4  C   UNL     1      41.704 -13.174  -0.085  1.00  0.00     0.028 A 
HETATM    5  C   UNL     1      41.875 -12.463   1.076  1.00  0.00     0.116 A 
HETATM    6  N   UNL     1      42.344 -11.222   0.759  1.00  0.00    -0.350 N 
HETATM    7  H   UNL     1      42.568 -10.500   1.432  1.00  0.00     0.166 HD
HETATM    8  C   UNL     1      42.468 -11.112  -0.611  1.00  0.00     0.044 A 
HETATM    9  C   UNL     1      42.070 -12.334  -1.168  1.00  0.00     0.005 A 
HETATM   10  C   UNL     1      42.903 -10.033  -1.390  1.00  0.00     0.030 A 
HETATM   11  C   UNL     1      42.928 -10.205  -2.776  1.00  0.00     0.002 A 
HETATM   12  C   UNL     1      42.536 -11.407  -3.360  1.00  0.00     0.001 A 
HETATM   13  C   UNL     1      42.106 -12.480  -2.569  1.00  0.00     0.014 A 
HETATM   14  C   UNL     1      41.595 -12.997   2.373  1.00  0.00     0.291 A 
HETATM   15  O   UNL     1      41.717 -12.343   3.405  1.00  0.00    -0.264 OA
ENDROOT
BRANCH   1  16
HETATM   16  C   UNL     1      40.882 -15.003   3.592  1.00  0.00     0.258 C 
BRANCH  16  17
HETATM   17  C   UNL     1      41.440 -16.436   3.588  1.00  0.00     0.244 C 
HETATM   18  N   UNL     1      42.781 -16.587   4.003  1.00  0.00    -0.320 N 
HETATM   19  C   UNL     1      43.547 -15.484   4.575  1.00  0.00     0.159 C 
HETATM   20  O   UNL     1      40.721 -17.390   3.275  1.00  0.00    -0.271 OA
BRANCH  18  21
HETATM   21  C   UNL     1      43.458 -17.845   3.807  1.00  0.00     0.043 A 
HETATM   22  C   UNL     1      43.589 -18.707   4.917  1.00  0.00     0.037 A 
HETATM   23  C   UNL     1      44.163 -19.980   4.810  1.00  0.00    -0.060 A 
HETATM   24  C   UNL     1      44.287 -20.871   6.010  1.00  0.00     0.048 C 
HETATM   25  C   UNL     1      44.600 -20.417   3.562  1.00  0.00     0.007 A 
HETATM   26  C   UNL     1      44.497 -19.580   2.453  1.00  0.00     0.009 A 
HETATM   27  C   UNL     1      43.953 -18.283   2.559  1.00  0.00    -0.035 A 
HETATM   28  C   UNL     1      43.996 -17.429   1.321  1.00  0.00     0.050 C 
ENDBRANCH  18  21
ENDBRANCH  16  17
ENDBRANCH   1  16
TORSDOF 3
ENDMDL
MODEL 7
REMARK VINA RESULT:      -8.5      2.832      3.498
REMARK  3 active torsions:
REMARK  status: ('A' for Active; 'I' for Inactive)
REMARK    1  A    between atoms: C_4  and  N_5 
REMARK       I    between atoms: N_5  and  C_6 
REMARK    2  A    between atoms: C_6  and  C_7 
REMARK    3  A    between atoms: C_7  and  N_8 
ROOT
HETATM    1  N   UNL     1      42.610 -15.687   1.793  1.00  0.00    -0.224 N 
HETATM    2  N   UNL     1      42.818 -16.640   0.779  1.00  0.00    -0.180 NA
HETATM    3  C   UNL     1      43.248 -17.828   1.102  1.00  0.00     0.153 A 
HETATM    4  C   UNL     1      43.529 -18.171   2.468  1.00  0.00     0.028 A 
HETATM    5  C   UNL     1      43.335 -17.221   3.439  1.00  0.00     0.116 A 
HETATM    6  N   UNL     1      43.652 -17.766   4.649  1.00  0.00    -0.350 N 
HETATM    7  H   UNL     1      43.585 -17.281   5.535  1.00  0.00     0.166 HD
HETATM    8  C   UNL     1      44.067 -19.069   4.473  1.00  0.00     0.044 A 
HETATM    9  C   UNL     1      43.998 -19.350   3.102  1.00  0.00     0.005 A 
HETATM   10  C   UNL     1      44.491 -20.012   5.417  1.00  0.00     0.030 A 
HETATM   11  C   UNL     1      44.858 -21.276   4.947  1.00  0.00     0.002 A 
HETATM   12  C   UNL     1      44.803 -21.585   3.591  1.00  0.00     0.001 A 
HETATM   13  C   UNL     1      44.374 -20.633   2.657  1.00  0.00     0.014 A 
HETATM   14  C   UNL     1      42.869 -15.897   3.160  1.00  0.00     0.291 A 
HETATM   15  O   UNL     1      42.732 -15.041   4.030  1.00  0.00    -0.264 OA
ENDROOT
BRANCH   1  16
HETATM   16  C   UNL     1      42.081 -14.391   1.392  1.00  0.00     0.258 C 
BRANCH  16  17
HETATM   17  C   UNL     1      40.859 -14.552   0.473  1.00  0.00     0.244 C 
HETATM   18  N   UNL     1      40.936 -13.924  -0.789  1.00  0.00    -0.320 N 
HETATM   19  C   UNL     1      42.166 -13.308  -1.276  1.00  0.00     0.159 C 
HETATM   20  O   UNL     1      39.892 -15.235   0.826  1.00  0.00    -0.271 OA
BRANCH  18  21
HETATM   21  C   UNL     1      39.760 -13.819  -1.615  1.00  0.00     0.043 A 
HETATM   22  C   UNL     1      38.842 -12.784  -1.336  1.00  0.00     0.037 A 
HETATM   23  C   UNL     1      37.710 -12.556  -2.128  1.00  0.00    -0.060 A 
HETATM   24  C   UNL     1      36.754 -11.447  -1.801  1.00  0.00     0.048 C 
HETATM   25  C   UNL     1      37.493 -13.364  -3.240  1.00  0.00     0.007 A 
HETATM   26  C   UNL     1      38.376 -14.403  -3.530  1.00  0.00     0.009 A 
HETATM   27  C   UNL     1      39.499 -14.663  -2.718  1.00  0.00    -0.035 A 
HETATM   28  C   UNL     1      40.316 -15.878  -3.062  1.00  0.00     0.050 C 
ENDBRANCH  18  21
ENDBRANCH  16  17
ENDBRANCH   1  16
TORSDOF 3
ENDMDL
MODEL 8
REMARK VINA RESULT:      -8.5      1.432      2.240
REMARK  3 active torsions:
REMARK  status: ('A' for Active; 'I' for Inactive)
REMARK    1  A    between atoms: C_4  and  N_5 
REMARK       I    between atoms: N_5  and  C_6 
REMARK    2  A    between atoms: C_6  and  C_7 
REMARK    3  A    between atoms: C_7  and  N_8 
ROOT
HETATM    1  N   UNL     1      43.313 -16.051   4.049  1.00  0.00    -0.224 N 
HETATM    2  N   UNL     1      43.373 -16.500   2.716  1.00  0.00    -0.180 NA
HETATM    3  C   UNL     1      43.643 -17.753   2.479  1.00  0.00     0.153 A 
HETATM    4  C   UNL     1      43.897 -18.675   3.552  1.00  0.00     0.028 A 
HETATM    5  C   UNL     1      43.850 -18.212   4.843  1.00  0.00     0.116 A 
HETATM    6  N   UNL     1      44.110 -19.252   5.686  1.00  0.00    -0.350 N 
HETATM    7  H   UNL     1      44.125 -19.187   6.696  1.00  0.00     0.166 HD
HETATM    8  C   UNL     1      44.342 -20.396   4.950  1.00  0.00     0.044 A 
HETATM    9  C   UNL     1      44.213 -20.057   3.597  1.00  0.00     0.005 A 
HETATM   10  C   UNL     1      44.650 -21.692   5.378  1.00  0.00     0.030 A 
HETATM   11  C   UNL     1      44.835 -22.670   4.397  1.00  0.00     0.002 A 
HETATM   12  C   UNL     1      44.715 -22.364   3.044  1.00  0.00     0.001 A 
HETATM   13  C   UNL     1      44.404 -21.063   2.629  1.00  0.00     0.014 A 
HETATM   14  C   UNL     1      43.563 -16.851   5.179  1.00  0.00     0.291 A 
HETATM   15  O   UNL     1      43.558 -16.437   6.335  1.00  0.00    -0.264 OA
ENDROOT
BRANCH   1  16
HETATM   16  C   UNL     1      42.958 -14.657   4.267  1.00  0.00     0.258 C 
BRANCH  16  17
HETATM   17  C   UNL     1      42.402 -14.019   2.983  1.00  0.00     0.244 C 
HETATM   18  N   UNL     1      41.070 -14.344   2.648  1.00  0.00    -0.320 N 
HETATM   19  C   UNL     1      40.202 -15.093   3.551  1.00  0.00     0.159 C 
HETATM   20  O   UNL     1      43.091 -13.236   2.320  1.00  0.00    -0.271 OA
BRANCH  18  21
HETATM   21  C   UNL     1      40.546 -13.990   1.352  1.00  0.00     0.043 A 
HETATM   22  C   UNL     1      40.923 -14.779   0.245  1.00  0.00     0.037 A 
HETATM   23  C   UNL     1      40.407 -14.561  -1.039  1.00  0.00    -0.060 A 
HETATM   24  C   UNL     1      40.831 -15.419  -2.194  1.00  0.00     0.048 C 
HETATM   25  C   UNL     1      39.476 -13.542  -1.224  1.00  0.00     0.007 A 
HETATM   26  C   UNL     1      39.098 -12.738  -0.151  1.00  0.00     0.009 A 
HETATM   27  C   UNL     1      39.639 -12.928   1.137  1.00  0.00    -0.035 A 
HETATM   28  C   UNL     1      39.243 -11.930   2.191  1.00  0.00     0.050 C 
ENDBRANCH  18  21
ENDBRANCH  16  17
ENDBRANCH   1  16
TORSDOF 3
ENDMDL
MODEL 9
REMARK VINA RESULT:      -8.4      2.479      3.419
REMARK  3 active torsions:
REMARK  status: ('A' for Active; 'I' for Inactive)
REMARK    1  A    between atoms: C_4  and  N_5 
REMARK       I    between atoms: N_5  and  C_6 
REMARK    2  A    between atoms: C_6  and  C_7 
REMARK    3  A    between atoms: C_7  and  N_8 
ROOT
HETATM    1  N   UNL     1      41.912 -15.703   2.580  1.00  0.00    -0.224 N 
HETATM    2  N   UNL     1      41.536 -16.479   1.467  1.00  0.00    -0.180 NA
HETATM    3  C   UNL     1      41.955 -17.710   1.379  1.00  0.00     0.153 A 
HETATM    4  C   UNL     1      42.806 -18.279   2.387  1.00  0.00     0.028 A 
HETATM    5  C   UNL     1      43.175 -17.500   3.455  1.00  0.00     0.116 A 
HETATM    6  N   UNL     1      43.967 -18.243   4.281  1.00  0.00    -0.350 N 
HETATM    7  H   UNL     1      44.365 -17.911   5.150  1.00  0.00     0.166 HD
HETATM    8  C   UNL     1      44.130 -19.505   3.750  1.00  0.00     0.044 A 
HETATM    9  C   UNL     1      43.406 -19.554   2.552  1.00  0.00     0.005 A 
HETATM   10  C   UNL     1      44.856 -20.598   4.239  1.00  0.00     0.030 A 
HETATM   11  C   UNL     1      44.845 -21.773   3.481  1.00  0.00     0.002 A 
HETATM   12  C   UNL     1      44.136 -21.851   2.285  1.00  0.00     0.001 A 
HETATM   13  C   UNL     1      43.412 -20.751   1.809  1.00  0.00     0.014 A 
HETATM   14  C   UNL     1      42.757 -16.141   3.617  1.00  0.00     0.291 A 
HETATM   15  O   UNL     1      43.119 -15.440   4.557  1.00  0.00    -0.264 OA
ENDROOT
BRANCH   1  16
HETATM   16  C   UNL     1      41.379 -14.351   2.661  1.00  0.00     0.258 C 
BRANCH  16  17
HETATM   17  C   UNL     1      41.175 -13.751   1.260  1.00  0.00     0.244 C 
HETATM   18  N   UNL     1      39.854 -13.755   0.763  1.00  0.00    -0.320 N 
HETATM   19  C   UNL     1      38.713 -14.137   1.590  1.00  0.00     0.159 C 
HETATM   20  O   UNL     1      42.125 -13.261   0.641  1.00  0.00    -0.271 OA
BRANCH  18  21
HETATM   21  C   UNL     1      39.603 -13.436  -0.621  1.00  0.00     0.043 A 
HETATM   22  C   UNL     1      39.647 -14.486  -1.562  1.00  0.00     0.037 A 
HETATM   23  C   UNL     1      39.344 -14.289  -2.916  1.00  0.00    -0.060 A 
HETATM   24  C   UNL     1      39.402 -15.428  -3.890  1.00  0.00     0.048 C 
HETATM   25  C   UNL     1      38.968 -13.018  -3.342  1.00  0.00     0.007 A 
HETATM   26  C   UNL     1      38.931 -11.960  -2.435  1.00  0.00     0.009 A 
HETATM   27  C   UNL     1      39.269 -12.142  -1.078  1.00  0.00    -0.035 A 
HETATM   28  C   UNL     1      39.304 -10.908  -0.219  1.00  0.00     0.050 C 
ENDBRANCH  18  21
ENDBRANCH  16  17
ENDBRANCH   1  16
TORSDOF 3
ENDMDL
MODEL 10
REMARK VINA RESULT:      -8.4      2.873      3.459
REMARK  3 active torsions:
REMARK  status: ('A' for Active; 'I' for Inactive)
REMARK    1  A    between atoms: C_4  and  N_5 
REMARK       I    between atoms: N_5  and  C_6 
REMARK    2  A    between atoms: C_6  and  C_7 
REMARK    3  A    between atoms: C_7  and  N_8 
ROOT
HETATM    1  N   UNL     1      41.734 -15.800   3.185  1.00  0.00    -0.224 N 
HETATM    2  N   UNL     1      41.288 -16.458   2.024  1.00  0.00    -0.180 NA
HETATM    3  C   UNL     1      41.723 -17.659   1.766  1.00  0.00     0.153 A 
HETATM    4  C   UNL     1      42.662 -18.312   2.636  1.00  0.00     0.028 A 
HETATM    5  C   UNL     1      43.097 -17.646   3.754  1.00  0.00     0.116 A 
HETATM    6  N   UNL     1      43.965 -18.453   4.429  1.00  0.00    -0.350 N 
HETATM    7  H   UNL     1      44.423 -18.209   5.298  1.00  0.00     0.166 HD
HETATM    8  C   UNL     1      44.112 -19.644   3.748  1.00  0.00     0.044 A 
HETATM    9  C   UNL     1      43.298 -19.580   2.610  1.00  0.00     0.005 A 
HETATM   10  C   UNL     1      44.895 -20.763   4.055  1.00  0.00     0.030 A 
HETATM   11  C   UNL     1      44.849 -21.846   3.173  1.00  0.00     0.002 A 
HETATM   12  C   UNL     1      44.051 -21.811   2.032  1.00  0.00     0.001 A 
HETATM   13  C   UNL     1      43.270 -20.686   1.739  1.00  0.00     0.014 A 
HETATM   14  C   UNL     1      42.665 -16.327   4.100  1.00  0.00     0.291 A 
HETATM   15  O   UNL     1      43.086 -15.724   5.084  1.00  0.00    -0.264 OA
ENDROOT
BRANCH   1  16
HETATM   16  C   UNL     1      41.182 -14.481   3.459  1.00  0.00     0.258 C 
BRANCH  16  17
HETATM   17  C   UNL     1      41.768 -13.427   2.505  1.00  0.00     0.244 C 
HETATM   18  N   UNL     1      40.869 -12.846   1.585  1.00  0.00    -0.320 N 
HETATM   19  C   UNL     1      39.431 -13.088   1.644  1.00  0.00     0.159 C 
HETATM   20  O   UNL     1      42.955 -13.095   2.588  1.00  0.00    -0.271 OA
BRANCH  18  21
HETATM   21  C   UNL     1      41.369 -12.033   0.504  1.00  0.00     0.043 A 
HETATM   22  C   UNL     1      41.856 -12.686  -0.648  1.00  0.00     0.037 A 
HETATM   23  C   UNL     1      42.292 -11.982  -1.778  1.00  0.00    -0.060 A 
HETATM   24  C   UNL     1      42.804 -12.709  -2.986  1.00  0.00     0.048 C 
HETATM   25  C   UNL     1      42.224 -10.592  -1.771  1.00  0.00     0.007 A 
HETATM   26  C   UNL     1      41.762  -9.921  -0.640  1.00  0.00     0.009 A 
HETATM   27  C   UNL     1      41.355 -10.620   0.515  1.00  0.00    -0.035 A 
HETATM   28  C   UNL     1      40.983  -9.789   1.713  1.00  0.00     0.050 C 
ENDBRANCH  18  21
ENDBRANCH  16  17
ENDBRANCH   1  16
TORSDOF 3
ENDMDL
