MODEL 1
REMARK VINA RESULT:      -7.2      0.000      0.000
REMARK  3 active torsions:
REMARK  status: ('A' for Active; 'I' for Inactive)
REMARK       I    between atoms: C_2  and  N_3 
REMARK    1  A    between atoms: N_3  and  C_4 
REMARK    2  A    between atoms: C_7  and  C_8 
REMARK       I    between atoms: C_8  and  N_9 
REMARK    3  A    between atoms: N_9  and  C_10 
ROOT
HETATM    1  C   UNL     1      44.136 -10.824  10.656  1.00  0.00     0.034 A 
HETATM    2  C   UNL     1      43.254 -10.832   9.573  1.00  0.00     0.030 A 
HETATM    3  C   UNL     1      43.433 -11.726   8.507  1.00  0.00     0.019 A 
HETATM    4  C   UNL     1      44.492 -12.640   8.519  1.00  0.00     0.032 A 
HETATM    5  C   UNL     1      45.390 -12.615   9.594  1.00  0.00     0.019 A 
HETATM    6  C   UNL     1      45.214 -11.716  10.650  1.00  0.00     0.030 A 
ENDROOT
BRANCH   4   7
HETATM    7  C   UNL     1      44.731 -13.645   7.433  1.00  0.00     0.257 C 
HETATM    8  N   UNL     1      43.729 -14.579   7.246  1.00  0.00    -0.307 N 
HETATM    9  H   UNL     1      42.913 -14.540   7.832  1.00  0.00     0.170 HD
HETATM   10  O   UNL     1      45.790 -13.573   6.820  1.00  0.00    -0.267 OA
BRANCH   8  11
HETATM   11  C   UNL     1      43.781 -15.650   6.340  1.00  0.00     0.130 A 
HETATM   12  N   UNL     1      43.261 -15.540   5.104  1.00  0.00    -0.242 NA
HETATM   13  C   UNL     1      43.370 -16.599   4.267  1.00  0.00     0.142 A 
HETATM   14  C   UNL     1      43.978 -17.792   4.615  1.00  0.00     0.051 A 
HETATM   15 CL   UNL     1      44.083 -19.093   3.504  1.00  0.00    -0.083 Cl
HETATM   16  C   UNL     1      44.505 -17.904   5.893  1.00  0.00     0.029 A 
HETATM   17  C   UNL     1      44.410 -16.818   6.766  1.00  0.00     0.052 A 
ENDBRANCH   8  11
ENDBRANCH   4   7
BRANCH   1  18
HETATM   18  N   UNL     1      44.017  -9.965  11.767  1.00  0.00    -0.328 N 
HETATM   19  C   UNL     1      43.258 -10.163  12.906  1.00  0.00     0.218 C 
HETATM   20  C   UNL     1      43.378  -9.031  13.896  1.00  0.00     0.117 C 
HETATM   21  O   UNL     1      42.563 -11.140  13.164  1.00  0.00    -0.274 OA
HETATM   22  H   UNL     1      44.571  -9.120  11.730  1.00  0.00     0.169 HD
ENDBRANCH   1  18
TORSDOF 3
ENDMDL
MODEL 2
REMARK VINA RESULT:      -6.9      8.645     10.485
REMARK  3 active torsions:
REMARK  status: ('A' for Active; 'I' for Inactive)
REMARK       I    between atoms: C_2  and  N_3 
REMARK    1  A    between atoms: N_3  and  C_4 
REMARK    2  A    between atoms: C_7  and  C_8 
REMARK       I    between atoms: C_8  and  N_9 
REMARK    3  A    between atoms: N_9  and  C_10 
ROOT
HETATM    1  C   UNL     1      43.759 -19.313   3.370  1.00  0.00     0.034 A 
HETATM    2  C   UNL     1      44.124 -19.068   2.045  1.00  0.00     0.030 A 
HETATM    3  C   UNL     1      43.433 -18.124   1.272  1.00  0.00     0.019 A 
HETATM    4  C   UNL     1      42.373 -17.396   1.823  1.00  0.00     0.032 A 
HETATM    5  C   UNL     1      41.992 -17.660   3.145  1.00  0.00     0.019 A 
HETATM    6  C   UNL     1      42.678 -18.609   3.910  1.00  0.00     0.030 A 
ENDROOT
BRANCH   4   7
HETATM    7  C   UNL     1      41.607 -16.350   1.071  1.00  0.00     0.257 C 
HETATM    8  N   UNL     1      42.035 -16.102  -0.219  1.00  0.00    -0.307 N 
HETATM    9  H   UNL     1      42.819 -16.619  -0.579  1.00  0.00     0.170 HD
HETATM   10  O   UNL     1      40.689 -15.791   1.659  1.00  0.00    -0.267 OA
BRANCH   8  11
HETATM   11  C   UNL     1      41.512 -15.115  -1.069  1.00  0.00     0.130 A 
HETATM   12  N   UNL     1      41.637 -13.808  -0.777  1.00  0.00    -0.242 NA
HETATM   13  C   UNL     1      41.137 -12.905  -1.653  1.00  0.00     0.142 A 
HETATM   14  C   UNL     1      40.498 -13.251  -2.830  1.00  0.00     0.051 A 
HETATM   15 CL   UNL     1      39.890 -12.055  -3.897  1.00  0.00    -0.083 Cl
HETATM   16  C   UNL     1      40.364 -14.600  -3.125  1.00  0.00     0.029 A 
HETATM   17  C   UNL     1      40.882 -15.545  -2.236  1.00  0.00     0.052 A 
ENDBRANCH   8  11
ENDBRANCH   4   7
BRANCH   1  18
HETATM   18  N   UNL     1      44.410 -20.237   4.213  1.00  0.00    -0.328 N 
HETATM   19  C   UNL     1      44.611 -21.586   3.986  1.00  0.00     0.218 C 
HETATM   20  C   UNL     1      45.356 -22.266   5.108  1.00  0.00     0.117 C 
HETATM   21  O   UNL     1      44.273 -22.221   2.992  1.00  0.00    -0.274 OA
HETATM   22  H   UNL     1      44.791 -19.857   5.069  1.00  0.00     0.169 HD
ENDBRANCH   1  18
TORSDOF 3
ENDMDL
MODEL 3
REMARK VINA RESULT:      -6.7      8.567     10.282
REMARK  3 active torsions:
REMARK  status: ('A' for Active; 'I' for Inactive)
REMARK       I    between atoms: C_2  and  N_3 
REMARK    1  A    between atoms: N_3  and  C_4 
REMARK    2  A    between atoms: C_7  and  C_8 
REMARK       I    between atoms: C_8  and  N_9 
REMARK    3  A    between atoms: N_9  and  C_10 
ROOT
HETATM    1  C   UNL     1      43.343 -18.937   2.869  1.00  0.00     0.034 A 
HETATM    2  C   UNL     1      42.344 -18.163   3.462  1.00  0.00     0.030 A 
HETATM    3  C   UNL     1      41.841 -17.022   2.819  1.00  0.00     0.019 A 
HETATM    4  C   UNL     1      42.322 -16.650   1.559  1.00  0.00     0.032 A 
HETATM    5  C   UNL     1      43.341 -17.413   0.976  1.00  0.00     0.019 A 
HETATM    6  C   UNL     1      43.847 -18.544   1.624  1.00  0.00     0.030 A 
ENDROOT
BRANCH   4   7
HETATM    7  C   UNL     1      41.813 -15.464   0.797  1.00  0.00     0.257 C 
HETATM    8  N   UNL     1      41.071 -15.748  -0.333  1.00  0.00    -0.307 N 
HETATM    9  H   UNL     1      40.913 -16.709  -0.583  1.00  0.00     0.170 HD
HETATM   10  O   UNL     1      42.112 -14.352   1.218  1.00  0.00    -0.267 OA
BRANCH   8  11
HETATM   11  C   UNL     1      40.566 -14.793  -1.230  1.00  0.00     0.130 A 
HETATM   12  N   UNL     1      39.545 -13.988  -0.886  1.00  0.00    -0.242 NA
HETATM   13  C   UNL     1      39.123 -13.068  -1.786  1.00  0.00     0.142 A 
HETATM   14  C   UNL     1      39.680 -12.914  -3.043  1.00  0.00     0.051 A 
HETATM   15 CL   UNL     1      39.099 -11.725  -4.133  1.00  0.00    -0.083 Cl
HETATM   16  C   UNL     1      40.727 -13.752  -3.397  1.00  0.00     0.029 A 
HETATM   17  C   UNL     1      41.180 -14.700  -2.478  1.00  0.00     0.052 A 
ENDBRANCH   8  11
ENDBRANCH   4   7
BRANCH   1  18
HETATM   18  N   UNL     1      43.891 -20.100   3.446  1.00  0.00    -0.328 N 
HETATM   19  C   UNL     1      44.700 -20.183   4.565  1.00  0.00     0.218 C 
HETATM   20  C   UNL     1      45.096 -21.600   4.901  1.00  0.00     0.117 C 
HETATM   21  O   UNL     1      45.072 -19.252   5.272  1.00  0.00    -0.274 OA
HETATM   22  H   UNL     1      43.641 -20.973   3.000  1.00  0.00     0.169 HD
ENDBRANCH   1  18
TORSDOF 3
ENDMDL
MODEL 4
REMARK VINA RESULT:      -6.5      5.362      9.517
REMARK  3 active torsions:
REMARK  status: ('A' for Active; 'I' for Inactive)
REMARK       I    between atoms: C_2  and  N_3 
REMARK    1  A    between atoms: N_3  and  C_4 
REMARK    2  A    between atoms: C_7  and  C_8 
REMARK       I    between atoms: C_8  and  N_9 
REMARK    3  A    between atoms: N_9  and  C_10 
ROOT
HETATM    1  C   UNL     1      43.428 -18.598   2.347  1.00  0.00     0.034 A 
HETATM    2  C   UNL     1      43.962 -17.467   1.726  1.00  0.00     0.030 A 
HETATM    3  C   UNL     1      43.611 -16.178   2.154  1.00  0.00     0.019 A 
HETATM    4  C   UNL     1      42.730 -16.003   3.227  1.00  0.00     0.032 A 
HETATM    5  C   UNL     1      42.176 -17.137   3.833  1.00  0.00     0.019 A 
HETATM    6  C   UNL     1      42.520 -18.420   3.397  1.00  0.00     0.030 A 
ENDROOT
BRANCH   4   7
HETATM    7  C   UNL     1      42.333 -14.660   3.760  1.00  0.00     0.257 C 
HETATM    8  N   UNL     1      41.787 -14.654   5.029  1.00  0.00    -0.307 N 
HETATM    9  H   UNL     1      41.685 -15.526   5.519  1.00  0.00     0.170 HD
HETATM   10  O   UNL     1      42.500 -13.691   3.029  1.00  0.00    -0.267 OA
BRANCH   8  11
HETATM   11  C   UNL     1      41.279 -13.522   5.686  1.00  0.00     0.130 A 
HETATM   12  N   UNL     1      42.097 -12.551   6.130  1.00  0.00    -0.242 NA
HETATM   13  C   UNL     1      41.543 -11.470   6.729  1.00  0.00     0.142 A 
HETATM   14  C   UNL     1      40.181 -11.312   6.917  1.00  0.00     0.051 A 
HETATM   15 CL   UNL     1      39.546  -9.916   7.682  1.00  0.00    -0.083 Cl
HETATM   16  C   UNL     1      39.342 -12.320   6.466  1.00  0.00     0.029 A 
HETATM   17  C   UNL     1      39.896 -13.437   5.838  1.00  0.00     0.052 A 
ENDBRANCH   8  11
ENDBRANCH   4   7
BRANCH   1  18
HETATM   18  N   UNL     1      43.738 -19.923   1.982  1.00  0.00    -0.328 N 
HETATM   19  C   UNL     1      44.558 -20.811   2.654  1.00  0.00     0.218 C 
HETATM   20  C   UNL     1      44.655 -22.154   1.972  1.00  0.00     0.117 C 
HETATM   21  O   UNL     1      45.150 -20.608   3.709  1.00  0.00    -0.274 OA
HETATM   22  H   UNL     1      43.287 -20.264   1.143  1.00  0.00     0.169 HD
ENDBRANCH   1  18
TORSDOF 3
ENDMDL
MODEL 5
REMARK VINA RESULT:      -6.5      5.371      9.484
REMARK  3 active torsions:
REMARK  status: ('A' for Active; 'I' for Inactive)
REMARK       I    between atoms: C_2  and  N_3 
REMARK    1  A    between atoms: N_3  and  C_4 
REMARK    2  A    between atoms: C_7  and  C_8 
REMARK       I    between atoms: C_8  and  N_9 
REMARK    3  A    between atoms: N_9  and  C_10 
ROOT
HETATM    1  C   UNL     1      43.424 -18.381   2.562  1.00  0.00     0.034 A 
HETATM    2  C   UNL     1      42.982 -18.093   3.855  1.00  0.00     0.030 A 
HETATM    3  C   UNL     1      42.921 -16.770   4.316  1.00  0.00     0.019 A 
HETATM    4  C   UNL     1      43.288 -15.710   3.479  1.00  0.00     0.032 A 
HETATM    5  C   UNL     1      43.755 -16.002   2.192  1.00  0.00     0.019 A 
HETATM    6  C   UNL     1      43.823 -17.323   1.739  1.00  0.00     0.030 A 
ENDROOT
BRANCH   4   7
HETATM    7  C   UNL     1      43.221 -14.271   3.890  1.00  0.00     0.257 C 
HETATM    8  N   UNL     1      42.039 -13.867   4.478  1.00  0.00    -0.307 N 
HETATM    9  H   UNL     1      41.301 -14.539   4.598  1.00  0.00     0.170 HD
HETATM   10  O   UNL     1      44.200 -13.571   3.654  1.00  0.00    -0.267 OA
BRANCH   8  11
HETATM   11  C   UNL     1      41.736 -12.552   4.867  1.00  0.00     0.130 A 
HETATM   12  N   UNL     1      41.372 -11.626   3.961  1.00  0.00    -0.242 NA
HETATM   13  C   UNL     1      41.063 -10.384   4.404  1.00  0.00     0.142 A 
HETATM   14  C   UNL     1      41.110 -10.011   5.735  1.00  0.00     0.051 A 
HETATM   15 CL   UNL     1      40.704  -8.420   6.227  1.00  0.00    -0.083 Cl
HETATM   16  C   UNL     1      41.494 -10.966   6.665  1.00  0.00     0.029 A 
HETATM   17  C   UNL     1      41.807 -12.255   6.227  1.00  0.00     0.052 A 
ENDBRANCH   8  11
ENDBRANCH   4   7
BRANCH   1  18
HETATM   18  N   UNL     1      43.504 -19.681   2.023  1.00  0.00    -0.328 N 
HETATM   19  C   UNL     1      44.272 -20.736   2.481  1.00  0.00     0.218 C 
HETATM   20  C   UNL     1      44.100 -21.989   1.658  1.00  0.00     0.117 C 
HETATM   21  O   UNL     1      45.013 -20.734   3.459  1.00  0.00    -0.274 OA
HETATM   22  H   UNL     1      42.910 -19.862   1.224  1.00  0.00     0.169 HD
ENDBRANCH   1  18
TORSDOF 3
ENDMDL
MODEL 6
REMARK VINA RESULT:      -6.5      5.386      5.929
REMARK  3 active torsions:
REMARK  status: ('A' for Active; 'I' for Inactive)
REMARK       I    between atoms: C_2  and  N_3 
REMARK    1  A    between atoms: N_3  and  C_4 
REMARK    2  A    between atoms: C_7  and  C_8 
REMARK       I    between atoms: C_8  and  N_9 
REMARK    3  A    between atoms: N_9  and  C_10 
ROOT
HETATM    1  C   UNL     1      40.953 -12.592   5.499  1.00  0.00     0.034 A 
HETATM    2  C   UNL     1      42.069 -12.884   4.711  1.00  0.00     0.030 A 
HETATM    3  C   UNL     1      42.424 -14.212   4.433  1.00  0.00     0.019 A 
HETATM    4  C   UNL     1      41.655 -15.270   4.928  1.00  0.00     0.032 A 
HETATM    5  C   UNL     1      40.551 -14.977   5.739  1.00  0.00     0.019 A 
HETATM    6  C   UNL     1      40.205 -13.652   6.022  1.00  0.00     0.030 A 
ENDROOT
BRANCH   4   7
HETATM    7  C   UNL     1      41.954 -16.712   4.649  1.00  0.00     0.257 C 
HETATM    8  N   UNL     1      43.093 -16.958   3.907  1.00  0.00    -0.307 N 
HETATM    9  H   UNL     1      43.649 -16.180   3.597  1.00  0.00     0.170 HD
HETATM   10  O   UNL     1      41.163 -17.545   5.077  1.00  0.00    -0.267 OA
BRANCH   8  11
HETATM   11  C   UNL     1      43.515 -18.223   3.469  1.00  0.00     0.130 A 
HETATM   12  N   UNL     1      44.342 -18.976   4.216  1.00  0.00    -0.242 NA
HETATM   13  C   UNL     1      44.689 -20.200   3.751  1.00  0.00     0.142 A 
HETATM   14  C   UNL     1      44.246 -20.716   2.546  1.00  0.00     0.051 A 
HETATM   15 CL   UNL     1      44.723 -22.276   2.019  1.00  0.00    -0.083 Cl
HETATM   16  C   UNL     1      43.401 -19.933   1.774  1.00  0.00     0.029 A 
HETATM   17  C   UNL     1      43.025 -18.672   2.243  1.00  0.00     0.052 A 
ENDBRANCH   8  11
ENDBRANCH   4   7
BRANCH   1  18
HETATM   18  N   UNL     1      40.527 -11.286   5.814  1.00  0.00    -0.328 N 
HETATM   19  C   UNL     1      39.346 -10.673   5.436  1.00  0.00     0.218 C 
HETATM   20  C   UNL     1      39.220  -9.264   5.964  1.00  0.00     0.117 C 
HETATM   21  O   UNL     1      38.443 -11.167   4.770  1.00  0.00    -0.274 OA
HETATM   22  H   UNL     1      41.150 -10.750   6.404  1.00  0.00     0.169 HD
ENDBRANCH   1  18
TORSDOF 3
ENDMDL
MODEL 7
REMARK VINA RESULT:      -6.5      8.394     10.572
REMARK  3 active torsions:
REMARK  status: ('A' for Active; 'I' for Inactive)
REMARK       I    between atoms: C_2  and  N_3 
REMARK    1  A    between atoms: N_3  and  C_4 
REMARK    2  A    between atoms: C_7  and  C_8 
REMARK       I    between atoms: C_8  and  N_9 
REMARK    3  A    between atoms: N_9  and  C_10 
ROOT
HETATM    1  C   UNL     1      43.524 -19.148   2.895  1.00  0.00     0.034 A 
HETATM    2  C   UNL     1      42.689 -18.483   3.795  1.00  0.00     0.030 A 
HETATM    3  C   UNL     1      42.026 -17.304   3.425  1.00  0.00     0.019 A 
HETATM    4  C   UNL     1      42.178 -16.781   2.136  1.00  0.00     0.032 A 
HETATM    5  C   UNL     1      43.035 -17.434   1.242  1.00  0.00     0.019 A 
HETATM    6  C   UNL     1      43.701 -18.605   1.618  1.00  0.00     0.030 A 
ENDROOT
BRANCH   4   7
HETATM    7  C   UNL     1      41.480 -15.544   1.658  1.00  0.00     0.257 C 
HETATM    8  N   UNL     1      40.222 -15.733   1.117  1.00  0.00    -0.307 N 
HETATM    9  H   UNL     1      39.848 -16.665   1.072  1.00  0.00     0.170 HD
HETATM   10  O   UNL     1      42.081 -14.481   1.762  1.00  0.00    -0.267 OA
BRANCH   8  11
HETATM   11  C   UNL     1      39.429 -14.727   0.543  1.00  0.00     0.130 A 
HETATM   12  N   UNL     1      39.757 -14.173  -0.638  1.00  0.00    -0.242 NA
HETATM   13  C   UNL     1      38.934 -13.229  -1.153  1.00  0.00     0.142 A 
HETATM   14  C   UNL     1      37.777 -12.797  -0.529  1.00  0.00     0.051 A 
HETATM   15 CL   UNL     1      36.779 -11.598  -1.239  1.00  0.00    -0.083 Cl
HETATM   16  C   UNL     1      37.447 -13.364   0.693  1.00  0.00     0.029 A 
HETATM   17  C   UNL     1      38.279 -14.346   1.234  1.00  0.00     0.052 A 
ENDBRANCH   8  11
ENDBRANCH   4   7
BRANCH   1  18
HETATM   18  N   UNL     1      44.215 -20.341   3.188  1.00  0.00    -0.328 N 
HETATM   19  C   UNL     1      44.036 -21.582   2.605  1.00  0.00     0.218 C 
HETATM   20  C   UNL     1      44.961 -22.634   3.166  1.00  0.00     0.117 C 
HETATM   21  O   UNL     1      43.251 -21.863   1.705  1.00  0.00    -0.274 OA
HETATM   22  H   UNL     1      44.939 -20.267   3.891  1.00  0.00     0.169 HD
ENDBRANCH   1  18
TORSDOF 3
ENDMDL
MODEL 8
REMARK VINA RESULT:      -6.5      8.066      9.731
REMARK  3 active torsions:
REMARK  status: ('A' for Active; 'I' for Inactive)
REMARK       I    between atoms: C_2  and  N_3 
REMARK    1  A    between atoms: N_3  and  C_4 
REMARK    2  A    between atoms: C_7  and  C_8 
REMARK       I    between atoms: C_8  and  N_9 
REMARK    3  A    between atoms: N_9  and  C_10 
ROOT
HETATM    1  C   UNL     1      39.779 -14.438   0.284  1.00  0.00     0.034 A 
HETATM    2  C   UNL     1      41.062 -14.900  -0.019  1.00  0.00     0.030 A 
HETATM    3  C   UNL     1      41.712 -15.819   0.817  1.00  0.00     0.019 A 
HETATM    4  C   UNL     1      41.077 -16.305   1.965  1.00  0.00     0.032 A 
HETATM    5  C   UNL     1      39.800 -15.823   2.282  1.00  0.00     0.019 A 
HETATM    6  C   UNL     1      39.159 -14.899   1.450  1.00  0.00     0.030 A 
ENDROOT
BRANCH   4   7
HETATM    7  C   UNL     1      41.694 -17.309   2.890  1.00  0.00     0.257 C 
HETATM    8  N   UNL     1      42.775 -18.006   2.387  1.00  0.00    -0.307 N 
HETATM    9  H   UNL     1      43.086 -17.812   1.451  1.00  0.00     0.170 HD
HETATM   10  O   UNL     1      41.183 -17.447   3.996  1.00  0.00    -0.267 OA
BRANCH   8  11
HETATM   11  C   UNL     1      43.451 -19.041   3.052  1.00  0.00     0.130 A 
HETATM   12  N   UNL     1      43.752 -18.947   4.360  1.00  0.00    -0.242 NA
HETATM   13  C   UNL     1      44.378 -19.993   4.950  1.00  0.00     0.142 A 
HETATM   14  C   UNL     1      44.734 -21.150   4.281  1.00  0.00     0.051 A 
HETATM   15 CL   UNL     1      45.524 -22.438   5.091  1.00  0.00    -0.083 Cl
HETATM   16  C   UNL     1      44.430 -21.240   2.931  1.00  0.00     0.029 A 
HETATM   17  C   UNL     1      43.775 -20.175   2.308  1.00  0.00     0.052 A 
ENDBRANCH   8  11
ENDBRANCH   4   7
BRANCH   1  18
HETATM   18  N   UNL     1      39.058 -13.525  -0.510  1.00  0.00    -0.328 N 
HETATM   19  C   UNL     1      38.743 -13.642  -1.852  1.00  0.00     0.218 C 
HETATM   20  C   UNL     1      37.950 -12.469  -2.374  1.00  0.00     0.117 C 
HETATM   21  O   UNL     1      39.019 -14.581  -2.591  1.00  0.00    -0.274 OA
HETATM   22  H   UNL     1      38.716 -12.702  -0.032  1.00  0.00     0.169 HD
ENDBRANCH   1  18
TORSDOF 3
ENDMDL
MODEL 9
REMARK VINA RESULT:      -6.3      6.045      8.835
REMARK  3 active torsions:
REMARK  status: ('A' for Active; 'I' for Inactive)
REMARK       I    between atoms: C_2  and  N_3 
REMARK    1  A    between atoms: N_3  and  C_4 
REMARK    2  A    between atoms: C_7  and  C_8 
REMARK       I    between atoms: C_8  and  N_9 
REMARK    3  A    between atoms: N_9  and  C_10 
ROOT
HETATM    1  C   UNL     1      44.276 -18.987   4.697  1.00  0.00     0.034 A 
HETATM    2  C   UNL     1      44.410 -18.136   5.796  1.00  0.00     0.030 A 
HETATM    3  C   UNL     1      43.859 -16.846   5.778  1.00  0.00     0.019 A 
HETATM    4  C   UNL     1      43.147 -16.395   4.661  1.00  0.00     0.032 A 
HETATM    5  C   UNL     1      43.034 -17.241   3.550  1.00  0.00     0.019 A 
HETATM    6  C   UNL     1      43.593 -18.522   3.568  1.00  0.00     0.030 A 
ENDROOT
BRANCH   4   7
HETATM    7  C   UNL     1      42.504 -15.044   4.580  1.00  0.00     0.257 C 
HETATM    8  N   UNL     1      41.123 -15.034   4.574  1.00  0.00    -0.307 N 
HETATM    9  H   UNL     1      40.630 -15.909   4.622  1.00  0.00     0.170 HD
HETATM   10  O   UNL     1      43.245 -14.071   4.504  1.00  0.00    -0.267 OA
BRANCH   8  11
HETATM   11  C   UNL     1      40.323 -13.890   4.427  1.00  0.00     0.130 A 
HETATM   12  N   UNL     1      39.874 -13.214   5.500  1.00  0.00    -0.242 NA
HETATM   13  C   UNL     1      39.131 -12.100   5.291  1.00  0.00     0.142 A 
HETATM   14  C   UNL     1      38.802 -11.623   4.036  1.00  0.00     0.051 A 
HETATM   15 CL   UNL     1      37.859 -10.204   3.843  1.00  0.00    -0.083 Cl
HETATM   16  C   UNL     1      39.259 -12.328   2.932  1.00  0.00     0.029 A 
HETATM   17  C   UNL     1      40.034 -13.473   3.128  1.00  0.00     0.052 A 
ENDBRANCH   8  11
ENDBRANCH   4   7
BRANCH   1  18
HETATM   18  N   UNL     1      44.791 -20.298   4.643  1.00  0.00    -0.328 N 
HETATM   19  C   UNL     1      44.551 -21.333   5.528  1.00  0.00     0.218 C 
HETATM   20  C   UNL     1      45.269 -22.606   5.151  1.00  0.00     0.117 C 
HETATM   21  O   UNL     1      43.823 -21.302   6.514  1.00  0.00    -0.274 OA
HETATM   22  H   UNL     1      45.386 -20.503   3.852  1.00  0.00     0.169 HD
ENDBRANCH   1  18
TORSDOF 3
ENDMDL
MODEL 10
REMARK VINA RESULT:      -6.2      8.440     10.138
REMARK  3 active torsions:
REMARK  status: ('A' for Active; 'I' for Inactive)
REMARK       I    between atoms: C_2  and  N_3 
REMARK    1  A    between atoms: N_3  and  C_4 
REMARK    2  A    between atoms: C_7  and  C_8 
REMARK       I    between atoms: C_8  and  N_9 
REMARK    3  A    between atoms: N_9  and  C_10 
ROOT
HETATM    1  C   UNL     1      43.079 -18.582   2.867  1.00  0.00     0.034 A 
HETATM    2  C   UNL     1      42.038 -17.949   3.550  1.00  0.00     0.030 A 
HETATM    3  C   UNL     1      41.411 -16.816   3.014  1.00  0.00     0.019 A 
HETATM    4  C   UNL     1      41.807 -16.307   1.772  1.00  0.00     0.032 A 
HETATM    5  C   UNL     1      42.867 -16.927   1.099  1.00  0.00     0.019 A 
HETATM    6  C   UNL     1      43.497 -18.052   1.641  1.00  0.00     0.030 A 
ENDROOT
BRANCH   4   7
HETATM    7  C   UNL     1      41.164 -15.120   1.121  1.00  0.00     0.257 C 
HETATM    8  N   UNL     1      39.792 -15.181   0.977  1.00  0.00    -0.307 N 
HETATM    9  H   UNL     1      39.305 -15.997   1.304  1.00  0.00     0.170 HD
HETATM   10  O   UNL     1      41.901 -14.211   0.755  1.00  0.00    -0.267 OA
BRANCH   8  11
HETATM   11  C   UNL     1      39.002 -14.218   0.329  1.00  0.00     0.130 A 
HETATM   12  N   UNL     1      39.154 -13.962  -0.982  1.00  0.00    -0.242 NA
HETATM   13  C   UNL     1      38.341 -13.042  -1.554  1.00  0.00     0.142 A 
HETATM   14  C   UNL     1      37.367 -12.345  -0.863  1.00  0.00     0.051 A 
HETATM   15 CL   UNL     1      36.369 -11.195  -1.650  1.00  0.00    -0.083 Cl
HETATM   16  C   UNL     1      37.219 -12.605   0.492  1.00  0.00     0.029 A 
HETATM   17  C   UNL     1      38.043 -13.558   1.096  1.00  0.00     0.052 A 
ENDBRANCH   8  11
ENDBRANCH   4   7
BRANCH   1  18
HETATM   18  N   UNL     1      43.752 -19.729   3.334  1.00  0.00    -0.328 N 
HETATM   19  C   UNL     1      44.599 -19.822   4.423  1.00  0.00     0.218 C 
HETATM   20  C   UNL     1      45.136 -21.217   4.632  1.00  0.00     0.117 C 
HETATM   21  O   UNL     1      44.903 -18.919   5.196  1.00  0.00    -0.274 OA
HETATM   22  H   UNL     1      43.571 -20.583   2.823  1.00  0.00     0.169 HD
ENDBRANCH   1  18
TORSDOF 3
ENDMDL
