MODEL 1
REMARK VINA RESULT:      -8.6      0.000      0.000
REMARK  3 active torsions:
REMARK  status: ('A' for Active; 'I' for Inactive)
REMARK    1  A    between atoms: C_4  and  C_5 
REMARK    2  A    between atoms: C_14  and  C_15 
REMARK       I    between atoms: C_15  and  N_16 
REMARK    3  A    between atoms: N_16  and  C_17 
ROOT
HETATM    1  C   UNL     1      42.952 -15.265   3.591  1.00  0.00     0.222 C 
HETATM    2  N   UNL     1      42.298 -13.960   3.561  1.00  0.00    -0.090 N 
HETATM    3  C   UNL     1      41.400 -13.564   2.612  1.00  0.00     0.735 A 
HETATM    4  N   UNL     1      41.045 -12.330   2.873  1.00  0.00     0.030 NA
HETATM    5  N   UNL     1      41.778 -11.957   3.986  1.00  0.00     0.033 NA
HETATM    6  N   UNL     1      42.572 -12.942   4.394  1.00  0.00     0.012 NA
HETATM    7  N   UNL     1      41.092 -14.405   1.602  1.00  0.00    -0.191 N 
HETATM    8  C   UNL     1      41.770 -15.602   1.386  1.00  0.00     0.037 C 
HETATM    9  C   UNL     1      41.513 -16.256   0.051  1.00  0.00     0.070 C 
HETATM   10  C   UNL     1      42.650 -16.052   2.317  1.00  0.00     0.064 C 
HETATM   11  H   UNL     1      40.500 -14.057   0.852  1.00  0.00     0.184 HD
ENDROOT
BRANCH  10  12
HETATM   12  C   UNL     1      43.504 -17.262   2.161  1.00  0.00     0.256 C 
HETATM   13  N   UNL     1      43.096 -18.339   2.914  1.00  0.00    -0.323 N 
HETATM   14  H   UNL     1      42.311 -18.197   3.537  1.00  0.00     0.169 HD
HETATM   15  O   UNL     1      44.486 -17.188   1.433  1.00  0.00    -0.267 OA
BRANCH  13  16
HETATM   16  C   UNL     1      43.617 -19.650   2.876  1.00  0.00     0.035 A 
HETATM   17  C   UNL     1      43.446 -20.528   1.805  1.00  0.00     0.029 A 
HETATM   18  C   UNL     1      43.964 -21.827   1.860  1.00  0.00     0.002 A 
HETATM   19  C   UNL     1      44.652 -22.261   2.990  1.00  0.00     0.000 A 
HETATM   20  C   UNL     1      44.832 -21.394   4.064  1.00  0.00     0.002 A 
HETATM   21  C   UNL     1      44.322 -20.093   4.004  1.00  0.00     0.029 A 
ENDBRANCH  13  16
ENDBRANCH  10  12
BRANCH   1  22
HETATM   22  C   UNL     1      42.561 -15.977   4.853  1.00  0.00     0.083 A 
HETATM   23  O   UNL     1      43.555 -16.609   5.547  1.00  0.00    -0.317 OA
HETATM   24  C   UNL     1      42.971 -17.233   6.606  1.00  0.00     0.049 A 
HETATM   25  C   UNL     1      43.855 -18.050   7.461  1.00  0.00     0.076 C 
HETATM   26  C   UNL     1      41.620 -16.966   6.627  1.00  0.00     0.035 A 
HETATM   27  C   UNL     1      41.355 -16.151   5.502  1.00  0.00     0.038 A 
ENDBRANCH   1  22
TORSDOF 3
ENDMDL
MODEL 2
REMARK VINA RESULT:      -8.3      2.008      3.981
REMARK  3 active torsions:
REMARK  status: ('A' for Active; 'I' for Inactive)
REMARK    1  A    between atoms: C_4  and  C_5 
REMARK    2  A    between atoms: C_14  and  C_15 
REMARK       I    between atoms: C_15  and  N_16 
REMARK    3  A    between atoms: N_16  and  C_17 
ROOT
HETATM    1  C   UNL     1      40.781 -15.213   4.471  1.00  0.00     0.222 C 
HETATM    2  N   UNL     1      40.590 -13.895   5.071  1.00  0.00    -0.090 N 
HETATM    3  C   UNL     1      41.496 -13.273   5.881  1.00  0.00     0.735 A 
HETATM    4  N   UNL     1      40.986 -12.129   6.265  1.00  0.00     0.030 NA
HETATM    5  N   UNL     1      39.722 -12.077   5.706  1.00  0.00     0.033 NA
HETATM    6  N   UNL     1      39.460 -13.172   4.999  1.00  0.00     0.012 NA
HETATM    7  N   UNL     1      42.650 -13.903   6.187  1.00  0.00    -0.191 N 
HETATM    8  C   UNL     1      42.894 -15.233   5.851  1.00  0.00     0.037 C 
HETATM    9  C   UNL     1      44.083 -15.863   6.534  1.00  0.00     0.070 C 
HETATM   10  C   UNL     1      42.037 -15.884   5.024  1.00  0.00     0.064 C 
HETATM   11  H   UNL     1      43.267 -13.469   6.869  1.00  0.00     0.184 HD
ENDROOT
BRANCH  10  12
HETATM   12  C   UNL     1      42.133 -17.326   4.666  1.00  0.00     0.256 C 
HETATM   13  N   UNL     1      43.128 -17.615   3.761  1.00  0.00    -0.323 N 
HETATM   14  H   UNL     1      43.649 -16.835   3.381  1.00  0.00     0.169 HD
HETATM   15  O   UNL     1      41.324 -18.101   5.160  1.00  0.00    -0.267 OA
BRANCH  13  16
HETATM   16  C   UNL     1      43.548 -18.895   3.337  1.00  0.00     0.035 A 
HETATM   17  C   UNL     1      43.139 -19.497   2.146  1.00  0.00     0.029 A 
HETATM   18  C   UNL     1      43.571 -20.786   1.816  1.00  0.00     0.002 A 
HETATM   19  C   UNL     1      44.412 -21.487   2.676  1.00  0.00     0.000 A 
HETATM   20  C   UNL     1      44.829 -20.896   3.866  1.00  0.00     0.002 A 
HETATM   21  C   UNL     1      44.404 -19.604   4.191  1.00  0.00     0.029 A 
ENDBRANCH  13  16
ENDBRANCH  10  12
BRANCH   1  22
HETATM   22  C   UNL     1      40.772 -15.073   2.977  1.00  0.00     0.083 A 
HETATM   23  O   UNL     1      41.462 -14.020   2.443  1.00  0.00    -0.317 OA
HETATM   24  C   UNL     1      41.266 -14.053   1.097  1.00  0.00     0.049 A 
HETATM   25  C   UNL     1      41.864 -12.951   0.316  1.00  0.00     0.076 C 
HETATM   26  C   UNL     1      40.497 -15.144   0.756  1.00  0.00     0.035 A 
HETATM   27  C   UNL     1      40.184 -15.807   1.966  1.00  0.00     0.038 A 
ENDBRANCH   1  22
TORSDOF 3
ENDMDL
MODEL 3
REMARK VINA RESULT:      -8.0      1.721      2.067
REMARK  3 active torsions:
REMARK  status: ('A' for Active; 'I' for Inactive)
REMARK    1  A    between atoms: C_4  and  C_5 
REMARK    2  A    between atoms: C_14  and  C_15 
REMARK       I    between atoms: C_15  and  N_16 
REMARK    3  A    between atoms: N_16  and  C_17 
ROOT
HETATM    1  C   UNL     1      42.582 -14.557   3.766  1.00  0.00     0.222 C 
HETATM    2  N   UNL     1      41.619 -13.461   3.819  1.00  0.00    -0.090 N 
HETATM    3  C   UNL     1      40.291 -13.580   3.524  1.00  0.00     0.735 A 
HETATM    4  N   UNL     1      39.738 -12.399   3.641  1.00  0.00     0.030 NA
HETATM    5  N   UNL     1      40.765 -11.536   3.976  1.00  0.00     0.033 NA
HETATM    6  N   UNL     1      41.928 -12.175   4.055  1.00  0.00     0.012 NA
HETATM    7  N   UNL     1      39.807 -14.776   3.128  1.00  0.00    -0.191 N 
HETATM    8  C   UNL     1      40.629 -15.865   2.845  1.00  0.00     0.037 C 
HETATM    9  C   UNL     1      39.960 -17.009   2.124  1.00  0.00     0.070 C 
HETATM   10  C   UNL     1      41.951 -15.805   3.149  1.00  0.00     0.064 C 
HETATM   11  H   UNL     1      38.840 -14.823   2.817  1.00  0.00     0.184 HD
ENDROOT
BRANCH  10  12
HETATM   12  C   UNL     1      42.948 -16.858   2.813  1.00  0.00     0.256 C 
HETATM   13  N   UNL     1      42.717 -18.067   3.427  1.00  0.00    -0.323 N 
HETATM   14  H   UNL     1      41.949 -18.113   4.084  1.00  0.00     0.169 HD
HETATM   15  O   UNL     1      43.879 -16.560   2.075  1.00  0.00    -0.267 OA
BRANCH  13  16
HETATM   16  C   UNL     1      43.403 -19.281   3.202  1.00  0.00     0.035 A 
HETATM   17  C   UNL     1      44.376 -19.799   4.059  1.00  0.00     0.029 A 
HETATM   18  C   UNL     1      45.038 -20.991   3.745  1.00  0.00     0.002 A 
HETATM   19  C   UNL     1      44.736 -21.673   2.569  1.00  0.00     0.000 A 
HETATM   20  C   UNL     1      43.765 -21.168   1.708  1.00  0.00     0.002 A 
HETATM   21  C   UNL     1      43.098 -19.981   2.027  1.00  0.00     0.029 A 
ENDBRANCH  13  16
ENDBRANCH  10  12
BRANCH   1  22
HETATM   22  C   UNL     1      43.148 -14.775   5.139  1.00  0.00     0.083 A 
HETATM   23  O   UNL     1      44.034 -13.846   5.604  1.00  0.00    -0.317 OA
HETATM   24  C   UNL     1      44.461 -14.273   6.824  1.00  0.00     0.049 A 
HETATM   25  C   UNL     1      45.493 -13.451   7.488  1.00  0.00     0.076 C 
HETATM   26  C   UNL     1      43.820 -15.443   7.167  1.00  0.00     0.035 A 
HETATM   27  C   UNL     1      42.968 -15.765   6.085  1.00  0.00     0.038 A 
ENDBRANCH   1  22
TORSDOF 3
ENDMDL
MODEL 4
REMARK VINA RESULT:      -7.8      1.762      3.877
REMARK  3 active torsions:
REMARK  status: ('A' for Active; 'I' for Inactive)
REMARK    1  A    between atoms: C_4  and  C_5 
REMARK    2  A    between atoms: C_14  and  C_15 
REMARK       I    between atoms: C_15  and  N_16 
REMARK    3  A    between atoms: N_16  and  C_17 
ROOT
HETATM    1  C   UNL     1      41.370 -15.448   4.656  1.00  0.00     0.222 C 
HETATM    2  N   UNL     1      41.169 -14.016   4.454  1.00  0.00    -0.090 N 
HETATM    3  C   UNL     1      42.050 -13.047   4.838  1.00  0.00     0.735 A 
HETATM    4  N   UNL     1      41.535 -11.881   4.535  1.00  0.00     0.030 NA
HETATM    5  N   UNL     1      40.293 -12.151   3.991  1.00  0.00     0.033 NA
HETATM    6  N   UNL     1      40.048 -13.457   3.968  1.00  0.00     0.012 NA
HETATM    7  N   UNL     1      43.187 -13.402   5.474  1.00  0.00    -0.191 N 
HETATM    8  C   UNL     1      43.432 -14.703   5.907  1.00  0.00     0.037 C 
HETATM    9  C   UNL     1      44.590 -14.857   6.862  1.00  0.00     0.070 C 
HETATM   10  C   UNL     1      42.600 -15.706   5.526  1.00  0.00     0.064 C 
HETATM   11  H   UNL     1      43.782 -12.663   5.840  1.00  0.00     0.184 HD
ENDROOT
BRANCH  10  12
HETATM   12  C   UNL     1      42.698 -17.115   5.996  1.00  0.00     0.256 C 
HETATM   13  N   UNL     1      43.408 -17.940   5.155  1.00  0.00    -0.323 N 
HETATM   14  H   UNL     1      43.737 -17.542   4.285  1.00  0.00     0.169 HD
HETATM   15  O   UNL     1      42.126 -17.420   7.035  1.00  0.00    -0.267 OA
BRANCH  13  16
HETATM   16  C   UNL     1      43.783 -19.280   5.394  1.00  0.00     0.035 A 
HETATM   17  C   UNL     1      43.548 -19.955   6.592  1.00  0.00     0.029 A 
HETATM   18  C   UNL     1      43.984 -21.274   6.764  1.00  0.00     0.002 A 
HETATM   19  C   UNL     1      44.665 -21.926   5.741  1.00  0.00     0.000 A 
HETATM   20  C   UNL     1      44.904 -21.265   4.539  1.00  0.00     0.002 A 
HETATM   21  C   UNL     1      44.459 -19.950   4.365  1.00  0.00     0.029 A 
ENDBRANCH  13  16
ENDBRANCH  10  12
BRANCH   1  22
HETATM   22  C   UNL     1      41.417 -16.127   3.319  1.00  0.00     0.083 A 
HETATM   23  O   UNL     1      42.643 -16.520   2.860  1.00  0.00    -0.317 OA
HETATM   24  C   UNL     1      42.457 -17.047   1.618  1.00  0.00     0.049 A 
HETATM   25  C   UNL     1      43.671 -17.473   0.893  1.00  0.00     0.076 C 
HETATM   26  C   UNL     1      41.117 -17.040   1.297  1.00  0.00     0.035 A 
HETATM   27  C   UNL     1      40.444 -16.453   2.394  1.00  0.00     0.038 A 
ENDBRANCH   1  22
TORSDOF 3
ENDMDL
MODEL 5
REMARK VINA RESULT:      -7.8      1.119      1.477
REMARK  3 active torsions:
REMARK  status: ('A' for Active; 'I' for Inactive)
REMARK    1  A    between atoms: C_4  and  C_5 
REMARK    2  A    between atoms: C_14  and  C_15 
REMARK       I    between atoms: C_15  and  N_16 
REMARK    3  A    between atoms: N_16  and  C_17 
ROOT
HETATM    1  C   UNL     1      43.035 -15.013   2.544  1.00  0.00     0.222 C 
HETATM    2  N   UNL     1      42.164 -13.896   2.188  1.00  0.00    -0.090 N 
HETATM    3  C   UNL     1      40.933 -14.026   1.612  1.00  0.00     0.735 A 
HETATM    4  N   UNL     1      40.451 -12.826   1.400  1.00  0.00     0.030 NA
HETATM    5  N   UNL     1      41.433 -11.949   1.822  1.00  0.00     0.033 NA
HETATM    6  N   UNL     1      42.500 -12.599   2.276  1.00  0.00     0.012 NA
HETATM    7  N   UNL     1      40.469 -15.258   1.316  1.00  0.00    -0.191 N 
HETATM    8  C   UNL     1      41.255 -16.403   1.417  1.00  0.00     0.037 C 
HETATM    9  C   UNL     1      40.688 -17.636   0.757  1.00  0.00     0.070 C 
HETATM   10  C   UNL     1      42.474 -16.330   2.010  1.00  0.00     0.064 C 
HETATM   11  H   UNL     1      39.596 -15.331   0.798  1.00  0.00     0.184 HD
ENDROOT
BRANCH  10  12
HETATM   12  C   UNL     1      43.446 -17.455   2.096  1.00  0.00     0.256 C 
HETATM   13  N   UNL     1      43.047 -18.480   2.923  1.00  0.00    -0.323 N 
HETATM   14  H   UNL     1      42.183 -18.352   3.435  1.00  0.00     0.169 HD
HETATM   15  O   UNL     1      44.497 -17.361   1.476  1.00  0.00    -0.267 OA
BRANCH  13  16
HETATM   16  C   UNL     1      43.685 -19.727   3.100  1.00  0.00     0.035 A 
HETATM   17  C   UNL     1      43.701 -20.739   2.140  1.00  0.00     0.029 A 
HETATM   18  C   UNL     1      44.324 -21.964   2.407  1.00  0.00     0.002 A 
HETATM   19  C   UNL     1      44.931 -22.188   3.639  1.00  0.00     0.000 A 
HETATM   20  C   UNL     1      44.924 -21.185   4.605  1.00  0.00     0.002 A 
HETATM   21  C   UNL     1      44.309 -19.959   4.334  1.00  0.00     0.029 A 
ENDBRANCH  13  16
ENDBRANCH  10  12
BRANCH   1  22
HETATM   22  C   UNL     1      43.257 -15.002   4.028  1.00  0.00     0.083 A 
HETATM   23  O   UNL     1      42.758 -16.055   4.743  1.00  0.00    -0.317 OA
HETATM   24  C   UNL     1      43.017 -15.808   6.056  1.00  0.00     0.049 A 
HETATM   25  C   UNL     1      42.494 -16.790   7.028  1.00  0.00     0.076 C 
HETATM   26  C   UNL     1      43.720 -14.631   6.187  1.00  0.00     0.035 A 
HETATM   27  C   UNL     1      43.882 -14.113   4.881  1.00  0.00     0.038 A 
ENDBRANCH   1  22
TORSDOF 3
ENDMDL
MODEL 6
REMARK VINA RESULT:      -7.6      2.350      6.196
REMARK  3 active torsions:
REMARK  status: ('A' for Active; 'I' for Inactive)
REMARK    1  A    between atoms: C_4  and  C_5 
REMARK    2  A    between atoms: C_14  and  C_15 
REMARK       I    between atoms: C_15  and  N_16 
REMARK    3  A    between atoms: N_16  and  C_17 
ROOT
HETATM    1  C   UNL     1      42.694 -18.300   4.879  1.00  0.00     0.222 C 
HETATM    2  N   UNL     1      43.672 -19.377   4.761  1.00  0.00    -0.090 N 
HETATM    3  C   UNL     1      44.473 -19.581   3.674  1.00  0.00     0.735 A 
HETATM    4  N   UNL     1      45.197 -20.651   3.894  1.00  0.00     0.030 NA
HETATM    5  N   UNL     1      44.794 -21.129   5.128  1.00  0.00     0.033 NA
HETATM    6  N   UNL     1      43.836 -20.370   5.650  1.00  0.00     0.012 NA
HETATM    7  N   UNL     1      44.361 -18.762   2.607  1.00  0.00    -0.191 N 
HETATM    8  C   UNL     1      43.349 -17.812   2.490  1.00  0.00     0.037 C 
HETATM    9  C   UNL     1      43.185 -17.209   1.117  1.00  0.00     0.070 C 
HETATM   10  C   UNL     1      42.546 -17.553   3.555  1.00  0.00     0.064 C 
HETATM   11  H   UNL     1      44.892 -18.989   1.770  1.00  0.00     0.184 HD
ENDROOT
BRANCH  10  12
HETATM   12  C   UNL     1      41.375 -16.634   3.530  1.00  0.00     0.256 C 
HETATM   13  N   UNL     1      41.581 -15.442   4.185  1.00  0.00    -0.323 N 
HETATM   14  H   UNL     1      42.463 -15.325   4.666  1.00  0.00     0.169 HD
HETATM   15  O   UNL     1      40.349 -17.018   2.982  1.00  0.00    -0.267 OA
BRANCH  13  16
HETATM   16  C   UNL     1      40.715 -14.327   4.217  1.00  0.00     0.035 A 
HETATM   17  C   UNL     1      40.382 -13.564   3.097  1.00  0.00     0.029 A 
HETATM   18  C   UNL     1      39.544 -12.450   3.219  1.00  0.00     0.002 A 
HETATM   19  C   UNL     1      39.036 -12.087   4.463  1.00  0.00     0.000 A 
HETATM   20  C   UNL     1      39.358 -12.842   5.587  1.00  0.00     0.002 A 
HETATM   21  C   UNL     1      40.188 -13.961   5.463  1.00  0.00     0.029 A 
ENDBRANCH  13  16
ENDBRANCH  10  12
BRANCH   1  22
HETATM   22  C   UNL     1      43.075 -17.421   6.035  1.00  0.00     0.083 A 
HETATM   23  O   UNL     1      43.780 -16.286   5.751  1.00  0.00    -0.317 OA
HETATM   24  C   UNL     1      44.069 -15.685   6.938  1.00  0.00     0.049 A 
HETATM   25  C   UNL     1      44.901 -14.466   6.876  1.00  0.00     0.076 C 
HETATM   26  C   UNL     1      43.513 -16.398   7.977  1.00  0.00     0.035 A 
HETATM   27  C   UNL     1      42.866 -17.514   7.397  1.00  0.00     0.038 A 
ENDBRANCH   1  22
TORSDOF 3
ENDMDL
MODEL 7
REMARK VINA RESULT:      -7.4      2.598      5.649
REMARK  3 active torsions:
REMARK  status: ('A' for Active; 'I' for Inactive)
REMARK    1  A    between atoms: C_4  and  C_5 
REMARK    2  A    between atoms: C_14  and  C_15 
REMARK       I    between atoms: C_15  and  N_16 
REMARK    3  A    between atoms: N_16  and  C_17 
ROOT
HETATM    1  C   UNL     1      42.338 -17.129   5.043  1.00  0.00     0.222 C 
HETATM    2  N   UNL     1      43.032 -18.034   5.955  1.00  0.00    -0.090 N 
HETATM    3  C   UNL     1      43.925 -18.991   5.568  1.00  0.00     0.735 A 
HETATM    4  N   UNL     1      44.322 -19.637   6.636  1.00  0.00     0.030 NA
HETATM    5  N   UNL     1      43.621 -19.082   7.692  1.00  0.00     0.033 NA
HETATM    6  N   UNL     1      42.803 -18.120   7.276  1.00  0.00     0.012 NA
HETATM    7  N   UNL     1      44.189 -19.155   4.255  1.00  0.00    -0.191 N 
HETATM    8  C   UNL     1      43.470 -18.505   3.255  1.00  0.00     0.037 C 
HETATM    9  C   UNL     1      43.683 -19.034   1.858  1.00  0.00     0.070 C 
HETATM   10  C   UNL     1      42.593 -17.524   3.589  1.00  0.00     0.064 C 
HETATM   11  H   UNL     1      44.778 -19.937   3.978  1.00  0.00     0.184 HD
ENDROOT
BRANCH  10  12
HETATM   12  C   UNL     1      41.699 -16.821   2.628  1.00  0.00     0.256 C 
HETATM   13  N   UNL     1      42.352 -15.952   1.785  1.00  0.00    -0.323 N 
HETATM   14  H   UNL     1      43.345 -15.824   1.932  1.00  0.00     0.169 HD
HETATM   15  O   UNL     1      40.495 -17.039   2.691  1.00  0.00    -0.267 OA
BRANCH  13  16
HETATM   16  C   UNL     1      41.800 -15.252   0.690  1.00  0.00     0.035 A 
HETATM   17  C   UNL     1      41.382 -15.859  -0.494  1.00  0.00     0.029 A 
HETATM   18  C   UNL     1      40.879 -15.089  -1.549  1.00  0.00     0.002 A 
HETATM   19  C   UNL     1      40.795 -13.705  -1.430  1.00  0.00     0.000 A 
HETATM   20  C   UNL     1      41.206 -13.088  -0.252  1.00  0.00     0.002 A 
HETATM   21  C   UNL     1      41.700 -13.858   0.805  1.00  0.00     0.029 A 
ENDBRANCH  13  16
ENDBRANCH  10  12
BRANCH   1  22
HETATM   22  C   UNL     1      42.727 -15.717   5.368  1.00  0.00     0.083 A 
HETATM   23  O   UNL     1      43.963 -15.520   5.918  1.00  0.00    -0.317 OA
HETATM   24  C   UNL     1      44.076 -14.190   6.186  1.00  0.00     0.049 A 
HETATM   25  C   UNL     1      45.316 -13.756   6.861  1.00  0.00     0.076 C 
HETATM   26  C   UNL     1      42.944 -13.525   5.769  1.00  0.00     0.035 A 
HETATM   27  C   UNL     1      42.076 -14.506   5.235  1.00  0.00     0.038 A 
ENDBRANCH   1  22
TORSDOF 3
ENDMDL
MODEL 8
REMARK VINA RESULT:      -7.4      2.867      6.001
REMARK  3 active torsions:
REMARK  status: ('A' for Active; 'I' for Inactive)
REMARK    1  A    between atoms: C_4  and  C_5 
REMARK    2  A    between atoms: C_14  and  C_15 
REMARK       I    between atoms: C_15  and  N_16 
REMARK    3  A    between atoms: N_16  and  C_17 
ROOT
HETATM    1  C   UNL     1      41.728 -16.935   4.692  1.00  0.00     0.222 C 
HETATM    2  N   UNL     1      42.760 -17.551   5.520  1.00  0.00    -0.090 N 
HETATM    3  C   UNL     1      43.923 -18.083   5.043  1.00  0.00     0.735 A 
HETATM    4  N   UNL     1      44.593 -18.578   6.054  1.00  0.00     0.030 NA
HETATM    5  N   UNL     1      43.796 -18.377   7.166  1.00  0.00     0.033 NA
HETATM    6  N   UNL     1      42.655 -17.776   6.840  1.00  0.00     0.012 NA
HETATM    7  N   UNL     1      44.155 -18.076   3.713  1.00  0.00    -0.191 N 
HETATM    8  C   UNL     1      43.190 -17.701   2.782  1.00  0.00     0.037 C 
HETATM    9  C   UNL     1      43.507 -18.047   1.348  1.00  0.00     0.070 C 
HETATM   10  C   UNL     1      42.030 -17.139   3.208  1.00  0.00     0.064 C 
HETATM   11  H   UNL     1      44.978 -18.565   3.367  1.00  0.00     0.184 HD
ENDROOT
BRANCH  10  12
HETATM   12  C   UNL     1      40.885 -16.783   2.325  1.00  0.00     0.256 C 
HETATM   13  N   UNL     1      40.773 -15.436   2.066  1.00  0.00    -0.323 N 
HETATM   14  H   UNL     1      41.421 -14.819   2.537  1.00  0.00     0.169 HD
HETATM   15  O   UNL     1      40.143 -17.681   1.947  1.00  0.00    -0.267 OA
BRANCH  13  16
HETATM   16  C   UNL     1      39.881 -14.814   1.165  1.00  0.00     0.035 A 
HETATM   17  C   UNL     1      40.237 -14.381  -0.113  1.00  0.00     0.029 A 
HETATM   18  C   UNL     1      39.303 -13.739  -0.933  1.00  0.00     0.002 A 
HETATM   19  C   UNL     1      38.005 -13.519  -0.479  1.00  0.00     0.000 A 
HETATM   20  C   UNL     1      37.636 -13.950   0.792  1.00  0.00     0.002 A 
HETATM   21  C   UNL     1      38.568 -14.600   1.607  1.00  0.00     0.029 A 
ENDBRANCH  13  16
ENDBRANCH  10  12
BRANCH   1  22
HETATM   22  C   UNL     1      41.578 -15.496   5.091  1.00  0.00     0.083 A 
HETATM   23  O   UNL     1      40.307 -15.026   5.268  1.00  0.00    -0.317 OA
HETATM   24  C   UNL     1      40.405 -13.700   5.559  1.00  0.00     0.049 A 
HETATM   25  C   UNL     1      39.136 -12.962   5.718  1.00  0.00     0.076 C 
HETATM   26  C   UNL     1      41.730 -13.326   5.619  1.00  0.00     0.035 A 
HETATM   27  C   UNL     1      42.487 -14.484   5.325  1.00  0.00     0.038 A 
ENDBRANCH   1  22
TORSDOF 3
ENDMDL
MODEL 9
REMARK VINA RESULT:      -7.3      3.285      6.893
REMARK  3 active torsions:
REMARK  status: ('A' for Active; 'I' for Inactive)
REMARK    1  A    between atoms: C_4  and  C_5 
REMARK    2  A    between atoms: C_14  and  C_15 
REMARK       I    between atoms: C_15  and  N_16 
REMARK    3  A    between atoms: N_16  and  C_17 
ROOT
HETATM    1  C   UNL     1      43.420 -15.782   3.836  1.00  0.00     0.222 C 
HETATM    2  N   UNL     1      43.453 -17.080   3.170  1.00  0.00    -0.090 N 
HETATM    3  C   UNL     1      43.079 -18.259   3.749  1.00  0.00     0.735 A 
HETATM    4  N   UNL     1      43.270 -19.221   2.880  1.00  0.00     0.030 NA
HETATM    5  N   UNL     1      43.810 -18.613   1.761  1.00  0.00     0.033 NA
HETATM    6  N   UNL     1      43.955 -17.304   1.944  1.00  0.00     0.012 NA
HETATM    7  N   UNL     1      42.669 -18.262   5.034  1.00  0.00    -0.191 N 
HETATM    8  C   UNL     1      42.763 -17.143   5.858  1.00  0.00     0.037 C 
HETATM    9  C   UNL     1      42.557 -17.405   7.329  1.00  0.00     0.070 C 
HETATM   10  C   UNL     1      43.101 -15.942   5.322  1.00  0.00     0.064 C 
HETATM   11  H   UNL     1      42.491 -19.160   5.478  1.00  0.00     0.184 HD
ENDROOT
BRANCH  10  12
HETATM   12  C   UNL     1      43.326 -14.697   6.106  1.00  0.00     0.256 C 
HETATM   13  N   UNL     1      44.491 -14.696   6.838  1.00  0.00    -0.323 N 
HETATM   14  H   UNL     1      45.043 -15.544   6.829  1.00  0.00     0.169 HD
HETATM   15  O   UNL     1      42.469 -13.823   6.065  1.00  0.00    -0.267 OA
BRANCH  13  16
HETATM   16  C   UNL     1      45.039 -13.617   7.565  1.00  0.00     0.035 A 
HETATM   17  C   UNL     1      44.404 -12.999   8.644  1.00  0.00     0.029 A 
HETATM   18  C   UNL     1      44.998 -11.909   9.290  1.00  0.00     0.002 A 
HETATM   19  C   UNL     1      46.229 -11.424   8.859  1.00  0.00     0.000 A 
HETATM   20  C   UNL     1      46.874 -12.034   7.786  1.00  0.00     0.002 A 
HETATM   21  C   UNL     1      46.284 -13.129   7.147  1.00  0.00     0.029 A 
ENDBRANCH  13  16
ENDBRANCH  10  12
BRANCH   1  22
HETATM   22  C   UNL     1      42.469 -14.882   3.103  1.00  0.00     0.083 A 
HETATM   23  O   UNL     1      41.178 -15.311   2.971  1.00  0.00    -0.317 OA
HETATM   24  C   UNL     1      40.519 -14.381   2.228  1.00  0.00     0.049 A 
HETATM   25  C   UNL     1      39.112 -14.678   1.893  1.00  0.00     0.076 C 
HETATM   26  C   UNL     1      41.362 -13.335   1.922  1.00  0.00     0.035 A 
HETATM   27  C   UNL     1      42.618 -13.653   2.491  1.00  0.00     0.038 A 
ENDBRANCH   1  22
TORSDOF 3
ENDMDL
MODEL 10
REMARK VINA RESULT:      -7.3      2.526      5.822
REMARK  3 active torsions:
REMARK  status: ('A' for Active; 'I' for Inactive)
REMARK    1  A    between atoms: C_4  and  C_5 
REMARK    2  A    between atoms: C_14  and  C_15 
REMARK       I    between atoms: C_15  and  N_16 
REMARK    3  A    between atoms: N_16  and  C_17 
ROOT
HETATM    1  C   UNL     1      43.785 -17.202   4.624  1.00  0.00     0.222 C 
HETATM    2  N   UNL     1      43.948 -17.654   6.003  1.00  0.00    -0.090 N 
HETATM    3  C   UNL     1      43.004 -17.519   6.980  1.00  0.00     0.735 A 
HETATM    4  N   UNL     1      43.496 -17.999   8.095  1.00  0.00     0.030 NA
HETATM    5  N   UNL     1      44.786 -18.398   7.793  1.00  0.00     0.033 NA
HETATM    6  N   UNL     1      45.081 -18.159   6.519  1.00  0.00     0.012 NA
HETATM    7  N   UNL     1      41.836 -16.907   6.690  1.00  0.00    -0.191 N 
HETATM    8  C   UNL     1      41.608 -16.255   5.481  1.00  0.00     0.037 C 
HETATM    9  C   UNL     1      40.387 -15.369   5.446  1.00  0.00     0.070 C 
HETATM   10  C   UNL     1      42.504 -16.385   4.469  1.00  0.00     0.064 C 
HETATM   11  H   UNL     1      41.188 -16.726   7.452  1.00  0.00     0.184 HD
ENDROOT
BRANCH  10  12
HETATM   12  C   UNL     1      42.423 -15.667   3.167  1.00  0.00     0.256 C 
HETATM   13  N   UNL     1      41.409 -16.104   2.346  1.00  0.00    -0.323 N 
HETATM   14  H   UNL     1      40.864 -16.894   2.664  1.00  0.00     0.169 HD
HETATM   15  O   UNL     1      43.260 -14.805   2.928  1.00  0.00    -0.267 OA
BRANCH  13  16
HETATM   16  C   UNL     1      41.001 -15.533   1.120  1.00  0.00     0.035 A 
HETATM   17  C   UNL     1      41.405 -16.000  -0.132  1.00  0.00     0.029 A 
HETATM   18  C   UNL     1      40.985 -15.356  -1.301  1.00  0.00     0.002 A 
HETATM   19  C   UNL     1      40.163 -14.235  -1.228  1.00  0.00     0.000 A 
HETATM   20  C   UNL     1      39.751 -13.761   0.015  1.00  0.00     0.002 A 
HETATM   21  C   UNL     1      40.163 -14.412   1.182  1.00  0.00     0.029 A 
ENDBRANCH  13  16
ENDBRANCH  10  12
BRANCH   1  22
HETATM   22  C   UNL     1      43.866 -18.389   3.709  1.00  0.00     0.083 A 
HETATM   23  O   UNL     1      44.128 -19.602   4.281  1.00  0.00    -0.317 OA
HETATM   24  C   UNL     1      44.219 -20.511   3.273  1.00  0.00     0.049 A 
HETATM   25  C   UNL     1      44.575 -21.891   3.657  1.00  0.00     0.076 C 
HETATM   26  C   UNL     1      43.970 -19.901   2.062  1.00  0.00     0.035 A 
HETATM   27  C   UNL     1      43.736 -18.535   2.342  1.00  0.00     0.038 A 
ENDBRANCH   1  22
TORSDOF 3
ENDMDL
