MODEL 1
REMARK VINA RESULT:      -8.1      0.000      0.000
REMARK  5 active torsions:
REMARK  status: ('A' for Active; 'I' for Inactive)
REMARK    1  A    between atoms: C_9  and  C_10 
REMARK    2  A    between atoms: C_10  and  N_11 
REMARK    3  A    between atoms: N_11  and  C_12 
REMARK    4  A    between atoms: C_13  and  O_14 
REMARK    5  A    between atoms: C_16  and  O_17 
ROOT
HETATM    1  C   UNL     1      44.350 -22.189   1.675  1.00  0.00     0.048 C 
HETATM    2  C   UNL     1      44.220 -20.947   2.508  1.00  0.00    -0.061 A 
HETATM    3  C   UNL     1      43.419 -19.879   2.077  1.00  0.00     0.020 A 
HETATM    4  C   UNL     1      43.274 -18.737   2.871  1.00  0.00    -0.008 A 
HETATM    5  C   UNL     1      43.926 -18.673   4.106  1.00  0.00     0.045 A 
HETATM    6  N   UNL     1      43.767 -17.536   4.904  1.00  0.00    -0.322 N 
HETATM    7  C   UNL     1      42.995 -16.459   4.553  1.00  0.00     0.253 A 
HETATM    8  O   UNL     1      42.858 -15.512   5.321  1.00  0.00    -0.268 OA
HETATM    9  C   UNL     1      42.326 -16.510   3.218  1.00  0.00     0.024 A 
HETATM   10  C   UNL     1      42.452 -17.606   2.445  1.00  0.00     0.027 A 
HETATM   11  C   UNL     1      44.716 -19.731   4.552  1.00  0.00     0.031 A 
HETATM   12  C   UNL     1      44.857 -20.867   3.754  1.00  0.00     0.009 A 
HETATM   13  H   UNL     1      44.216 -17.479   5.808  1.00  0.00     0.169 HD
ENDROOT
BRANCH   9  14
HETATM   14  C   UNL     1      41.477 -15.331   2.841  1.00  0.00     0.136 C 
BRANCH  14  15
HETATM   15  N   UNL     1      40.343 -15.260   3.761  1.00  0.00    -0.286 NA
HETATM   16  H   UNL     1      40.494 -15.848   4.584  1.00  0.00     0.128 HD
BRANCH  15  17
HETATM   17  C   UNL     1      39.896 -13.996   4.195  1.00  0.00     0.042 A 
HETATM   18  C   UNL     1      39.848 -13.766   5.583  1.00  0.00     0.089 A 
HETATM   19  C   UNL     1      39.460 -12.549   6.132  1.00  0.00     0.074 A 
HETATM   20  C   UNL     1      39.077 -11.532   5.269  1.00  0.00     0.068 A 
HETATM   21  C   UNL     1      39.076 -11.730   3.892  1.00  0.00     0.038 A 
HETATM   22  C   UNL     1      39.477 -12.961   3.356  1.00  0.00     0.029 A 
BRANCH  18  23
HETATM   23  O   UNL     1      40.149 -14.797   6.435  1.00  0.00    -0.359 OA
HETATM   24  H   UNL     1      39.435 -15.446   6.269  1.00  0.00     0.218 HD
ENDBRANCH  18  23
BRANCH  20  25
HETATM   25  O   UNL     1      38.678 -10.315   5.736  1.00  0.00    -0.361 OA
HETATM   26  H   UNL     1      39.072  -9.627   5.174  1.00  0.00     0.217 HD
ENDBRANCH  20  25
ENDBRANCH  15  17
ENDBRANCH  14  15
ENDBRANCH   9  14
TORSDOF 5
ENDMDL
MODEL 2
REMARK VINA RESULT:      -8.1      4.028      5.077
REMARK  5 active torsions:
REMARK  status: ('A' for Active; 'I' for Inactive)
REMARK    1  A    between atoms: C_9  and  C_10 
REMARK    2  A    between atoms: C_10  and  N_11 
REMARK    3  A    between atoms: N_11  and  C_12 
REMARK    4  A    between atoms: C_13  and  O_14 
REMARK    5  A    between atoms: C_16  and  O_17 
ROOT
HETATM    1  C   UNL     1      44.535 -21.951   1.951  1.00  0.00     0.048 C 
HETATM    2  C   UNL     1      44.115 -20.616   2.493  1.00  0.00    -0.061 A 
HETATM    3  C   UNL     1      43.231 -19.799   1.772  1.00  0.00     0.020 A 
HETATM    4  C   UNL     1      42.815 -18.571   2.297  1.00  0.00    -0.008 A 
HETATM    5  C   UNL     1      43.280 -18.168   3.552  1.00  0.00     0.045 A 
HETATM    6  N   UNL     1      42.851 -16.946   4.080  1.00  0.00    -0.322 N 
HETATM    7  C   UNL     1      41.984 -16.100   3.439  1.00  0.00     0.253 A 
HETATM    8  O   UNL     1      41.608 -15.064   3.978  1.00  0.00    -0.268 OA
HETATM    9  C   UNL     1      41.514 -16.511   2.081  1.00  0.00     0.024 A 
HETATM   10  C   UNL     1      41.901 -17.694   1.566  1.00  0.00     0.027 A 
HETATM   11  C   UNL     1      44.149 -18.974   4.284  1.00  0.00     0.031 A 
HETATM   12  C   UNL     1      44.560 -20.198   3.754  1.00  0.00     0.009 A 
HETATM   13  H   UNL     1      43.162 -16.646   4.993  1.00  0.00     0.169 HD
ENDROOT
BRANCH   9  14
HETATM   14  C   UNL     1      40.560 -15.585   1.385  1.00  0.00     0.136 C 
BRANCH  14  15
HETATM   15  N   UNL     1      40.527 -15.932  -0.036  1.00  0.00    -0.286 NA
HETATM   16  H   UNL     1      39.585 -16.190  -0.333  1.00  0.00     0.128 HD
BRANCH  15  17
HETATM   17  C   UNL     1      41.054 -15.020  -0.971  1.00  0.00     0.042 A 
HETATM   18  C   UNL     1      40.824 -15.283  -2.335  1.00  0.00     0.089 A 
HETATM   19  C   UNL     1      41.261 -14.439  -3.349  1.00  0.00     0.074 A 
HETATM   20  C   UNL     1      41.980 -13.306  -2.997  1.00  0.00     0.068 A 
HETATM   21  C   UNL     1      42.259 -13.028  -1.663  1.00  0.00     0.038 A 
HETATM   22  C   UNL     1      41.805 -13.886  -0.653  1.00  0.00     0.029 A 
BRANCH  18  23
HETATM   23  O   UNL     1      40.184 -16.444  -2.685  1.00  0.00    -0.359 OA
HETATM   24  H   UNL     1      39.777 -16.743  -1.846  1.00  0.00     0.218 HD
ENDBRANCH  18  23
BRANCH  20  25
HETATM   25  O   UNL     1      42.447 -12.437  -3.939  1.00  0.00    -0.361 OA
HETATM   26  H   UNL     1      42.489 -11.551  -3.542  1.00  0.00     0.217 HD
ENDBRANCH  20  25
ENDBRANCH  15  17
ENDBRANCH  14  15
ENDBRANCH   9  14
TORSDOF 5
ENDMDL
MODEL 3
REMARK VINA RESULT:      -8.0      3.187      4.232
REMARK  5 active torsions:
REMARK  status: ('A' for Active; 'I' for Inactive)
REMARK    1  A    between atoms: C_9  and  C_10 
REMARK    2  A    between atoms: C_10  and  N_11 
REMARK    3  A    between atoms: N_11  and  C_12 
REMARK    4  A    between atoms: C_13  and  O_14 
REMARK    5  A    between atoms: C_16  and  O_17 
ROOT
HETATM    1  C   UNL     1      45.337 -22.602   5.084  1.00  0.00     0.048 C 
HETATM    2  C   UNL     1      44.742 -21.661   4.077  1.00  0.00    -0.061 A 
HETATM    3  C   UNL     1      44.624 -20.292   4.361  1.00  0.00     0.020 A 
HETATM    4  C   UNL     1      44.100 -19.414   3.407  1.00  0.00    -0.008 A 
HETATM    5  C   UNL     1      43.704 -19.911   2.162  1.00  0.00     0.045 A 
HETATM    6  N   UNL     1      43.194 -19.027   1.205  1.00  0.00    -0.322 N 
HETATM    7  C   UNL     1      43.057 -17.679   1.408  1.00  0.00     0.253 A 
HETATM    8  O   UNL     1      42.648 -16.950   0.509  1.00  0.00    -0.268 OA
HETATM    9  C   UNL     1      43.446 -17.151   2.750  1.00  0.00     0.024 A 
HETATM   10  C   UNL     1      43.958 -17.984   3.677  1.00  0.00     0.027 A 
HETATM   11  C   UNL     1      43.826 -21.266   1.862  1.00  0.00     0.031 A 
HETATM   12  C   UNL     1      44.349 -22.137   2.819  1.00  0.00     0.009 A 
HETATM   13  H   UNL     1      42.919 -19.364   0.293  1.00  0.00     0.169 HD
ENDROOT
BRANCH   9  14
HETATM   14  C   UNL     1      43.300 -15.673   2.966  1.00  0.00     0.136 C 
BRANCH  14  15
HETATM   15  N   UNL     1      42.340 -15.453   4.049  1.00  0.00    -0.286 NA
HETATM   16  H   UNL     1      41.428 -15.853   3.823  1.00  0.00     0.128 HD
BRANCH  15  17
HETATM   17  C   UNL     1      42.687 -15.847   5.356  1.00  0.00     0.042 A 
HETATM   18  C   UNL     1      41.860 -16.794   5.989  1.00  0.00     0.089 A 
HETATM   19  C   UNL     1      42.119 -17.288   7.263  1.00  0.00     0.074 A 
HETATM   20  C   UNL     1      43.225 -16.801   7.944  1.00  0.00     0.068 A 
HETATM   21  C   UNL     1      44.047 -15.838   7.368  1.00  0.00     0.038 A 
HETATM   22  C   UNL     1      43.776 -15.357   6.081  1.00  0.00     0.029 A 
BRANCH  18  23
HETATM   23  O   UNL     1      40.724 -17.215   5.346  1.00  0.00    -0.359 OA
HETATM   24  H   UNL     1      40.002 -16.828   5.883  1.00  0.00     0.218 HD
ENDBRANCH  18  23
BRANCH  20  25
HETATM   25  O   UNL     1      43.535 -17.234   9.199  1.00  0.00    -0.361 OA
HETATM   26  H   UNL     1      44.499 -17.180   9.311  1.00  0.00     0.217 HD
ENDBRANCH  20  25
ENDBRANCH  15  17
ENDBRANCH  14  15
ENDBRANCH   9  14
TORSDOF 5
ENDMDL
MODEL 4
REMARK VINA RESULT:      -7.9      2.150      2.867
REMARK  5 active torsions:
REMARK  status: ('A' for Active; 'I' for Inactive)
REMARK    1  A    between atoms: C_9  and  C_10 
REMARK    2  A    between atoms: C_10  and  N_11 
REMARK    3  A    between atoms: N_11  and  C_12 
REMARK    4  A    between atoms: C_13  and  O_14 
REMARK    5  A    between atoms: C_16  and  O_17 
ROOT
HETATM    1  C   UNL     1      44.497 -21.868   1.687  1.00  0.00     0.048 C 
HETATM    2  C   UNL     1      44.473 -21.344   3.093  1.00  0.00    -0.061 A 
HETATM    3  C   UNL     1      44.355 -19.967   3.340  1.00  0.00     0.020 A 
HETATM    4  C   UNL     1      44.300 -19.486   4.652  1.00  0.00    -0.008 A 
HETATM    5  C   UNL     1      44.352 -20.390   5.717  1.00  0.00     0.045 A 
HETATM    6  N   UNL     1      44.281 -19.906   7.028  1.00  0.00    -0.322 N 
HETATM    7  C   UNL     1      44.157 -18.579   7.345  1.00  0.00     0.253 A 
HETATM    8  O   UNL     1      44.051 -18.223   8.515  1.00  0.00    -0.268 OA
HETATM    9  C   UNL     1      44.137 -17.608   6.210  1.00  0.00     0.024 A 
HETATM   10  C   UNL     1      44.184 -18.057   4.941  1.00  0.00     0.027 A 
HETATM   11  C   UNL     1      44.458 -21.760   5.487  1.00  0.00     0.031 A 
HETATM   12  C   UNL     1      44.514 -22.233   4.175  1.00  0.00     0.009 A 
HETATM   13  H   UNL     1      44.300 -20.545   7.810  1.00  0.00     0.169 HD
ENDROOT
BRANCH   9  14
HETATM   14  C   UNL     1      43.995 -16.156   6.562  1.00  0.00     0.136 C 
BRANCH  14  15
HETATM   15  N   UNL     1      42.574 -15.855   6.735  1.00  0.00    -0.286 NA
HETATM   16  H   UNL     1      42.374 -15.537   7.685  1.00  0.00     0.128 HD
BRANCH  15  17
HETATM   17  C   UNL     1      41.950 -14.973   5.831  1.00  0.00     0.042 A 
HETATM   18  C   UNL     1      40.558 -15.093   5.662  1.00  0.00     0.089 A 
HETATM   19  C   UNL     1      39.825 -14.257   4.827  1.00  0.00     0.074 A 
HETATM   20  C   UNL     1      40.506 -13.284   4.110  1.00  0.00     0.068 A 
HETATM   21  C   UNL     1      41.887 -13.155   4.221  1.00  0.00     0.038 A 
HETATM   22  C   UNL     1      42.609 -14.002   5.072  1.00  0.00     0.029 A 
BRANCH  18  23
HETATM   23  O   UNL     1      39.899 -16.106   6.310  1.00  0.00    -0.359 OA
HETATM   24  H   UNL     1      39.383 -15.639   6.999  1.00  0.00     0.218 HD
ENDBRANCH  18  23
BRANCH  20  25
HETATM   25  O   UNL     1      39.854 -12.434   3.266  1.00  0.00    -0.361 OA
HETATM   26  H   UNL     1      40.318 -11.580   3.274  1.00  0.00     0.217 HD
ENDBRANCH  20  25
ENDBRANCH  15  17
ENDBRANCH  14  15
ENDBRANCH   9  14
TORSDOF 5
ENDMDL
MODEL 5
REMARK VINA RESULT:      -7.8      2.018      2.461
REMARK  5 active torsions:
REMARK  status: ('A' for Active; 'I' for Inactive)
REMARK    1  A    between atoms: C_9  and  C_10 
REMARK    2  A    between atoms: C_10  and  N_11 
REMARK    3  A    between atoms: N_11  and  C_12 
REMARK    4  A    between atoms: C_13  and  O_14 
REMARK    5  A    between atoms: C_16  and  O_17 
ROOT
HETATM    1  C   UNL     1      44.377 -21.900   1.727  1.00  0.00     0.048 C 
HETATM    2  C   UNL     1      44.305 -20.747   2.685  1.00  0.00    -0.061 A 
HETATM    3  C   UNL     1      43.690 -19.543   2.310  1.00  0.00     0.020 A 
HETATM    4  C   UNL     1      43.596 -18.484   3.217  1.00  0.00    -0.008 A 
HETATM    5  C   UNL     1      44.111 -18.637   4.508  1.00  0.00     0.045 A 
HETATM    6  N   UNL     1      44.002 -17.580   5.417  1.00  0.00    -0.322 N 
HETATM    7  C   UNL     1      43.408 -16.380   5.125  1.00  0.00     0.253 A 
HETATM    8  O   UNL     1      43.302 -15.510   5.983  1.00  0.00    -0.268 OA
HETATM    9  C   UNL     1      42.889 -16.200   3.735  1.00  0.00     0.024 A 
HETATM   10  C   UNL     1      42.967 -17.215   2.853  1.00  0.00     0.027 A 
HETATM   11  C   UNL     1      44.715 -19.831   4.898  1.00  0.00     0.031 A 
HETATM   12  C   UNL     1      44.806 -20.884   3.987  1.00  0.00     0.009 A 
HETATM   13  H   UNL     1      44.353 -17.678   6.360  1.00  0.00     0.169 HD
ENDROOT
BRANCH   9  14
HETATM   14  C   UNL     1      42.234 -14.887   3.421  1.00  0.00     0.136 C 
BRANCH  14  15
HETATM   15  N   UNL     1      40.808 -14.992   3.729  1.00  0.00    -0.286 NA
HETATM   16  H   UNL     1      40.621 -14.766   4.707  1.00  0.00     0.128 HD
BRANCH  15  17
HETATM   17  C   UNL     1      39.886 -14.291   2.927  1.00  0.00     0.042 A 
HETATM   18  C   UNL     1      39.099 -15.043   2.033  1.00  0.00     0.089 A 
HETATM   19  C   UNL     1      38.131 -14.471   1.217  1.00  0.00     0.074 A 
HETATM   20  C   UNL     1      37.957 -13.095   1.269  1.00  0.00     0.068 A 
HETATM   21  C   UNL     1      38.739 -12.312   2.112  1.00  0.00     0.038 A 
HETATM   22  C   UNL     1      39.706 -12.906   2.933  1.00  0.00     0.029 A 
BRANCH  18  23
HETATM   23  O   UNL     1      39.327 -16.391   1.926  1.00  0.00    -0.359 OA
HETATM   24  H   UNL     1      40.304 -16.456   1.894  1.00  0.00     0.218 HD
ENDBRANCH  18  23
BRANCH  20  25
HETATM   25  O   UNL     1      37.032 -12.464   0.491  1.00  0.00    -0.361 OA
HETATM   26  H   UNL     1      37.498 -12.005  -0.227  1.00  0.00     0.217 HD
ENDBRANCH  20  25
ENDBRANCH  15  17
ENDBRANCH  14  15
ENDBRANCH   9  14
TORSDOF 5
ENDMDL
MODEL 6
REMARK VINA RESULT:      -7.7      2.398      3.068
REMARK  5 active torsions:
REMARK  status: ('A' for Active; 'I' for Inactive)
REMARK    1  A    between atoms: C_9  and  C_10 
REMARK    2  A    between atoms: C_10  and  N_11 
REMARK    3  A    between atoms: N_11  and  C_12 
REMARK    4  A    between atoms: C_13  and  O_14 
REMARK    5  A    between atoms: C_16  and  O_17 
ROOT
HETATM    1  C   UNL     1      45.345 -22.489   5.111  1.00  0.00     0.048 C 
HETATM    2  C   UNL     1      44.710 -21.540   4.138  1.00  0.00    -0.061 A 
HETATM    3  C   UNL     1      44.408 -20.223   4.518  1.00  0.00     0.020 A 
HETATM    4  C   UNL     1      43.846 -19.332   3.598  1.00  0.00    -0.008 A 
HETATM    5  C   UNL     1      43.598 -19.761   2.291  1.00  0.00     0.045 A 
HETATM    6  N   UNL     1      43.050 -18.862   1.369  1.00  0.00    -0.322 N 
HETATM    7  C   UNL     1      42.738 -17.561   1.666  1.00  0.00     0.253 A 
HETATM    8  O   UNL     1      42.305 -16.809   0.798  1.00  0.00    -0.268 OA
HETATM    9  C   UNL     1      42.968 -17.110   3.071  1.00  0.00     0.024 A 
HETATM   10  C   UNL     1      43.514 -17.956   3.967  1.00  0.00     0.027 A 
HETATM   11  C   UNL     1      43.903 -21.061   1.896  1.00  0.00     0.031 A 
HETATM   12  C   UNL     1      44.462 -21.946   2.820  1.00  0.00     0.009 A 
HETATM   13  H   UNL     1      42.880 -19.148   0.415  1.00  0.00     0.169 HD
ENDROOT
BRANCH   9  14
HETATM   14  C   UNL     1      42.630 -15.683   3.390  1.00  0.00     0.136 C 
BRANCH  14  15
HETATM   15  N   UNL     1      41.217 -15.612   3.763  1.00  0.00    -0.286 NA
HETATM   16  H   UNL     1      41.106 -15.459   4.767  1.00  0.00     0.128 HD
BRANCH  15  17
HETATM   17  C   UNL     1      40.378 -14.710   3.080  1.00  0.00     0.042 A 
HETATM   18  C   UNL     1      39.431 -15.251   2.189  1.00  0.00     0.089 A 
HETATM   19  C   UNL     1      38.525 -14.467   1.486  1.00  0.00     0.074 A 
HETATM   20  C   UNL     1      38.581 -13.090   1.650  1.00  0.00     0.068 A 
HETATM   21  C   UNL     1      39.525 -12.513   2.493  1.00  0.00     0.038 A 
HETATM   22  C   UNL     1      40.427 -13.319   3.200  1.00  0.00     0.029 A 
BRANCH  18  23
HETATM   23  O   UNL     1      39.430 -16.604   1.968  1.00  0.00    -0.359 OA
HETATM   24  H   UNL     1      38.746 -16.936   2.584  1.00  0.00     0.218 HD
ENDBRANCH  18  23
BRANCH  20  25
HETATM   25  O   UNL     1      37.728 -12.258   0.986  1.00  0.00    -0.361 OA
HETATM   26  H   UNL     1      37.709 -12.523   0.052  1.00  0.00     0.217 HD
ENDBRANCH  20  25
ENDBRANCH  15  17
ENDBRANCH  14  15
ENDBRANCH   9  14
TORSDOF 5
ENDMDL
MODEL 7
REMARK VINA RESULT:      -7.6      1.425      1.991
REMARK  5 active torsions:
REMARK  status: ('A' for Active; 'I' for Inactive)
REMARK    1  A    between atoms: C_9  and  C_10 
REMARK    2  A    between atoms: C_10  and  N_11 
REMARK    3  A    between atoms: N_11  and  C_12 
REMARK    4  A    between atoms: C_13  and  O_14 
REMARK    5  A    between atoms: C_16  and  O_17 
ROOT
HETATM    1  C   UNL     1      45.377 -22.388   5.072  1.00  0.00     0.048 C 
HETATM    2  C   UNL     1      44.679 -21.393   4.192  1.00  0.00    -0.061 A 
HETATM    3  C   UNL     1      44.290 -20.143   4.697  1.00  0.00     0.020 A 
HETATM    4  C   UNL     1      43.669 -19.206   3.865  1.00  0.00    -0.008 A 
HETATM    5  C   UNL     1      43.449 -19.522   2.521  1.00  0.00     0.045 A 
HETATM    6  N   UNL     1      42.840 -18.576   1.688  1.00  0.00    -0.322 N 
HETATM    7  C   UNL     1      42.442 -17.334   2.107  1.00  0.00     0.253 A 
HETATM    8  O   UNL     1      41.959 -16.532   1.314  1.00  0.00    -0.268 OA
HETATM    9  C   UNL     1      42.644 -17.007   3.551  1.00  0.00     0.024 A 
HETATM   10  C   UNL     1      43.247 -17.898   4.363  1.00  0.00     0.027 A 
HETATM   11  C   UNL     1      43.839 -20.754   2.003  1.00  0.00     0.031 A 
HETATM   12  C   UNL     1      44.457 -21.685   2.840  1.00  0.00     0.009 A 
HETATM   13  H   UNL     1      42.689 -18.779   0.710  1.00  0.00     0.169 HD
ENDROOT
BRANCH   9  14
HETATM   14  C   UNL     1      42.212 -15.644   4.005  1.00  0.00     0.136 C 
BRANCH  14  15
HETATM   15  N   UNL     1      40.754 -15.633   4.125  1.00  0.00    -0.286 NA
HETATM   16  H   UNL     1      40.441 -16.212   4.907  1.00  0.00     0.128 HD
BRANCH  15  17
HETATM   17  C   UNL     1      40.086 -14.395   4.194  1.00  0.00     0.042 A 
HETATM   18  C   UNL     1      39.753 -13.908   5.472  1.00  0.00     0.089 A 
HETATM   19  C   UNL     1      39.126 -12.684   5.673  1.00  0.00     0.074 A 
HETATM   20  C   UNL     1      38.791 -11.928   4.558  1.00  0.00     0.068 A 
HETATM   21  C   UNL     1      39.070 -12.389   3.276  1.00  0.00     0.038 A 
HETATM   22  C   UNL     1      39.709 -13.622   3.093  1.00  0.00     0.029 A 
BRANCH  18  23
HETATM   23  O   UNL     1      40.012 -14.693   6.567  1.00  0.00    -0.359 OA
HETATM   24  H   UNL     1      40.287 -14.048   7.250  1.00  0.00     0.218 HD
ENDBRANCH  18  23
BRANCH  20  25
HETATM   25  O   UNL     1      38.168 -10.720   4.678  1.00  0.00    -0.361 OA
HETATM   26  H   UNL     1      38.656 -10.071   4.144  1.00  0.00     0.217 HD
ENDBRANCH  20  25
ENDBRANCH  15  17
ENDBRANCH  14  15
ENDBRANCH   9  14
TORSDOF 5
ENDMDL
MODEL 8
REMARK VINA RESULT:      -7.5      3.137      7.641
REMARK  5 active torsions:
REMARK  status: ('A' for Active; 'I' for Inactive)
REMARK    1  A    between atoms: C_9  and  C_10 
REMARK    2  A    between atoms: C_10  and  N_11 
REMARK    3  A    between atoms: N_11  and  C_12 
REMARK    4  A    between atoms: C_13  and  O_14 
REMARK    5  A    between atoms: C_16  and  O_17 
ROOT
HETATM    1  C   UNL     1      40.946 -15.147  -3.140  1.00  0.00     0.048 C 
HETATM    2  C   UNL     1      40.717 -15.072  -1.659  1.00  0.00    -0.061 A 
HETATM    3  C   UNL     1      41.339 -15.984  -0.793  1.00  0.00     0.020 A 
HETATM    4  C   UNL     1      41.149 -15.889   0.590  1.00  0.00    -0.008 A 
HETATM    5  C   UNL     1      40.342 -14.870   1.103  1.00  0.00     0.045 A 
HETATM    6  N   UNL     1      40.166 -14.771   2.488  1.00  0.00    -0.322 N 
HETATM    7  C   UNL     1      40.748 -15.618   3.394  1.00  0.00     0.253 A 
HETATM    8  O   UNL     1      40.592 -15.447   4.599  1.00  0.00    -0.268 OA
HETATM    9  C   UNL     1      41.582 -16.730   2.845  1.00  0.00     0.024 A 
HETATM   10  C   UNL     1      41.778 -16.829   1.516  1.00  0.00     0.027 A 
HETATM   11  C   UNL     1      39.727 -13.951   0.257  1.00  0.00     0.031 A 
HETATM   12  C   UNL     1      39.920 -14.051  -1.122  1.00  0.00     0.009 A 
HETATM   13  H   UNL     1      39.601 -14.030   2.879  1.00  0.00     0.169 HD
ENDROOT
BRANCH   9  14
HETATM   14  C   UNL     1      42.221 -17.652   3.842  1.00  0.00     0.136 C 
BRANCH  14  15
HETATM   15  N   UNL     1      43.543 -18.033   3.342  1.00  0.00    -0.286 NA
HETATM   16  H   UNL     1      44.284 -17.523   3.827  1.00  0.00     0.128 HD
BRANCH  15  17
HETATM   17  C   UNL     1      43.891 -19.398   3.310  1.00  0.00     0.042 A 
HETATM   18  C   UNL     1      44.533 -19.930   4.445  1.00  0.00     0.089 A 
HETATM   19  C   UNL     1      44.892 -21.269   4.548  1.00  0.00     0.074 A 
HETATM   20  C   UNL     1      44.631 -22.104   3.471  1.00  0.00     0.068 A 
HETATM   21  C   UNL     1      44.030 -21.610   2.317  1.00  0.00     0.038 A 
HETATM   22  C   UNL     1      43.668 -20.259   2.233  1.00  0.00     0.029 A 
BRANCH  18  23
HETATM   23  O   UNL     1      44.862 -19.087   5.475  1.00  0.00    -0.359 OA
HETATM   24  H   UNL     1      45.273 -19.682   6.134  1.00  0.00     0.218 HD
ENDBRANCH  18  23
BRANCH  20  25
HETATM   25  O   UNL     1      44.963 -23.426   3.498  1.00  0.00    -0.361 OA
HETATM   26  H   UNL     1      44.220 -23.935   3.131  1.00  0.00     0.217 HD
ENDBRANCH  20  25
ENDBRANCH  15  17
ENDBRANCH  14  15
ENDBRANCH   9  14
TORSDOF 5
ENDMDL
MODEL 9
REMARK VINA RESULT:      -7.4      3.696      6.648
REMARK  5 active torsions:
REMARK  status: ('A' for Active; 'I' for Inactive)
REMARK    1  A    between atoms: C_9  and  C_10 
REMARK    2  A    between atoms: C_10  and  N_11 
REMARK    3  A    between atoms: N_11  and  C_12 
REMARK    4  A    between atoms: C_13  and  O_14 
REMARK    5  A    between atoms: C_16  and  O_17 
ROOT
HETATM    1  C   UNL     1      37.576 -13.331   0.985  1.00  0.00     0.048 C 
HETATM    2  C   UNL     1      38.883 -14.051   0.826  1.00  0.00    -0.061 A 
HETATM    3  C   UNL     1      39.241 -15.085   1.704  1.00  0.00     0.020 A 
HETATM    4  C   UNL     1      40.445 -15.775   1.531  1.00  0.00    -0.008 A 
HETATM    5  C   UNL     1      41.285 -15.433   0.468  1.00  0.00     0.045 A 
HETATM    6  N   UNL     1      42.482 -16.136   0.290  1.00  0.00    -0.322 N 
HETATM    7  C   UNL     1      42.893 -17.161   1.101  1.00  0.00     0.253 A 
HETATM    8  O   UNL     1      43.931 -17.770   0.862  1.00  0.00    -0.268 OA
HETATM    9  C   UNL     1      42.014 -17.504   2.260  1.00  0.00     0.024 A 
HETATM   10  C   UNL     1      40.848 -16.852   2.435  1.00  0.00     0.027 A 
HETATM   11  C   UNL     1      40.938 -14.417  -0.419  1.00  0.00     0.031 A 
HETATM   12  C   UNL     1      39.735 -13.731  -0.240  1.00  0.00     0.009 A 
HETATM   13  H   UNL     1      43.094 -15.916  -0.483  1.00  0.00     0.169 HD
ENDROOT
BRANCH   9  14
HETATM   14  C   UNL     1      42.465 -18.631   3.142  1.00  0.00     0.136 C 
BRANCH  14  15
HETATM   15  N   UNL     1      43.667 -18.208   3.860  1.00  0.00    -0.286 NA
HETATM   16  H   UNL     1      44.110 -17.408   3.403  1.00  0.00     0.128 HD
BRANCH  15  17
HETATM   17  C   UNL     1      43.576 -17.937   5.240  1.00  0.00     0.042 A 
HETATM   18  C   UNL     1      44.155 -18.868   6.123  1.00  0.00     0.089 A 
HETATM   19  C   UNL     1      44.162 -18.695   7.502  1.00  0.00     0.074 A 
HETATM   20  C   UNL     1      43.543 -17.568   8.025  1.00  0.00     0.068 A 
HETATM   21  C   UNL     1      42.928 -16.642   7.189  1.00  0.00     0.038 A 
HETATM   22  C   UNL     1      42.937 -16.829   5.801  1.00  0.00     0.029 A 
BRANCH  18  23
HETATM   23  O   UNL     1      44.695 -20.020   5.610  1.00  0.00    -0.359 OA
HETATM   24  H   UNL     1      45.226 -19.704   4.850  1.00  0.00     0.218 HD
ENDBRANCH  18  23
BRANCH  20  25
HETATM   25  O   UNL     1      43.504 -17.336   9.369  1.00  0.00    -0.361 OA
HETATM   26  H   UNL     1      44.022 -18.028   9.813  1.00  0.00     0.217 HD
ENDBRANCH  20  25
ENDBRANCH  15  17
ENDBRANCH  14  15
ENDBRANCH   9  14
TORSDOF 5
ENDMDL
MODEL 10
REMARK VINA RESULT:      -7.2      4.288      5.600
REMARK  5 active torsions:
REMARK  status: ('A' for Active; 'I' for Inactive)
REMARK    1  A    between atoms: C_9  and  C_10 
REMARK    2  A    between atoms: C_10  and  N_11 
REMARK    3  A    between atoms: N_11  and  C_12 
REMARK    4  A    between atoms: C_13  and  O_14 
REMARK    5  A    between atoms: C_16  and  O_17 
ROOT
HETATM    1  C   UNL     1      45.084 -18.174   6.879  1.00  0.00     0.048 C 
HETATM    2  C   UNL     1      43.913 -17.689   6.075  1.00  0.00    -0.061 A 
HETATM    3  C   UNL     1      43.960 -17.691   4.673  1.00  0.00     0.020 A 
HETATM    4  C   UNL     1      42.854 -17.270   3.928  1.00  0.00    -0.008 A 
HETATM    5  C   UNL     1      41.696 -16.856   4.592  1.00  0.00     0.045 A 
HETATM    6  N   UNL     1      40.587 -16.448   3.842  1.00  0.00    -0.322 N 
HETATM    7  C   UNL     1      40.556 -16.432   2.473  1.00  0.00     0.253 A 
HETATM    8  O   UNL     1      39.535 -16.110   1.874  1.00  0.00    -0.268 OA
HETATM    9  C   UNL     1      41.805 -16.840   1.760  1.00  0.00     0.024 A 
HETATM   10  C   UNL     1      42.875 -17.254   2.465  1.00  0.00     0.027 A 
HETATM   11  C   UNL     1      41.632 -16.859   5.983  1.00  0.00     0.031 A 
HETATM   12  C   UNL     1      42.739 -17.279   6.721  1.00  0.00     0.009 A 
HETATM   13  H   UNL     1      39.735 -16.162   4.305  1.00  0.00     0.169 HD
ENDROOT
BRANCH   9  14
HETATM   14  C   UNL     1      41.765 -16.826   0.260  1.00  0.00     0.136 C 
BRANCH  14  15
HETATM   15  N   UNL     1      41.741 -15.435  -0.192  1.00  0.00    -0.286 NA
HETATM   16  H   UNL     1      42.677 -15.107  -0.435  1.00  0.00     0.128 HD
BRANCH  15  17
HETATM   17  C   UNL     1      40.860 -15.072  -1.230  1.00  0.00     0.042 A 
HETATM   18  C   UNL     1      39.893 -14.089  -0.947  1.00  0.00     0.089 A 
HETATM   19  C   UNL     1      38.993 -13.622  -1.898  1.00  0.00     0.074 A 
HETATM   20  C   UNL     1      39.036 -14.174  -3.170  1.00  0.00     0.068 A 
HETATM   21  C   UNL     1      39.953 -15.174  -3.481  1.00  0.00     0.038 A 
HETATM   22  C   UNL     1      40.857 -15.627  -2.512  1.00  0.00     0.029 A 
BRANCH  18  23
HETATM   23  O   UNL     1      39.799 -13.603   0.332  1.00  0.00    -0.359 OA
HETATM   24  H   UNL     1      40.486 -12.906   0.361  1.00  0.00     0.218 HD
ENDBRANCH  18  23
BRANCH  20  25
HETATM   25  O   UNL     1      38.179 -13.771  -4.151  1.00  0.00    -0.361 OA
HETATM   26  H   UNL     1      38.409 -12.861  -4.402  1.00  0.00     0.217 HD
ENDBRANCH  20  25
ENDBRANCH  15  17
ENDBRANCH  14  15
ENDBRANCH   9  14
TORSDOF 5
ENDMDL
