MODEL 1
REMARK VINA RESULT:      -7.5      0.000      0.000
REMARK  6 active torsions:
REMARK  status: ('A' for Active; 'I' for Inactive)
REMARK    1  A    between atoms: C_2  and  N_3 
REMARK    2  A    between atoms: C_2  and  C_16 
REMARK    3  A    between atoms: N_3  and  C_6 
REMARK    4  A    between atoms: C_16  and  C_17 
REMARK       I    between atoms: C_17  and  N_18 
REMARK    5  A    between atoms: N_18  and  C_19 
REMARK    6  A    between atoms: C_22  and  O_23 
ROOT
HETATM    1  C   UNL     1      43.589 -14.047   3.287  1.00  0.00     0.040 C 
HETATM    2  C   UNL     1      42.727 -14.250   4.524  1.00  0.00     0.191 C 
ENDROOT
BRANCH   2   3
HETATM    3  N   UNL     1      42.500 -15.726   4.801  1.00  0.00    -0.063 N 
HETATM    4  H   UNL     1      41.933 -15.729   5.673  1.00  0.00     0.278 HD
HETATM    5  H   UNL     1      41.881 -16.133   4.090  1.00  0.00     0.278 HD
BRANCH   3   6
HETATM    6  C   UNL     1      43.647 -16.680   5.071  1.00  0.00     0.221 C 
HETATM    7  C   UNL     1      43.771 -17.827   4.094  1.00  0.00    -0.011 A 
HETATM    8  C   UNL     1      43.968 -19.155   4.512  1.00  0.00     0.009 A 
HETATM    9  C   UNL     1      43.773 -17.557   2.707  1.00  0.00     0.011 A 
HETATM   10  C   UNL     1      44.086 -20.179   3.562  1.00  0.00     0.019 A 
HETATM   11  S   UNL     1      44.109 -19.631   6.223  1.00  0.00    -0.129 SA
HETATM   12  C   UNL     1      44.050 -19.896   2.198  1.00  0.00     0.001 A 
HETATM   13  C   UNL     1      43.902 -18.584   1.771  1.00  0.00     0.001 A 
HETATM   14  C   UNL     1      44.671 -18.065   6.930  1.00  0.00     0.082 C 
HETATM   15  C   UNL     1      43.659 -16.993   6.575  1.00  0.00     0.048 C 
ENDBRANCH   3   6
ENDBRANCH   2   3
BRANCH   2  16
HETATM   16  C   UNL     1      41.356 -13.562   4.332  1.00  0.00     0.135 C 
BRANCH  16  17
HETATM   17  C   UNL     1      40.227 -14.561   4.385  1.00  0.00     0.224 C 
HETATM   18  N   UNL     1      39.673 -15.105   3.273  1.00  0.00    -0.327 N 
HETATM   19  H   UNL     1      38.912 -15.735   3.516  1.00  0.00     0.169 HD
HETATM   20  O   UNL     1      39.836 -14.955   5.493  1.00  0.00    -0.273 OA
BRANCH  18  21
HETATM   21  C   UNL     1      39.981 -15.066   1.898  1.00  0.00     0.034 A 
HETATM   22  C   UNL     1      39.505 -14.140   0.975  1.00  0.00     0.032 A 
HETATM   23  C   UNL     1      39.953 -14.167  -0.353  1.00  0.00     0.039 A 
HETATM   24  C   UNL     1      40.882 -15.114  -0.783  1.00  0.00     0.068 A 
HETATM   25  C   UNL     1      41.339 -16.063   0.122  1.00  0.00     0.039 A 
HETATM   26  C   UNL     1      40.889 -16.038   1.449  1.00  0.00     0.032 A 
BRANCH  24  27
HETATM   27  O   UNL     1      41.252 -15.003  -2.093  1.00  0.00    -0.356 OA
HETATM   28  C   UNL     1      40.526 -15.786  -3.034  1.00  0.00     0.210 C 
ENDBRANCH  24  27
ENDBRANCH  18  21
ENDBRANCH  16  17
ENDBRANCH   2  16
TORSDOF 6
ENDMDL
MODEL 2
REMARK VINA RESULT:      -7.4      1.989      4.524
REMARK  6 active torsions:
REMARK  status: ('A' for Active; 'I' for Inactive)
REMARK    1  A    between atoms: C_2  and  N_3 
REMARK    2  A    between atoms: C_2  and  C_16 
REMARK    3  A    between atoms: N_3  and  C_6 
REMARK    4  A    between atoms: C_16  and  C_17 
REMARK       I    between atoms: C_17  and  N_18 
REMARK    5  A    between atoms: N_18  and  C_19 
REMARK    6  A    between atoms: C_22  and  O_23 
ROOT
HETATM    1  C   UNL     1      41.660 -16.715   0.332  1.00  0.00     0.040 C 
HETATM    2  C   UNL     1      41.577 -16.832   1.846  1.00  0.00     0.191 C 
ENDROOT
BRANCH   2   3
HETATM    3  N   UNL     1      42.021 -18.206   2.319  1.00  0.00    -0.063 N 
HETATM    4  H   UNL     1      41.285 -18.483   2.999  1.00  0.00     0.278 HD
HETATM    5  H   UNL     1      41.940 -18.890   1.558  1.00  0.00     0.278 HD
BRANCH   3   6
HETATM    6  C   UNL     1      43.335 -18.421   3.045  1.00  0.00     0.221 C 
HETATM    7  C   UNL     1      43.810 -19.855   3.103  1.00  0.00    -0.011 A 
HETATM    8  C   UNL     1      44.279 -20.446   4.289  1.00  0.00     0.009 A 
HETATM    9  C   UNL     1      43.866 -20.612   1.912  1.00  0.00     0.011 A 
HETATM   10  C   UNL     1      44.717 -21.778   4.282  1.00  0.00     0.019 A 
HETATM   11  S   UNL     1      44.381 -19.578   5.840  1.00  0.00    -0.129 SA
HETATM   12  C   UNL     1      44.731 -22.520   3.103  1.00  0.00     0.001 A 
HETATM   13  C   UNL     1      44.314 -21.934   1.915  1.00  0.00     0.001 A 
HETATM   14  C   UNL     1      44.494 -17.879   5.233  1.00  0.00     0.082 C 
HETATM   15  C   UNL     1      43.291 -17.609   4.350  1.00  0.00     0.048 C 
ENDBRANCH   3   6
ENDBRANCH   2   3
BRANCH   2  16
HETATM   16  C   UNL     1      40.124 -16.589   2.316  1.00  0.00     0.135 C 
BRANCH  16  17
HETATM   17  C   UNL     1      39.729 -15.143   2.153  1.00  0.00     0.224 C 
HETATM   18  N   UNL     1      40.308 -14.137   2.856  1.00  0.00    -0.327 N 
HETATM   19  H   UNL     1      39.887 -13.240   2.622  1.00  0.00     0.169 HD
HETATM   20  O   UNL     1      38.888 -14.852   1.289  1.00  0.00    -0.273 OA
BRANCH  18  21
HETATM   21  C   UNL     1      41.402 -14.056   3.739  1.00  0.00     0.034 A 
HETATM   22  C   UNL     1      41.359 -14.227   5.119  1.00  0.00     0.032 A 
HETATM   23  C   UNL     1      42.540 -14.197   5.875  1.00  0.00     0.039 A 
HETATM   24  C   UNL     1      43.781 -13.997   5.270  1.00  0.00     0.068 A 
HETATM   25  C   UNL     1      43.831 -13.792   3.898  1.00  0.00     0.039 A 
HETATM   26  C   UNL     1      42.651 -13.820   3.142  1.00  0.00     0.032 A 
BRANCH  24  27
HETATM   27  O   UNL     1      44.846 -14.021   6.123  1.00  0.00    -0.356 OA
HETATM   28  C   UNL     1      44.580 -13.754   7.495  1.00  0.00     0.210 C 
ENDBRANCH  24  27
ENDBRANCH  18  21
ENDBRANCH  16  17
ENDBRANCH   2  16
TORSDOF 6
ENDMDL
MODEL 3
REMARK VINA RESULT:      -7.3      2.177      3.149
REMARK  6 active torsions:
REMARK  status: ('A' for Active; 'I' for Inactive)
REMARK    1  A    between atoms: C_2  and  N_3 
REMARK    2  A    between atoms: C_2  and  C_16 
REMARK    3  A    between atoms: N_3  and  C_6 
REMARK    4  A    between atoms: C_16  and  C_17 
REMARK       I    between atoms: C_17  and  N_18 
REMARK    5  A    between atoms: N_18  and  C_19 
REMARK    6  A    between atoms: C_22  and  O_23 
ROOT
HETATM    1  C   UNL     1      44.392 -17.312   1.333  1.00  0.00     0.040 C 
HETATM    2  C   UNL     1      43.035 -16.913   1.894  1.00  0.00     0.191 C 
ENDROOT
BRANCH   2   3
HETATM    3  N   UNL     1      42.709 -17.691   3.156  1.00  0.00    -0.063 N 
HETATM    4  H   UNL     1      41.985 -17.111   3.624  1.00  0.00     0.278 HD
HETATM    5  H   UNL     1      42.228 -18.567   2.923  1.00  0.00     0.278 HD
BRANCH   3   6
HETATM    6  C   UNL     1      43.751 -17.963   4.224  1.00  0.00     0.221 C 
HETATM    7  C   UNL     1      44.067 -19.423   4.457  1.00  0.00    -0.011 A 
HETATM    8  C   UNL     1      44.141 -19.982   5.744  1.00  0.00     0.009 A 
HETATM    9  C   UNL     1      44.381 -20.246   3.352  1.00  0.00     0.011 A 
HETATM   10  C   UNL     1      44.447 -21.342   5.901  1.00  0.00     0.019 A 
HETATM   11  S   UNL     1      43.890 -19.042   7.235  1.00  0.00    -0.129 SA
HETATM   12  C   UNL     1      44.719 -22.145   4.796  1.00  0.00     0.001 A 
HETATM   13  C   UNL     1      44.695 -21.595   3.521  1.00  0.00     0.001 A 
HETATM   14  C   UNL     1      44.311 -17.392   6.629  1.00  0.00     0.082 C 
HETATM   15  C   UNL     1      43.423 -17.081   5.440  1.00  0.00     0.048 C 
ENDBRANCH   3   6
ENDBRANCH   2   3
BRANCH   2  16
HETATM   16  C   UNL     1      41.931 -17.179   0.845  1.00  0.00     0.135 C 
BRANCH  16  17
HETATM   17  C   UNL     1      40.677 -16.400   1.157  1.00  0.00     0.224 C 
HETATM   18  N   UNL     1      40.307 -15.293   0.466  1.00  0.00    -0.327 N 
HETATM   19  H   UNL     1      39.447 -14.899   0.844  1.00  0.00     0.169 HD
HETATM   20  O   UNL     1      39.916 -16.831   2.035  1.00  0.00    -0.273 OA
BRANCH  18  21
HETATM   21  C   UNL     1      40.786 -14.647  -0.691  1.00  0.00     0.034 A 
HETATM   22  C   UNL     1      40.455 -14.964  -2.005  1.00  0.00     0.032 A 
HETATM   23  C   UNL     1      40.944 -14.189  -3.066  1.00  0.00     0.039 A 
HETATM   24  C   UNL     1      41.768 -13.087  -2.837  1.00  0.00     0.068 A 
HETATM   25  C   UNL     1      42.131 -12.782  -1.532  1.00  0.00     0.039 A 
HETATM   26  C   UNL     1      41.644 -13.558  -0.470  1.00  0.00     0.032 A 
BRANCH  24  27
HETATM   27  O   UNL     1      42.144 -12.406  -3.959  1.00  0.00    -0.356 OA
HETATM   28  C   UNL     1      42.386 -11.011  -3.815  1.00  0.00     0.210 C 
ENDBRANCH  24  27
ENDBRANCH  18  21
ENDBRANCH  16  17
ENDBRANCH   2  16
TORSDOF 6
ENDMDL
MODEL 4
REMARK VINA RESULT:      -7.2      2.194      4.299
REMARK  6 active torsions:
REMARK  status: ('A' for Active; 'I' for Inactive)
REMARK    1  A    between atoms: C_2  and  N_3 
REMARK    2  A    between atoms: C_2  and  C_16 
REMARK    3  A    between atoms: N_3  and  C_6 
REMARK    4  A    between atoms: C_16  and  C_17 
REMARK       I    between atoms: C_17  and  N_18 
REMARK    5  A    between atoms: N_18  and  C_19 
REMARK    6  A    between atoms: C_22  and  O_23 
ROOT
HETATM    1  C   UNL     1      44.064 -17.643   0.993  1.00  0.00     0.040 C 
HETATM    2  C   UNL     1      43.473 -16.761   2.083  1.00  0.00     0.191 C 
ENDROOT
BRANCH   2   3
HETATM    3  N   UNL     1      43.030 -17.584   3.279  1.00  0.00    -0.063 N 
HETATM    4  H   UNL     1      42.306 -16.991   3.733  1.00  0.00     0.278 HD
HETATM    5  H   UNL     1      42.521 -18.421   2.970  1.00  0.00     0.278 HD
BRANCH   3   6
HETATM    6  C   UNL     1      43.986 -17.965   4.392  1.00  0.00     0.221 C 
HETATM    7  C   UNL     1      44.197 -19.450   4.579  1.00  0.00    -0.011 A 
HETATM    8  C   UNL     1      44.159 -20.064   5.842  1.00  0.00     0.009 A 
HETATM    9  C   UNL     1      44.525 -20.248   3.459  1.00  0.00     0.011 A 
HETATM   10  C   UNL     1      44.370 -21.445   5.958  1.00  0.00     0.019 A 
HETATM   11  S   UNL     1      43.877 -19.169   7.357  1.00  0.00    -0.129 SA
HETATM   12  C   UNL     1      44.658 -22.220   4.837  1.00  0.00     0.001 A 
HETATM   13  C   UNL     1      44.745 -21.619   3.588  1.00  0.00     0.001 A 
HETATM   14  C   UNL     1      44.435 -17.527   6.848  1.00  0.00     0.082 C 
HETATM   15  C   UNL     1      43.641 -17.113   5.624  1.00  0.00     0.048 C 
ENDBRANCH   3   6
ENDBRANCH   2   3
BRANCH   2  16
HETATM   16  C   UNL     1      42.255 -15.985   1.531  1.00  0.00     0.135 C 
BRANCH  16  17
HETATM   17  C   UNL     1      40.957 -16.641   1.936  1.00  0.00     0.224 C 
HETATM   18  N   UNL     1      40.138 -16.126   2.887  1.00  0.00    -0.327 N 
HETATM   19  H   UNL     1      39.328 -16.726   3.033  1.00  0.00     0.169 HD
HETATM   20  O   UNL     1      40.590 -17.654   1.324  1.00  0.00    -0.273 OA
BRANCH  18  21
HETATM   21  C   UNL     1      40.115 -14.925   3.623  1.00  0.00     0.034 A 
HETATM   22  C   UNL     1      39.675 -13.688   3.163  1.00  0.00     0.032 A 
HETATM   23  C   UNL     1      39.632 -12.584   4.027  1.00  0.00     0.039 A 
HETATM   24  C   UNL     1      40.025 -12.694   5.360  1.00  0.00     0.068 A 
HETATM   25  C   UNL     1      40.497 -13.916   5.821  1.00  0.00     0.039 A 
HETATM   26  C   UNL     1      40.542 -15.019   4.957  1.00  0.00     0.032 A 
BRANCH  24  27
HETATM   27  O   UNL     1      39.902 -11.548   6.092  1.00  0.00    -0.356 OA
HETATM   28  C   UNL     1      41.105 -10.866   6.427  1.00  0.00     0.210 C 
ENDBRANCH  24  27
ENDBRANCH  18  21
ENDBRANCH  16  17
ENDBRANCH   2  16
TORSDOF 6
ENDMDL
MODEL 5
REMARK VINA RESULT:      -7.2      2.149      3.276
REMARK  6 active torsions:
REMARK  status: ('A' for Active; 'I' for Inactive)
REMARK    1  A    between atoms: C_2  and  N_3 
REMARK    2  A    between atoms: C_2  and  C_16 
REMARK    3  A    between atoms: N_3  and  C_6 
REMARK    4  A    between atoms: C_16  and  C_17 
REMARK       I    between atoms: C_17  and  N_18 
REMARK    5  A    between atoms: N_18  and  C_19 
REMARK    6  A    between atoms: C_22  and  O_23 
ROOT
HETATM    1  C   UNL     1      39.707 -15.163   2.325  1.00  0.00     0.040 C 
HETATM    2  C   UNL     1      40.208 -16.524   1.868  1.00  0.00     0.191 C 
ENDROOT
BRANCH   2   3
HETATM    3  N   UNL     1      40.755 -17.330   3.033  1.00  0.00    -0.063 N 
HETATM    4  H   UNL     1      40.199 -16.997   3.846  1.00  0.00     0.278 HD
HETATM    5  H   UNL     1      40.501 -18.320   2.935  1.00  0.00     0.278 HD
BRANCH   3   6
HETATM    6  C   UNL     1      42.202 -17.227   3.474  1.00  0.00     0.221 C 
HETATM    7  C   UNL     1      43.005 -18.502   3.347  1.00  0.00    -0.011 A 
HETATM    8  C   UNL     1      43.833 -18.976   4.378  1.00  0.00     0.009 A 
HETATM    9  C   UNL     1      42.993 -19.206   2.122  1.00  0.00     0.011 A 
HETATM   10  C   UNL     1      44.563 -20.160   4.202  1.00  0.00     0.019 A 
HETATM   11  S   UNL     1      44.044 -18.131   5.931  1.00  0.00    -0.129 SA
HETATM   12  C   UNL     1      44.511 -20.860   2.998  1.00  0.00     0.001 A 
HETATM   13  C   UNL     1      43.732 -20.377   1.955  1.00  0.00     0.001 A 
HETATM   14  C   UNL     1      43.624 -16.448   5.422  1.00  0.00     0.082 C 
HETATM   15  C   UNL     1      42.237 -16.469   4.810  1.00  0.00     0.048 C 
ENDBRANCH   3   6
ENDBRANCH   2   3
BRANCH   2  16
HETATM   16  C   UNL     1      41.327 -16.349   0.815  1.00  0.00     0.135 C 
BRANCH  16  17
HETATM   17  C   UNL     1      41.625 -14.891   0.568  1.00  0.00     0.224 C 
HETATM   18  N   UNL     1      41.084 -14.192  -0.461  1.00  0.00    -0.327 N 
HETATM   19  H   UNL     1      41.427 -13.234  -0.471  1.00  0.00     0.169 HD
HETATM   20  O   UNL     1      42.341 -14.287   1.380  1.00  0.00    -0.273 OA
BRANCH  18  21
HETATM   21  C   UNL     1      40.100 -14.470  -1.430  1.00  0.00     0.034 A 
HETATM   22  C   UNL     1      38.791 -13.999  -1.431  1.00  0.00     0.032 A 
HETATM   23  C   UNL     1      37.932 -14.289  -2.501  1.00  0.00     0.039 A 
HETATM   24  C   UNL     1      38.363 -15.050  -3.587  1.00  0.00     0.068 A 
HETATM   25  C   UNL     1      39.657 -15.553  -3.581  1.00  0.00     0.039 A 
HETATM   26  C   UNL     1      40.515 -15.266  -2.510  1.00  0.00     0.032 A 
BRANCH  24  27
HETATM   27  O   UNL     1      37.432 -15.228  -4.570  1.00  0.00    -0.356 OA
HETATM   28  C   UNL     1      36.328 -14.330  -4.581  1.00  0.00     0.210 C 
ENDBRANCH  24  27
ENDBRANCH  18  21
ENDBRANCH  16  17
ENDBRANCH   2  16
TORSDOF 6
ENDMDL
MODEL 6
REMARK VINA RESULT:      -7.0      3.249      6.630
REMARK  6 active torsions:
REMARK  status: ('A' for Active; 'I' for Inactive)
REMARK    1  A    between atoms: C_2  and  N_3 
REMARK    2  A    between atoms: C_2  and  C_16 
REMARK    3  A    between atoms: N_3  and  C_6 
REMARK    4  A    between atoms: C_16  and  C_17 
REMARK       I    between atoms: C_17  and  N_18 
REMARK    5  A    between atoms: N_18  and  C_19 
REMARK    6  A    between atoms: C_22  and  O_23 
ROOT
HETATM    1  C   UNL     1      40.263 -16.939   1.942  1.00  0.00     0.040 C 
HETATM    2  C   UNL     1      40.533 -15.581   2.571  1.00  0.00     0.191 C 
ENDROOT
BRANCH   2   3
HETATM    3  N   UNL     1      41.585 -14.812   1.791  1.00  0.00    -0.063 N 
HETATM    4  H   UNL     1      42.176 -14.382   2.531  1.00  0.00     0.278 HD
HETATM    5  H   UNL     1      42.214 -15.459   1.303  1.00  0.00     0.278 HD
BRANCH   3   6
HETATM    6  C   UNL     1      41.222 -13.670   0.861  1.00  0.00     0.221 C 
HETATM    7  C   UNL     1      41.361 -13.974  -0.613  1.00  0.00    -0.011 A 
HETATM    8  C   UNL     1      41.996 -13.096  -1.507  1.00  0.00     0.009 A 
HETATM    9  C   UNL     1      40.763 -15.142  -1.137  1.00  0.00     0.011 A 
HETATM   10  C   UNL     1      42.088 -13.424  -2.867  1.00  0.00     0.019 A 
HETATM   11  S   UNL     1      42.689 -11.531  -1.014  1.00  0.00    -0.129 SA
HETATM   12  C   UNL     1      41.522 -14.599  -3.358  1.00  0.00     0.001 A 
HETATM   13  C   UNL     1      40.851 -15.454  -2.494  1.00  0.00     0.001 A 
HETATM   14  C   UNL     1      41.704 -11.214   0.467  1.00  0.00     0.082 C 
HETATM   15  C   UNL     1      41.870 -12.389   1.410  1.00  0.00     0.048 C 
ENDBRANCH   3   6
ENDBRANCH   2   3
BRANCH   2  16
HETATM   16  C   UNL     1      41.023 -15.760   4.026  1.00  0.00     0.135 C 
BRANCH  16  17
HETATM   17  C   UNL     1      42.437 -15.263   4.196  1.00  0.00     0.224 C 
HETATM   18  N   UNL     1      43.519 -16.077   4.109  1.00  0.00    -0.327 N 
HETATM   19  H   UNL     1      44.379 -15.558   4.276  1.00  0.00     0.169 HD
HETATM   20  O   UNL     1      42.623 -14.047   4.352  1.00  0.00    -0.273 OA
BRANCH  18  21
HETATM   21  C   UNL     1      43.711 -17.425   3.746  1.00  0.00     0.034 A 
HETATM   22  C   UNL     1      43.685 -17.940   2.454  1.00  0.00     0.032 A 
HETATM   23  C   UNL     1      43.970 -19.293   2.224  1.00  0.00     0.039 A 
HETATM   24  C   UNL     1      44.287 -20.154   3.274  1.00  0.00     0.068 A 
HETATM   25  C   UNL     1      44.283 -19.658   4.571  1.00  0.00     0.039 A 
HETATM   26  C   UNL     1      43.996 -18.305   4.802  1.00  0.00     0.032 A 
BRANCH  24  27
HETATM   27  O   UNL     1      44.571 -21.436   2.901  1.00  0.00    -0.356 OA
HETATM   28  C   UNL     1      44.074 -21.865   1.639  1.00  0.00     0.210 C 
ENDBRANCH  24  27
ENDBRANCH  18  21
ENDBRANCH  16  17
ENDBRANCH   2  16
TORSDOF 6
ENDMDL
MODEL 7
REMARK VINA RESULT:      -7.0      2.393      3.270
REMARK  6 active torsions:
REMARK  status: ('A' for Active; 'I' for Inactive)
REMARK    1  A    between atoms: C_2  and  N_3 
REMARK    2  A    between atoms: C_2  and  C_16 
REMARK    3  A    between atoms: N_3  and  C_6 
REMARK    4  A    between atoms: C_16  and  C_17 
REMARK       I    between atoms: C_17  and  N_18 
REMARK    5  A    between atoms: N_18  and  C_19 
REMARK    6  A    between atoms: C_22  and  O_23 
ROOT
HETATM    1  C   UNL     1      43.404 -14.300   3.189  1.00  0.00     0.040 C 
HETATM    2  C   UNL     1      42.039 -14.970   3.239  1.00  0.00     0.191 C 
ENDROOT
BRANCH   2   3
HETATM    3  N   UNL     1      42.083 -16.251   4.053  1.00  0.00    -0.063 N 
HETATM    4  H   UNL     1      41.597 -15.998   4.937  1.00  0.00     0.278 HD
HETATM    5  H   UNL     1      41.485 -16.968   3.626  1.00  0.00     0.278 HD
BRANCH   3   6
HETATM    6  C   UNL     1      43.391 -16.885   4.486  1.00  0.00     0.221 C 
HETATM    7  C   UNL     1      43.709 -18.210   3.833  1.00  0.00    -0.011 A 
HETATM    8  C   UNL     1      44.154 -19.324   4.566  1.00  0.00     0.009 A 
HETATM    9  C   UNL     1      43.640 -18.322   2.426  1.00  0.00     0.011 A 
HETATM   10  C   UNL     1      44.444 -20.527   3.907  1.00  0.00     0.019 A 
HETATM   11  S   UNL     1      44.406 -19.297   6.329  1.00  0.00    -0.129 SA
HETATM   12  C   UNL     1      44.335 -20.627   2.521  1.00  0.00     0.001 A 
HETATM   13  C   UNL     1      43.942 -19.521   1.780  1.00  0.00     0.001 A 
HETATM   14  C   UNL     1      44.680 -17.527   6.571  1.00  0.00     0.082 C 
HETATM   15  C   UNL     1      43.483 -16.780   6.016  1.00  0.00     0.048 C 
ENDBRANCH   3   6
ENDBRANCH   2   3
BRANCH   2  16
HETATM   16  C   UNL     1      41.563 -15.305   1.807  1.00  0.00     0.135 C 
BRANCH  16  17
HETATM   17  C   UNL     1      40.306 -16.138   1.826  1.00  0.00     0.224 C 
HETATM   18  N   UNL     1      39.063 -15.595   1.845  1.00  0.00    -0.327 N 
HETATM   19  H   UNL     1      38.349 -16.320   1.881  1.00  0.00     0.169 HD
HETATM   20  O   UNL     1      40.410 -17.371   1.750  1.00  0.00    -0.273 OA
BRANCH  18  21
HETATM   21  C   UNL     1      38.558 -14.285   1.726  1.00  0.00     0.034 A 
HETATM   22  C   UNL     1      38.989 -13.170   2.439  1.00  0.00     0.032 A 
HETATM   23  C   UNL     1      38.453 -11.903   2.168  1.00  0.00     0.039 A 
HETATM   24  C   UNL     1      37.482 -11.725   1.183  1.00  0.00     0.068 A 
HETATM   25  C   UNL     1      37.021 -12.836   0.488  1.00  0.00     0.039 A 
HETATM   26  C   UNL     1      37.555 -14.103   0.760  1.00  0.00     0.032 A 
BRANCH  24  27
HETATM   27  O   UNL     1      37.073 -10.435   1.005  1.00  0.00    -0.356 OA
HETATM   28  C   UNL     1      36.679  -9.718   2.169  1.00  0.00     0.210 C 
ENDBRANCH  24  27
ENDBRANCH  18  21
ENDBRANCH  16  17
ENDBRANCH   2  16
TORSDOF 6
ENDMDL
MODEL 8
REMARK VINA RESULT:      -7.0      3.054      6.117
REMARK  6 active torsions:
REMARK  status: ('A' for Active; 'I' for Inactive)
REMARK    1  A    between atoms: C_2  and  N_3 
REMARK    2  A    between atoms: C_2  and  C_16 
REMARK    3  A    between atoms: N_3  and  C_6 
REMARK    4  A    between atoms: C_16  and  C_17 
REMARK       I    between atoms: C_17  and  N_18 
REMARK    5  A    between atoms: N_18  and  C_19 
REMARK    6  A    between atoms: C_22  and  O_23 
ROOT
HETATM    1  C   UNL     1      40.760 -18.043   5.208  1.00  0.00     0.040 C 
HETATM    2  C   UNL     1      41.051 -16.735   5.928  1.00  0.00     0.191 C 
ENDROOT
BRANCH   2   3
HETATM    3  N   UNL     1      41.495 -15.657   4.955  1.00  0.00    -0.063 N 
HETATM    4  H   UNL     1      41.757 -14.861   5.571  1.00  0.00     0.278 HD
HETATM    5  H   UNL     1      42.372 -15.928   4.496  1.00  0.00     0.278 HD
BRANCH   3   6
HETATM    6  C   UNL     1      40.552 -15.067   3.924  1.00  0.00     0.221 C 
HETATM    7  C   UNL     1      40.875 -15.411   2.488  1.00  0.00    -0.011 A 
HETATM    8  C   UNL     1      40.894 -14.444   1.468  1.00  0.00     0.009 A 
HETATM    9  C   UNL     1      41.087 -16.761   2.131  1.00  0.00     0.011 A 
HETATM   10  C   UNL     1      41.191 -14.820   0.150  1.00  0.00     0.019 A 
HETATM   11  S   UNL     1      40.527 -12.723   1.744  1.00  0.00    -0.129 SA
HETATM   12  C   UNL     1      41.431 -16.153  -0.175  1.00  0.00     0.001 A 
HETATM   13  C   UNL     1      41.370 -17.126   0.815  1.00  0.00     0.001 A 
HETATM   14  C   UNL     1      39.511 -12.863   3.232  1.00  0.00     0.082 C 
HETATM   15  C   UNL     1      40.314 -13.594   4.290  1.00  0.00     0.048 C 
ENDBRANCH   3   6
ENDBRANCH   2   3
BRANCH   2  16
HETATM   16  C   UNL     1      42.164 -16.948   6.979  1.00  0.00     0.135 C 
BRANCH  16  17
HETATM   17  C   UNL     1      43.454 -16.290   6.555  1.00  0.00     0.224 C 
HETATM   18  N   UNL     1      44.396 -16.927   5.815  1.00  0.00    -0.327 N 
HETATM   19  H   UNL     1      45.201 -16.324   5.654  1.00  0.00     0.169 HD
HETATM   20  O   UNL     1      43.629 -15.095   6.833  1.00  0.00    -0.273 OA
BRANCH  18  21
HETATM   21  C   UNL     1      44.456 -18.170   5.154  1.00  0.00     0.034 A 
HETATM   22  C   UNL     1      44.796 -19.390   5.729  1.00  0.00     0.032 A 
HETATM   23  C   UNL     1      44.741 -20.570   4.973  1.00  0.00     0.039 A 
HETATM   24  C   UNL     1      44.348 -20.555   3.636  1.00  0.00     0.068 A 
HETATM   25  C   UNL     1      44.040 -19.337   3.043  1.00  0.00     0.039 A 
HETATM   26  C   UNL     1      44.096 -18.157   3.797  1.00  0.00     0.032 A 
BRANCH  24  27
HETATM   27  O   UNL     1      44.312 -21.779   3.032  1.00  0.00    -0.356 OA
HETATM   28  C   UNL     1      43.970 -21.805   1.651  1.00  0.00     0.210 C 
ENDBRANCH  24  27
ENDBRANCH  18  21
ENDBRANCH  16  17
ENDBRANCH   2  16
TORSDOF 6
ENDMDL
MODEL 9
REMARK VINA RESULT:      -6.9      2.271      3.773
REMARK  6 active torsions:
REMARK  status: ('A' for Active; 'I' for Inactive)
REMARK    1  A    between atoms: C_2  and  N_3 
REMARK    2  A    between atoms: C_2  and  C_16 
REMARK    3  A    between atoms: N_3  and  C_6 
REMARK    4  A    between atoms: C_16  and  C_17 
REMARK       I    between atoms: C_17  and  N_18 
REMARK    5  A    between atoms: N_18  and  C_19 
REMARK    6  A    between atoms: C_22  and  O_23 
ROOT
HETATM    1  C   UNL     1      43.911 -17.679   1.094  1.00  0.00     0.040 C 
HETATM    2  C   UNL     1      43.084 -16.633   1.825  1.00  0.00     0.191 C 
ENDROOT
BRANCH   2   3
HETATM    3  N   UNL     1      42.557 -17.171   3.144  1.00  0.00    -0.063 N 
HETATM    4  H   UNL     1      41.716 -16.588   3.330  1.00  0.00     0.278 HD
HETATM    5  H   UNL     1      42.190 -18.121   3.022  1.00  0.00     0.278 HD
BRANCH   3   6
HETATM    6  C   UNL     1      43.373 -17.110   4.421  1.00  0.00     0.221 C 
HETATM    7  C   UNL     1      43.650 -18.447   5.070  1.00  0.00    -0.011 A 
HETATM    8  C   UNL     1      43.477 -18.666   6.448  1.00  0.00     0.009 A 
HETATM    9  C   UNL     1      44.181 -19.498   4.289  1.00  0.00     0.011 A 
HETATM   10  C   UNL     1      43.759 -19.924   6.998  1.00  0.00     0.019 A 
HETATM   11  S   UNL     1      42.932 -17.403   7.578  1.00  0.00    -0.129 SA
HETATM   12  C   UNL     1      44.248 -20.959   6.203  1.00  0.00     0.001 A 
HETATM   13  C   UNL     1      44.468 -20.742   4.849  1.00  0.00     0.001 A 
HETATM   14  C   UNL     1      43.448 -15.932   6.663  1.00  0.00     0.082 C 
HETATM   15  C   UNL     1      42.806 -15.976   5.290  1.00  0.00     0.048 C 
ENDBRANCH   3   6
ENDBRANCH   2   3
BRANCH   2  16
HETATM   16  C   UNL     1      41.887 -16.199   0.949  1.00  0.00     0.135 C 
BRANCH  16  17
HETATM   17  C   UNL     1      40.621 -16.911   1.356  1.00  0.00     0.224 C 
HETATM   18  N   UNL     1      39.563 -16.272   1.914  1.00  0.00    -0.327 N 
HETATM   19  H   UNL     1      38.818 -16.929   2.139  1.00  0.00     0.169 HD
HETATM   20  O   UNL     1      40.516 -18.121   1.105  1.00  0.00    -0.273 OA
BRANCH  18  21
HETATM   21  C   UNL     1      39.240 -14.921   2.149  1.00  0.00     0.034 A 
HETATM   22  C   UNL     1      39.746 -14.121   3.168  1.00  0.00     0.032 A 
HETATM   23  C   UNL     1      39.400 -12.764   3.244  1.00  0.00     0.039 A 
HETATM   24  C   UNL     1      38.547 -12.182   2.307  1.00  0.00     0.068 A 
HETATM   25  C   UNL     1      38.009 -12.980   1.305  1.00  0.00     0.039 A 
HETATM   26  C   UNL     1      38.353 -14.337   1.230  1.00  0.00     0.032 A 
BRANCH  24  27
HETATM   27  O   UNL     1      38.321 -10.848   2.484  1.00  0.00    -0.356 OA
HETATM   28  C   UNL     1      38.394 -10.023   1.326  1.00  0.00     0.210 C 
ENDBRANCH  24  27
ENDBRANCH  18  21
ENDBRANCH  16  17
ENDBRANCH   2  16
TORSDOF 6
ENDMDL
MODEL 10
REMARK VINA RESULT:      -6.9      1.821      4.946
REMARK  6 active torsions:
REMARK  status: ('A' for Active; 'I' for Inactive)
REMARK    1  A    between atoms: C_2  and  N_3 
REMARK    2  A    between atoms: C_2  and  C_16 
REMARK    3  A    between atoms: N_3  and  C_6 
REMARK    4  A    between atoms: C_16  and  C_17 
REMARK       I    between atoms: C_17  and  N_18 
REMARK    5  A    between atoms: N_18  and  C_19 
REMARK    6  A    between atoms: C_22  and  O_23 
ROOT
HETATM    1  C   UNL     1      40.264 -17.075   1.834  1.00  0.00     0.040 C 
HETATM    2  C   UNL     1      41.620 -17.095   1.145  1.00  0.00     0.191 C 
ENDROOT
BRANCH   2   3
HETATM    3  N   UNL     1      42.740 -17.347   2.139  1.00  0.00    -0.063 N 
HETATM    4  H   UNL     1      43.601 -17.299   1.559  1.00  0.00     0.278 HD
HETATM    5  H   UNL     1      42.824 -16.560   2.792  1.00  0.00     0.278 HD
BRANCH   3   6
HETATM    6  C   UNL     1      42.853 -18.649   2.909  1.00  0.00     0.221 C 
HETATM    7  C   UNL     1      43.064 -18.498   4.399  1.00  0.00    -0.011 A 
HETATM    8  C   UNL     1      44.036 -19.231   5.100  1.00  0.00     0.009 A 
HETATM    9  C   UNL     1      42.204 -17.653   5.136  1.00  0.00     0.011 A 
HETATM   10  C   UNL     1      44.182 -19.057   6.484  1.00  0.00     0.019 A 
HETATM   11  S   UNL     1      45.111 -20.422   4.326  1.00  0.00    -0.129 SA
HETATM   12  C   UNL     1      43.347 -18.192   7.188  1.00  0.00     0.001 A 
HETATM   13  C   UNL     1      42.351 -17.497   6.514  1.00  0.00     0.001 A 
HETATM   14  C   UNL     1      44.102 -20.854   2.890  1.00  0.00     0.082 C 
HETATM   15  C   UNL     1      43.791 -19.581   2.127  1.00  0.00     0.048 C 
ENDBRANCH   3   6
ENDBRANCH   2   3
BRANCH   2  16
HETATM   16  C   UNL     1      41.874 -15.743   0.440  1.00  0.00     0.135 C 
BRANCH  16  17
HETATM   17  C   UNL     1      40.794 -14.741   0.765  1.00  0.00     0.224 C 
HETATM   18  N   UNL     1      40.715 -14.106   1.961  1.00  0.00    -0.327 N 
HETATM   19  H   UNL     1      39.905 -13.490   1.994  1.00  0.00     0.169 HD
HETATM   20  O   UNL     1      39.985 -14.433  -0.122  1.00  0.00    -0.273 OA
BRANCH  18  21
HETATM   21  C   UNL     1      41.545 -14.038   3.098  1.00  0.00     0.034 A 
HETATM   22  C   UNL     1      42.926 -13.872   3.098  1.00  0.00     0.032 A 
HETATM   23  C   UNL     1      43.625 -13.743   4.307  1.00  0.00     0.039 A 
HETATM   24  C   UNL     1      42.962 -13.776   5.533  1.00  0.00     0.068 A 
HETATM   25  C   UNL     1      41.588 -13.975   5.545  1.00  0.00     0.039 A 
HETATM   26  C   UNL     1      40.888 -14.107   4.337  1.00  0.00     0.032 A 
BRANCH  24  27
HETATM   27  O   UNL     1      43.763 -13.608   6.625  1.00  0.00    -0.356 OA
HETATM   28  C   UNL     1      44.694 -14.646   6.907  1.00  0.00     0.210 C 
ENDBRANCH  24  27
ENDBRANCH  18  21
ENDBRANCH  16  17
ENDBRANCH   2  16
TORSDOF 6
ENDMDL
