MODEL 1
REMARK VINA RESULT:      -8.4      0.000      0.000
REMARK  4 active torsions:
REMARK  status: ('A' for Active; 'I' for Inactive)
REMARK    1  A    between atoms: C_9  and  C_10 
REMARK    2  A    between atoms: C_18  and  C_19 
REMARK       I    between atoms: C_19  and  N_20 
REMARK    3  A    between atoms: N_20  and  C_21 
REMARK    4  A    between atoms: C_24  and  O_25 
ROOT
HETATM    1  C   UNL     1      44.123 -15.025   6.729  1.00  0.00     0.070 C 
HETATM    2  C   UNL     1      42.916 -14.406   6.069  1.00  0.00     0.037 C 
HETATM    3  N   UNL     1      42.669 -13.079   6.416  1.00  0.00    -0.192 N 
HETATM    4  C   UNL     1      41.516 -12.443   6.132  1.00  0.00     0.725 A 
HETATM    5  N   UNL     1      40.598 -13.051   5.322  1.00  0.00    -0.084 N 
HETATM    6  N   UNL     1      39.468 -12.320   5.222  1.00  0.00    -0.149 NA
HETATM    7  C   UNL     1      39.800 -11.254   5.959  1.00  0.00     0.275 A 
HETATM    8  N   UNL     1      41.046 -11.290   6.532  1.00  0.00    -0.054 NA
HETATM    9  C   UNL     1      40.768 -14.394   4.755  1.00  0.00     0.204 C 
HETATM   10  C   UNL     1      42.044 -15.064   5.261  1.00  0.00     0.062 C 
HETATM   11  H   UNL     1      43.300 -12.639   7.080  1.00  0.00     0.184 HD
ENDROOT
BRANCH  10  12
HETATM   12  C   UNL     1      42.108 -16.522   4.965  1.00  0.00     0.256 C 
HETATM   13  N   UNL     1      42.981 -16.875   3.962  1.00  0.00    -0.323 N 
HETATM   14  H   UNL     1      43.430 -16.124   3.453  1.00  0.00     0.169 HD
HETATM   15  O   UNL     1      41.367 -17.270   5.597  1.00  0.00    -0.267 OA
BRANCH  13  16
HETATM   16  C   UNL     1      43.384 -18.185   3.617  1.00  0.00     0.035 A 
HETATM   17  C   UNL     1      44.273 -18.950   4.372  1.00  0.00     0.032 A 
HETATM   18  C   UNL     1      44.663 -20.223   3.937  1.00  0.00     0.039 A 
HETATM   19  C   UNL     1      44.174 -20.753   2.745  1.00  0.00     0.068 A 
HETATM   20  C   UNL     1      43.285 -19.997   1.985  1.00  0.00     0.039 A 
HETATM   21  C   UNL     1      42.891 -18.723   2.422  1.00  0.00     0.032 A 
BRANCH  19  22
HETATM   22  O   UNL     1      44.646 -21.998   2.439  1.00  0.00    -0.356 OA
HETATM   23  C   UNL     1      44.799 -22.914   3.514  1.00  0.00     0.210 C 
ENDBRANCH  19  22
ENDBRANCH  13  16
ENDBRANCH  10  12
BRANCH   9  24
HETATM   24  C   UNL     1      40.620 -14.362   3.231  1.00  0.00    -0.006 A 
HETATM   25  C   UNL     1      41.589 -13.865   2.341  1.00  0.00     0.044 A 
HETATM   26 CL   UNL     1      43.143 -13.317   2.856  1.00  0.00    -0.084 Cl
HETATM   27  C   UNL     1      41.338 -13.805   0.964  1.00  0.00     0.048 A 
HETATM   28  C   UNL     1      40.125 -14.259   0.457  1.00  0.00     0.035 A 
HETATM   29 CL   UNL     1      39.820 -14.174  -1.234  1.00  0.00    -0.084 Cl
HETATM   30  C   UNL     1      39.162 -14.784   1.309  1.00  0.00     0.024 A 
HETATM   31  C   UNL     1      39.407 -14.836   2.683  1.00  0.00     0.013 A 
ENDBRANCH   9  24
TORSDOF 4
ENDMDL
MODEL 2
REMARK VINA RESULT:      -8.3      1.170      1.754
REMARK  4 active torsions:
REMARK  status: ('A' for Active; 'I' for Inactive)
REMARK    1  A    between atoms: C_9  and  C_10 
REMARK    2  A    between atoms: C_18  and  C_19 
REMARK       I    between atoms: C_19  and  N_20 
REMARK    3  A    between atoms: N_20  and  C_21 
REMARK    4  A    between atoms: C_24  and  O_25 
ROOT
HETATM    1  C   UNL     1      43.730 -15.030   6.687  1.00  0.00     0.070 C 
HETATM    2  C   UNL     1      42.712 -14.249   5.893  1.00  0.00     0.037 C 
HETATM    3  N   UNL     1      42.472 -12.955   6.352  1.00  0.00    -0.192 N 
HETATM    4  C   UNL     1      41.434 -12.204   5.937  1.00  0.00     0.725 A 
HETATM    5  N   UNL     1      40.663 -12.644   4.897  1.00  0.00    -0.084 N 
HETATM    6  N   UNL     1      39.616 -11.821   4.677  1.00  0.00    -0.149 NA
HETATM    7  C   UNL     1      39.852 -10.875   5.593  1.00  0.00     0.275 A 
HETATM    8  N   UNL     1      40.957 -11.071   6.383  1.00  0.00    -0.054 NA
HETATM    9  C   UNL     1      40.871 -13.923   4.207  1.00  0.00     0.204 C 
HETATM   10  C   UNL     1      41.984 -14.742   4.858  1.00  0.00     0.062 C 
HETATM   11  H   UNL     1      42.982 -12.643   7.174  1.00  0.00     0.184 HD
ENDROOT
BRANCH  10  12
HETATM   12  C   UNL     1      42.027 -16.158   4.397  1.00  0.00     0.256 C 
HETATM   13  N   UNL     1      43.178 -16.520   3.736  1.00  0.00    -0.323 N 
HETATM   14  H   UNL     1      43.848 -15.788   3.537  1.00  0.00     0.169 HD
HETATM   15  O   UNL     1      41.042 -16.861   4.605  1.00  0.00    -0.267 OA
BRANCH  13  16
HETATM   16  C   UNL     1      43.566 -17.830   3.375  1.00  0.00     0.035 A 
HETATM   17  C   UNL     1      43.271 -18.419   2.145  1.00  0.00     0.032 A 
HETATM   18  C   UNL     1      43.648 -19.741   1.881  1.00  0.00     0.039 A 
HETATM   19  C   UNL     1      44.322 -20.499   2.837  1.00  0.00     0.068 A 
HETATM   20  C   UNL     1      44.621 -19.919   4.068  1.00  0.00     0.039 A 
HETATM   21  C   UNL     1      44.248 -18.592   4.332  1.00  0.00     0.032 A 
BRANCH  19  22
HETATM   22  O   UNL     1      44.619 -21.774   2.449  1.00  0.00    -0.356 OA
HETATM   23  C   UNL     1      44.656 -22.767   3.464  1.00  0.00     0.210 C 
ENDBRANCH  19  22
ENDBRANCH  13  16
ENDBRANCH  10  12
BRANCH   9  24
HETATM   24  C   UNL     1      41.028 -13.707   2.699  1.00  0.00    -0.006 A 
HETATM   25  C   UNL     1      40.325 -14.417   1.709  1.00  0.00     0.044 A 
HETATM   26 CL   UNL     1      39.093 -15.569   2.078  1.00  0.00    -0.084 Cl
HETATM   27  C   UNL     1      40.587 -14.206   0.349  1.00  0.00     0.048 A 
HETATM   28  C   UNL     1      41.539 -13.270  -0.039  1.00  0.00     0.035 A 
HETATM   29 CL   UNL     1      41.862 -13.022  -1.710  1.00  0.00    -0.084 Cl
HETATM   30  C   UNL     1      42.227 -12.532   0.916  1.00  0.00     0.024 A 
HETATM   31  C   UNL     1      41.973 -12.748   2.272  1.00  0.00     0.013 A 
ENDBRANCH   9  24
TORSDOF 4
ENDMDL
MODEL 3
REMARK VINA RESULT:      -8.3      3.445      5.154
REMARK  4 active torsions:
REMARK  status: ('A' for Active; 'I' for Inactive)
REMARK    1  A    between atoms: C_9  and  C_10 
REMARK    2  A    between atoms: C_18  and  C_19 
REMARK       I    between atoms: C_19  and  N_20 
REMARK    3  A    between atoms: N_20  and  C_21 
REMARK    4  A    between atoms: C_24  and  O_25 
ROOT
HETATM    1  C   UNL     1      40.758 -15.899  -2.284  1.00  0.00     0.070 C 
HETATM    2  C   UNL     1      41.188 -14.690  -1.492  1.00  0.00     0.037 C 
HETATM    3  N   UNL     1      41.287 -13.509  -2.225  1.00  0.00    -0.192 N 
HETATM    4  C   UNL     1      41.888 -12.397  -1.758  1.00  0.00     0.725 A 
HETATM    5  N   UNL     1      42.278 -12.347  -0.448  1.00  0.00    -0.084 N 
HETATM    6  N   UNL     1      42.946 -11.206  -0.177  1.00  0.00    -0.149 NA
HETATM    7  C   UNL     1      42.872 -10.592  -1.363  1.00  0.00     0.275 A 
HETATM    8  N   UNL     1      42.231 -11.286  -2.357  1.00  0.00    -0.054 NA
HETATM    9  C   UNL     1      42.116 -13.457   0.498  1.00  0.00     0.204 C 
HETATM   10  C   UNL     1      41.554 -14.703  -0.184  1.00  0.00     0.062 C 
HETATM   11  H   UNL     1      41.075 -13.550  -3.218  1.00  0.00     0.184 HD
ENDROOT
BRANCH  10  12
HETATM   12  C   UNL     1      41.658 -15.934   0.649  1.00  0.00     0.256 C 
HETATM   13  N   UNL     1      42.942 -16.373   0.879  1.00  0.00    -0.323 N 
HETATM   14  H   UNL     1      43.691 -15.890   0.398  1.00  0.00     0.169 HD
HETATM   15  O   UNL     1      40.618 -16.468   1.021  1.00  0.00    -0.267 OA
BRANCH  13  16
HETATM   16  C   UNL     1      43.338 -17.381   1.788  1.00  0.00     0.035 A 
HETATM   17  C   UNL     1      43.589 -18.703   1.423  1.00  0.00     0.032 A 
HETATM   18  C   UNL     1      43.929 -19.656   2.391  1.00  0.00     0.039 A 
HETATM   19  C   UNL     1      44.024 -19.307   3.737  1.00  0.00     0.068 A 
HETATM   20  C   UNL     1      43.776 -17.988   4.110  1.00  0.00     0.039 A 
HETATM   21  C   UNL     1      43.439 -17.032   3.140  1.00  0.00     0.032 A 
BRANCH  19  22
HETATM   22  O   UNL     1      44.355 -20.337   4.571  1.00  0.00    -0.356 OA
HETATM   23  C   UNL     1      44.236 -20.103   5.967  1.00  0.00     0.210 C 
ENDBRANCH  19  22
ENDBRANCH  13  16
ENDBRANCH  10  12
BRANCH   9  24
HETATM   24  C   UNL     1      41.347 -13.002   1.741  1.00  0.00    -0.006 A 
HETATM   25  C   UNL     1      41.841 -13.065   3.057  1.00  0.00     0.044 A 
HETATM   26 CL   UNL     1      43.448 -13.573   3.433  1.00  0.00    -0.084 Cl
HETATM   27  C   UNL     1      41.039 -12.695   4.145  1.00  0.00     0.048 A 
HETATM   28  C   UNL     1      39.743 -12.240   3.931  1.00  0.00     0.035 A 
HETATM   29 CL   UNL     1      38.760 -11.796   5.272  1.00  0.00    -0.084 Cl
HETATM   30  C   UNL     1      39.240 -12.138   2.640  1.00  0.00     0.024 A 
HETATM   31  C   UNL     1      40.034 -12.515   1.556  1.00  0.00     0.013 A 
ENDBRANCH   9  24
TORSDOF 4
ENDMDL
MODEL 4
REMARK VINA RESULT:      -8.0      3.231      6.208
REMARK  4 active torsions:
REMARK  status: ('A' for Active; 'I' for Inactive)
REMARK    1  A    between atoms: C_9  and  C_10 
REMARK    2  A    between atoms: C_18  and  C_19 
REMARK       I    between atoms: C_19  and  N_20 
REMARK    3  A    between atoms: N_20  and  C_21 
REMARK    4  A    between atoms: C_24  and  O_25 
ROOT
HETATM    1  C   UNL     1      43.702 -17.779   1.670  1.00  0.00     0.070 C 
HETATM    2  C   UNL     1      43.170 -17.285   2.992  1.00  0.00     0.037 C 
HETATM    3  N   UNL     1      43.936 -17.632   4.103  1.00  0.00    -0.192 N 
HETATM    4  C   UNL     1      43.500 -17.502   5.371  1.00  0.00     0.725 A 
HETATM    5  N   UNL     1      42.324 -16.847   5.611  1.00  0.00    -0.084 N 
HETATM    6  N   UNL     1      41.992 -16.893   6.919  1.00  0.00    -0.149 NA
HETATM    7  C   UNL     1      43.047 -17.549   7.415  1.00  0.00     0.275 A 
HETATM    8  N   UNL     1      43.993 -17.938   6.501  1.00  0.00    -0.054 NA
HETATM    9  C   UNL     1      41.465 -16.293   4.557  1.00  0.00     0.204 C 
HETATM   10  C   UNL     1      41.994 -16.626   3.164  1.00  0.00     0.062 C 
HETATM   11  H   UNL     1      44.772 -18.188   3.946  1.00  0.00     0.184 HD
ENDROOT
BRANCH  10  12
HETATM   12  C   UNL     1      41.012 -16.359   2.076  1.00  0.00     0.256 C 
HETATM   13  N   UNL     1      41.346 -15.324   1.233  1.00  0.00    -0.323 N 
HETATM   14  H   UNL     1      42.166 -14.779   1.469  1.00  0.00     0.169 HD
HETATM   15  O   UNL     1      39.991 -17.039   2.042  1.00  0.00    -0.267 OA
BRANCH  13  16
HETATM   16  C   UNL     1      40.709 -14.990   0.016  1.00  0.00     0.035 A 
HETATM   17  C   UNL     1      39.602 -14.146  -0.078  1.00  0.00     0.032 A 
HETATM   18  C   UNL     1      38.996 -13.903  -1.316  1.00  0.00     0.039 A 
HETATM   19  C   UNL     1      39.481 -14.496  -2.480  1.00  0.00     0.068 A 
HETATM   20  C   UNL     1      40.586 -15.340  -2.396  1.00  0.00     0.039 A 
HETATM   21  C   UNL     1      41.197 -15.581  -1.156  1.00  0.00     0.032 A 
BRANCH  19  22
HETATM   22  O   UNL     1      38.788 -14.179  -3.614  1.00  0.00    -0.356 OA
HETATM   23  C   UNL     1      37.663 -14.986  -3.932  1.00  0.00     0.210 C 
ENDBRANCH  19  22
ENDBRANCH  13  16
ENDBRANCH  10  12
BRANCH   9  24
HETATM   24  C   UNL     1      41.195 -14.806   4.804  1.00  0.00    -0.006 A 
HETATM   25  C   UNL     1      42.155 -13.785   4.682  1.00  0.00     0.044 A 
HETATM   26 CL   UNL     1      43.763 -14.071   4.122  1.00  0.00    -0.084 Cl
HETATM   27  C   UNL     1      41.838 -12.458   5.000  1.00  0.00     0.048 A 
HETATM   28  C   UNL     1      40.555 -12.131   5.426  1.00  0.00     0.035 A 
HETATM   29 CL   UNL     1      40.176 -10.501   5.824  1.00  0.00    -0.084 Cl
HETATM   30  C   UNL     1      39.578 -13.114   5.526  1.00  0.00     0.024 A 
HETATM   31  C   UNL     1      39.895 -14.438   5.218  1.00  0.00     0.013 A 
ENDBRANCH   9  24
TORSDOF 4
ENDMDL
MODEL 5
REMARK VINA RESULT:      -7.7      3.181      6.028
REMARK  4 active torsions:
REMARK  status: ('A' for Active; 'I' for Inactive)
REMARK    1  A    between atoms: C_9  and  C_10 
REMARK    2  A    between atoms: C_18  and  C_19 
REMARK       I    between atoms: C_19  and  N_20 
REMARK    3  A    between atoms: N_20  and  C_21 
REMARK    4  A    between atoms: C_24  and  O_25 
ROOT
HETATM    1  C   UNL     1      39.347 -13.265   5.252  1.00  0.00     0.070 C 
HETATM    2  C   UNL     1      40.764 -13.765   5.117  1.00  0.00     0.037 C 
HETATM    3  N   UNL     1      41.581 -13.526   6.221  1.00  0.00    -0.192 N 
HETATM    4  C   UNL     1      42.920 -13.670   6.193  1.00  0.00     0.725 A 
HETATM    5  N   UNL     1      43.511 -14.235   5.097  1.00  0.00    -0.084 N 
HETATM    6  N   UNL     1      44.857 -14.213   5.196  1.00  0.00    -0.149 NA
HETATM    7  C   UNL     1      45.003 -13.666   6.408  1.00  0.00     0.275 A 
HETATM    8  N   UNL     1      43.843 -13.321   7.052  1.00  0.00    -0.054 NA
HETATM    9  C   UNL     1      42.775 -14.674   3.905  1.00  0.00     0.204 C 
HETATM   10  C   UNL     1      41.289 -14.331   4.000  1.00  0.00     0.062 C 
HETATM   11  H   UNL     1      41.175 -13.035   7.012  1.00  0.00     0.184 HD
ENDROOT
BRANCH  10  12
HETATM   12  C   UNL     1      40.563 -14.473   2.707  1.00  0.00     0.256 C 
HETATM   13  N   UNL     1      41.170 -13.869   1.630  1.00  0.00    -0.323 N 
HETATM   14  H   UNL     1      41.994 -13.310   1.815  1.00  0.00     0.169 HD
HETATM   15  O   UNL     1      39.490 -15.069   2.712  1.00  0.00    -0.267 OA
BRANCH  13  16
HETATM   16  C   UNL     1      40.812 -14.015   0.270  1.00  0.00     0.035 A 
HETATM   17  C   UNL     1      39.975 -13.134  -0.413  1.00  0.00     0.032 A 
HETATM   18  C   UNL     1      39.627 -13.375  -1.748  1.00  0.00     0.039 A 
HETATM   19  C   UNL     1      40.107 -14.496  -2.423  1.00  0.00     0.068 A 
HETATM   20  C   UNL     1      40.945 -15.381  -1.748  1.00  0.00     0.039 A 
HETATM   21  C   UNL     1      41.297 -15.138  -0.412  1.00  0.00     0.032 A 
BRANCH  19  22
HETATM   22  O   UNL     1      39.680 -14.610  -3.715  1.00  0.00    -0.356 OA
HETATM   23  C   UNL     1      39.054 -15.830  -4.084  1.00  0.00     0.210 C 
ENDBRANCH  19  22
ENDBRANCH  13  16
ENDBRANCH  10  12
BRANCH   9  24
HETATM   24  C   UNL     1      43.077 -16.142   3.592  1.00  0.00    -0.006 A 
HETATM   25  C   UNL     1      42.819 -17.218   4.462  1.00  0.00     0.044 A 
HETATM   26 CL   UNL     1      42.014 -17.027   5.977  1.00  0.00    -0.084 Cl
HETATM   27  C   UNL     1      43.197 -18.523   4.123  1.00  0.00     0.048 A 
HETATM   28  C   UNL     1      43.819 -18.774   2.906  1.00  0.00     0.035 A 
HETATM   29 CL   UNL     1      44.289 -20.379   2.500  1.00  0.00    -0.084 Cl
HETATM   30  C   UNL     1      44.059 -17.736   2.014  1.00  0.00     0.024 A 
HETATM   31  C   UNL     1      43.691 -16.433   2.354  1.00  0.00     0.013 A 
ENDBRANCH   9  24
TORSDOF 4
ENDMDL
MODEL 6
REMARK VINA RESULT:      -7.6      2.217      3.436
REMARK  4 active torsions:
REMARK  status: ('A' for Active; 'I' for Inactive)
REMARK    1  A    between atoms: C_9  and  C_10 
REMARK    2  A    between atoms: C_18  and  C_19 
REMARK       I    between atoms: C_19  and  N_20 
REMARK    3  A    between atoms: N_20  and  C_21 
REMARK    4  A    between atoms: C_24  and  O_25 
ROOT
HETATM    1  C   UNL     1      40.904 -14.084   5.382  1.00  0.00     0.070 C 
HETATM    2  C   UNL     1      40.258 -13.445   4.179  1.00  0.00     0.037 C 
HETATM    3  N   UNL     1      39.658 -12.209   4.418  1.00  0.00    -0.192 N 
HETATM    4  C   UNL     1      38.827 -11.610   3.543  1.00  0.00     0.725 A 
HETATM    5  N   UNL     1      38.680 -12.137   2.290  1.00  0.00    -0.084 N 
HETATM    6  N   UNL     1      37.742 -11.472   1.583  1.00  0.00    -0.149 NA
HETATM    7  C   UNL     1      37.403 -10.521   2.460  1.00  0.00     0.275 A 
HETATM    8  N   UNL     1      38.045 -10.569   3.671  1.00  0.00    -0.054 NA
HETATM    9  C   UNL     1      39.355 -13.357   1.830  1.00  0.00     0.204 C 
HETATM   10  C   UNL     1      40.155 -14.017   2.951  1.00  0.00     0.062 C 
HETATM   11  H   UNL     1      39.691 -11.843   5.365  1.00  0.00     0.184 HD
ENDROOT
BRANCH  10  12
HETATM   12  C   UNL     1      40.599 -15.401   2.628  1.00  0.00     0.256 C 
HETATM   13  N   UNL     1      41.956 -15.613   2.720  1.00  0.00    -0.323 N 
HETATM   14  H   UNL     1      42.540 -14.806   2.904  1.00  0.00     0.169 HD
HETATM   15  O   UNL     1      39.748 -16.212   2.277  1.00  0.00    -0.267 OA
BRANCH  13  16
HETATM   16  C   UNL     1      42.620 -16.860   2.667  1.00  0.00     0.035 A 
HETATM   17  C   UNL     1      43.040 -17.468   1.484  1.00  0.00     0.032 A 
HETATM   18  C   UNL     1      43.648 -18.730   1.511  1.00  0.00     0.039 A 
HETATM   19  C   UNL     1      43.846 -19.404   2.714  1.00  0.00     0.068 A 
HETATM   20  C   UNL     1      43.430 -18.804   3.900  1.00  0.00     0.039 A 
HETATM   21  C   UNL     1      42.824 -17.538   3.875  1.00  0.00     0.032 A 
BRANCH  19  22
HETATM   22  O   UNL     1      44.440 -20.628   2.591  1.00  0.00    -0.356 OA
HETATM   23  C   UNL     1      43.772 -21.594   1.793  1.00  0.00     0.210 C 
ENDBRANCH  19  22
ENDBRANCH  13  16
ENDBRANCH  10  12
BRANCH   9  24
HETATM   24  C   UNL     1      40.146 -13.088   0.547  1.00  0.00    -0.006 A 
HETATM   25  C   UNL     1      39.703 -13.407  -0.750  1.00  0.00     0.044 A 
HETATM   26 CL   UNL     1      38.137 -14.057  -1.074  1.00  0.00    -0.084 Cl
HETATM   27  C   UNL     1      40.526 -13.194  -1.864  1.00  0.00     0.048 A 
HETATM   28  C   UNL     1      41.791 -12.641  -1.699  1.00  0.00     0.035 A 
HETATM   29 CL   UNL     1      42.800 -12.390  -3.070  1.00  0.00    -0.084 Cl
HETATM   30  C   UNL     1      42.242 -12.287  -0.434  1.00  0.00     0.024 A 
HETATM   31  C   UNL     1      41.427 -12.508   0.678  1.00  0.00     0.013 A 
ENDBRANCH   9  24
TORSDOF 4
ENDMDL
MODEL 7
REMARK VINA RESULT:      -7.5      3.291      6.923
REMARK  4 active torsions:
REMARK  status: ('A' for Active; 'I' for Inactive)
REMARK    1  A    between atoms: C_9  and  C_10 
REMARK    2  A    between atoms: C_18  and  C_19 
REMARK       I    between atoms: C_19  and  N_20 
REMARK    3  A    between atoms: N_20  and  C_21 
REMARK    4  A    between atoms: C_24  and  O_25 
ROOT
HETATM    1  C   UNL     1      43.969 -19.038   6.773  1.00  0.00     0.070 C 
HETATM    2  C   UNL     1      43.734 -18.222   5.527  1.00  0.00     0.037 C 
HETATM    3  N   UNL     1      43.642 -18.958   4.347  1.00  0.00    -0.192 N 
HETATM    4  C   UNL     1      43.684 -18.401   3.122  1.00  0.00     0.725 A 
HETATM    5  N   UNL     1      43.647 -17.039   3.005  1.00  0.00    -0.084 N 
HETATM    6  N   UNL     1      43.795 -16.651   1.720  1.00  0.00    -0.149 NA
HETATM    7  C   UNL     1      43.864 -17.840   1.112  1.00  0.00     0.275 A 
HETATM    8  N   UNL     1      43.798 -18.936   1.934  1.00  0.00    -0.054 NA
HETATM    9  C   UNL     1      43.597 -16.119   4.148  1.00  0.00     0.204 C 
HETATM   10  C   UNL     1      43.695 -16.865   5.477  1.00  0.00     0.062 C 
HETATM   11  H   UNL     1      43.748 -19.967   4.411  1.00  0.00     0.184 HD
ENDROOT
BRANCH  10  12
HETATM   12  C   UNL     1      43.958 -15.972   6.641  1.00  0.00     0.256 C 
HETATM   13  N   UNL     1      44.855 -14.956   6.403  1.00  0.00    -0.323 N 
HETATM   14  H   UNL     1      45.325 -14.952   5.506  1.00  0.00     0.169 HD
HETATM   15  O   UNL     1      43.398 -16.230   7.702  1.00  0.00    -0.267 OA
BRANCH  13  16
HETATM   16  C   UNL     1      45.132 -13.861   7.252  1.00  0.00     0.035 A 
HETATM   17  C   UNL     1      44.235 -13.361   8.196  1.00  0.00     0.032 A 
HETATM   18  C   UNL     1      44.565 -12.239   8.966  1.00  0.00     0.039 A 
HETATM   19  C   UNL     1      45.792 -11.597   8.808  1.00  0.00     0.068 A 
HETATM   20  C   UNL     1      46.694 -12.090   7.869  1.00  0.00     0.039 A 
HETATM   21  C   UNL     1      46.366 -13.216   7.099  1.00  0.00     0.032 A 
BRANCH  19  22
HETATM   22  O   UNL     1      45.976 -10.512   9.617  1.00  0.00    -0.356 OA
HETATM   23  C   UNL     1      45.168 -10.428  10.782  1.00  0.00     0.210 C 
ENDBRANCH  19  22
ENDBRANCH  13  16
ENDBRANCH  10  12
BRANCH   9  24
HETATM   24  C   UNL     1      42.401 -15.170   4.029  1.00  0.00    -0.006 A 
HETATM   25  C   UNL     1      41.053 -15.569   4.080  1.00  0.00     0.044 A 
HETATM   26 CL   UNL     1      40.566 -17.194   4.398  1.00  0.00    -0.084 Cl
HETATM   27  C   UNL     1      40.021 -14.641   3.887  1.00  0.00     0.048 A 
HETATM   28  C   UNL     1      40.321 -13.303   3.660  1.00  0.00     0.035 A 
HETATM   29 CL   UNL     1      39.049 -12.171   3.415  1.00  0.00    -0.084 Cl
HETATM   30  C   UNL     1      41.643 -12.875   3.635  1.00  0.00     0.024 A 
HETATM   31  C   UNL     1      42.673 -13.800   3.819  1.00  0.00     0.013 A 
ENDBRANCH   9  24
TORSDOF 4
ENDMDL
MODEL 8
REMARK VINA RESULT:      -7.4      3.223      6.426
REMARK  4 active torsions:
REMARK  status: ('A' for Active; 'I' for Inactive)
REMARK    1  A    between atoms: C_9  and  C_10 
REMARK    2  A    between atoms: C_18  and  C_19 
REMARK       I    between atoms: C_19  and  N_20 
REMARK    3  A    between atoms: N_20  and  C_21 
REMARK    4  A    between atoms: C_24  and  O_25 
ROOT
HETATM    1  C   UNL     1      40.164 -15.045   5.562  1.00  0.00     0.070 C 
HETATM    2  C   UNL     1      41.400 -15.910   5.598  1.00  0.00     0.037 C 
HETATM    3  N   UNL     1      41.710 -16.445   6.847  1.00  0.00    -0.192 N 
HETATM    4  C   UNL     1      42.892 -17.026   7.130  1.00  0.00     0.725 A 
HETATM    5  N   UNL     1      43.780 -17.264   6.118  1.00  0.00    -0.084 N 
HETATM    6  N   UNL     1      44.943 -17.759   6.590  1.00  0.00    -0.149 NA
HETATM    7  C   UNL     1      44.662 -17.842   7.895  1.00  0.00     0.275 A 
HETATM    8  N   UNL     1      43.416 -17.405   8.267  1.00  0.00    -0.054 NA
HETATM    9  C   UNL     1      43.545 -16.891   4.718  1.00  0.00     0.204 C 
HETATM   10  C   UNL     1      42.239 -16.118   4.550  1.00  0.00     0.062 C 
HETATM   11  H   UNL     1      41.100 -16.211   7.626  1.00  0.00     0.184 HD
ENDROOT
BRANCH  10  12
HETATM   12  C   UNL     1      42.106 -15.456   3.222  1.00  0.00     0.256 C 
HETATM   13  N   UNL     1      41.244 -16.077   2.347  1.00  0.00    -0.323 N 
HETATM   14  H   UNL     1      40.851 -16.964   2.635  1.00  0.00     0.169 HD
HETATM   15  O   UNL     1      42.787 -14.459   3.005  1.00  0.00    -0.267 OA
BRANCH  13  16
HETATM   16  C   UNL     1      40.781 -15.564   1.114  1.00  0.00     0.035 A 
HETATM   17  C   UNL     1      41.362 -15.858  -0.120  1.00  0.00     0.032 A 
HETATM   18  C   UNL     1      40.875 -15.270  -1.293  1.00  0.00     0.039 A 
HETATM   19  C   UNL     1      39.804 -14.380  -1.257  1.00  0.00     0.068 A 
HETATM   20  C   UNL     1      39.217 -14.080  -0.030  1.00  0.00     0.039 A 
HETATM   21  C   UNL     1      39.701 -14.672   1.146  1.00  0.00     0.032 A 
BRANCH  19  22
HETATM   22  O   UNL     1      39.441 -13.875  -2.474  1.00  0.00    -0.356 OA
HETATM   23  C   UNL     1      38.309 -14.458  -3.104  1.00  0.00     0.210 C 
ENDBRANCH  19  22
ENDBRANCH  13  16
ENDBRANCH  10  12
BRANCH   9  24
HETATM   24  C   UNL     1      43.696 -18.107   3.800  1.00  0.00    -0.006 A 
HETATM   25  C   UNL     1      44.044 -18.046   2.438  1.00  0.00     0.044 A 
HETATM   26 CL   UNL     1      44.459 -16.573   1.641  1.00  0.00    -0.084 Cl
HETATM   27  C   UNL     1      44.086 -19.207   1.654  1.00  0.00     0.048 A 
HETATM   28  C   UNL     1      43.800 -20.442   2.224  1.00  0.00     0.035 A 
HETATM   29 CL   UNL     1      43.845 -21.862   1.253  1.00  0.00    -0.084 Cl
HETATM   30  C   UNL     1      43.484 -20.536   3.573  1.00  0.00     0.024 A 
HETATM   31  C   UNL     1      43.433 -19.380   4.354  1.00  0.00     0.013 A 
ENDBRANCH   9  24
TORSDOF 4
ENDMDL
MODEL 9
REMARK VINA RESULT:      -7.2      1.922      2.384
REMARK  4 active torsions:
REMARK  status: ('A' for Active; 'I' for Inactive)
REMARK    1  A    between atoms: C_9  and  C_10 
REMARK    2  A    between atoms: C_18  and  C_19 
REMARK       I    between atoms: C_19  and  N_20 
REMARK    3  A    between atoms: N_20  and  C_21 
REMARK    4  A    between atoms: C_24  and  O_25 
ROOT
HETATM    1  C   UNL     1      43.310 -13.658   5.393  1.00  0.00     0.070 C 
HETATM    2  C   UNL     1      42.347 -13.239   4.311  1.00  0.00     0.037 C 
HETATM    3  N   UNL     1      42.024 -11.883   4.301  1.00  0.00    -0.192 N 
HETATM    4  C   UNL     1      41.006 -11.370   3.583  1.00  0.00     0.725 A 
HETATM    5  N   UNL     1      40.350 -12.169   2.687  1.00  0.00    -0.084 N 
HETATM    6  N   UNL     1      39.302 -11.525   2.130  1.00  0.00    -0.149 NA
HETATM    7  C   UNL     1      39.422 -10.322   2.701  1.00  0.00     0.275 A 
HETATM    8  N   UNL     1      40.453 -10.185   3.595  1.00  0.00    -0.054 NA
HETATM    9  C   UNL     1      40.662 -13.587   2.473  1.00  0.00     0.204 C 
HETATM   10  C   UNL     1      41.735 -14.083   3.440  1.00  0.00     0.062 C 
HETATM   11  H   UNL     1      42.445 -11.292   5.013  1.00  0.00     0.184 HD
ENDROOT
BRANCH  10  12
HETATM   12  C   UNL     1      41.865 -15.566   3.473  1.00  0.00     0.256 C 
HETATM   13  N   UNL     1      43.083 -16.052   3.057  1.00  0.00    -0.323 N 
HETATM   14  H   UNL     1      43.745 -15.384   2.682  1.00  0.00     0.169 HD
HETATM   15  O   UNL     1      40.889 -16.222   3.823  1.00  0.00    -0.267 OA
BRANCH  13  16
HETATM   16  C   UNL     1      43.545 -17.383   3.176  1.00  0.00     0.035 A 
HETATM   17  C   UNL     1      43.722 -18.245   2.094  1.00  0.00     0.032 A 
HETATM   18  C   UNL     1      44.135 -19.567   2.298  1.00  0.00     0.039 A 
HETATM   19  C   UNL     1      44.379 -20.051   3.582  1.00  0.00     0.068 A 
HETATM   20  C   UNL     1      44.205 -19.197   4.669  1.00  0.00     0.039 A 
HETATM   21  C   UNL     1      43.795 -17.871   4.465  1.00  0.00     0.032 A 
BRANCH  19  22
HETATM   22  O   UNL     1      44.766 -21.360   3.635  1.00  0.00    -0.356 OA
HETATM   23  C   UNL     1      45.035 -21.904   4.919  1.00  0.00     0.210 C 
ENDBRANCH  19  22
ENDBRANCH  13  16
ENDBRANCH  10  12
BRANCH   9  24
HETATM   24  C   UNL     1      40.952 -13.860   0.994  1.00  0.00    -0.006 A 
HETATM   25  C   UNL     1      41.703 -13.016   0.155  1.00  0.00     0.044 A 
HETATM   26 CL   UNL     1      42.498 -11.593   0.724  1.00  0.00    -0.084 Cl
HETATM   27  C   UNL     1      41.857 -13.308  -1.206  1.00  0.00     0.048 A 
HETATM   28  C   UNL     1      41.280 -14.453  -1.742  1.00  0.00     0.035 A 
HETATM   29 CL   UNL     1      41.465 -14.800  -3.417  1.00  0.00    -0.084 Cl
HETATM   30  C   UNL     1      40.559 -15.320  -0.931  1.00  0.00     0.024 A 
HETATM   31  C   UNL     1      40.398 -15.027   0.424  1.00  0.00     0.013 A 
ENDBRANCH   9  24
TORSDOF 4
ENDMDL
MODEL 10
REMARK VINA RESULT:      -7.2      3.405      7.198
REMARK  4 active torsions:
REMARK  status: ('A' for Active; 'I' for Inactive)
REMARK    1  A    between atoms: C_9  and  C_10 
REMARK    2  A    between atoms: C_18  and  C_19 
REMARK       I    between atoms: C_19  and  N_20 
REMARK    3  A    between atoms: N_20  and  C_21 
REMARK    4  A    between atoms: C_24  and  O_25 
ROOT
HETATM    1  C   UNL     1      43.827 -19.343   1.494  1.00  0.00     0.070 C 
HETATM    2  C   UNL     1      43.693 -19.182   2.988  1.00  0.00     0.037 C 
HETATM    3  N   UNL     1      44.341 -20.154   3.747  1.00  0.00    -0.192 N 
HETATM    4  C   UNL     1      44.133 -20.323   5.067  1.00  0.00     0.725 A 
HETATM    5  N   UNL     1      43.383 -19.405   5.749  1.00  0.00    -0.084 N 
HETATM    6  N   UNL     1      43.195 -19.778   7.032  1.00  0.00    -0.149 NA
HETATM    7  C   UNL     1      43.909 -20.909   7.065  1.00  0.00     0.275 A 
HETATM    8  N   UNL     1      44.500 -21.276   5.883  1.00  0.00    -0.054 NA
HETATM    9  C   UNL     1      42.745 -18.240   5.122  1.00  0.00     0.204 C 
HETATM   10  C   UNL     1      42.938 -18.237   3.607  1.00  0.00     0.062 C 
HETATM   11  H   UNL     1      44.838 -20.889   3.249  1.00  0.00     0.184 HD
ENDROOT
BRANCH  10  12
HETATM   12  C   UNL     1      42.064 -17.261   2.899  1.00  0.00     0.256 C 
HETATM   13  N   UNL     1      42.725 -16.208   2.311  1.00  0.00    -0.323 N 
HETATM   14  H   UNL     1      43.720 -16.131   2.481  1.00  0.00     0.169 HD
HETATM   15  O   UNL     1      40.851 -17.448   2.929  1.00  0.00    -0.267 OA
BRANCH  13  16
HETATM   16  C   UNL     1      42.175 -15.260   1.418  1.00  0.00     0.035 A 
HETATM   17  C   UNL     1      42.023 -13.906   1.715  1.00  0.00     0.032 A 
HETATM   18  C   UNL     1      41.422 -13.039   0.795  1.00  0.00     0.039 A 
HETATM   19  C   UNL     1      40.963 -13.506  -0.435  1.00  0.00     0.068 A 
HETATM   20  C   UNL     1      41.111 -14.856  -0.741  1.00  0.00     0.039 A 
HETATM   21  C   UNL     1      41.717 -15.726   0.178  1.00  0.00     0.032 A 
BRANCH  19  22
HETATM   22  O   UNL     1      40.391 -12.553  -1.229  1.00  0.00    -0.356 OA
HETATM   23  C   UNL     1      39.344 -12.974  -2.093  1.00  0.00     0.210 C 
ENDBRANCH  19  22
ENDBRANCH  13  16
ENDBRANCH  10  12
BRANCH   9  24
HETATM   24  C   UNL     1      43.166 -16.948   5.827  1.00  0.00    -0.006 A 
HETATM   25  C   UNL     1      42.291 -15.902   6.174  1.00  0.00     0.044 A 
HETATM   26 CL   UNL     1      40.583 -15.992   5.942  1.00  0.00    -0.084 Cl
HETATM   27  C   UNL     1      42.775 -14.721   6.752  1.00  0.00     0.048 A 
HETATM   28  C   UNL     1      44.134 -14.577   7.007  1.00  0.00     0.035 A 
HETATM   29 CL   UNL     1      44.723 -13.120   7.707  1.00  0.00    -0.084 Cl
HETATM   30  C   UNL     1      45.017 -15.605   6.703  1.00  0.00     0.024 A 
HETATM   31  C   UNL     1      44.538 -16.780   6.120  1.00  0.00     0.013 A 
ENDBRANCH   9  24
TORSDOF 4
ENDMDL
