MODEL 1
REMARK VINA RESULT:     -10.0      0.000      0.000
REMARK  5 active torsions:
REMARK  status: ('A' for Active; 'I' for Inactive)
REMARK    1  A    between atoms: C_7  and  C_8 
REMARK    2  A    between atoms: N_9  and  C_10 
REMARK    3  A    between atoms: C_10  and  C_11 
REMARK       I    between atoms: C_11  and  N_12 
REMARK    4  A    between atoms: N_12  and  C_13 
REMARK    5  A    between atoms: C_13  and  C_14 
ROOT
HETATM    1  C   UNL     1      41.918 -16.173   4.234  1.00  0.00     0.158 C 
HETATM    2  N   UNL     1      42.714 -14.954   4.279  1.00  0.00    -0.326 N 
HETATM    3  C   UNL     1      42.724 -14.350   3.020  1.00  0.00     0.255 C 
HETATM    4  O   UNL     1      43.097 -13.229   2.733  1.00  0.00    -0.267 OA
HETATM    5  C   UNL     1      42.148 -15.299   2.062  1.00  0.00     0.040 A 
HETATM    6  C   UNL     1      41.681 -16.401   2.774  1.00  0.00    -0.015 A 
HETATM    7  C   UNL     1      42.007 -15.176   0.693  1.00  0.00     0.017 A 
HETATM    8  C   UNL     1      41.370 -16.218   0.018  1.00  0.00     0.001 A 
HETATM    9  C   UNL     1      40.890 -17.338   0.721  1.00  0.00     0.001 A 
HETATM   10  C   UNL     1      41.038 -17.434   2.108  1.00  0.00     0.011 A 
ENDROOT
BRANCH   1  11
HETATM   11  C   UNL     1      42.646 -17.356   4.791  1.00  0.00     0.004 A 
HETATM   12  C   UNL     1      42.696 -17.715   6.139  1.00  0.00     0.017 A 
HETATM   13  C   UNL     1      42.083 -17.056   7.331  1.00  0.00     0.069 C 
HETATM   14  N   UNL     1      43.463 -18.857   6.247  1.00  0.00    -0.354 N 
HETATM   15  C   UNL     1      43.756 -19.527   7.499  1.00  0.00     0.156 C 
HETATM   16  C   UNL     1      43.906 -19.261   5.006  1.00  0.00     0.045 A 
HETATM   17  C   UNL     1      43.412 -18.344   4.075  1.00  0.00     0.001 A 
HETATM   18  C   UNL     1      44.701 -20.356   4.620  1.00  0.00     0.030 A 
HETATM   19  C   UNL     1      43.724 -18.543   2.711  1.00  0.00     0.014 A 
HETATM   20  C   UNL     1      44.513 -19.629   2.319  1.00  0.00     0.001 A 
HETATM   21  C   UNL     1      44.995 -20.523   3.265  1.00  0.00     0.002 A 
ENDBRANCH   1  11
BRANCH   2  22
HETATM   22  C   UNL     1      42.645 -14.110   5.464  1.00  0.00     0.229 C 
BRANCH  22  23
HETATM   23  C   UNL     1      43.974 -13.793   6.153  1.00  0.00     0.235 C 
HETATM   24  N   UNL     1      43.887 -13.401   7.470  1.00  0.00    -0.357 N 
HETATM   25  H   UNL     1      42.995 -13.508   7.938  1.00  0.00     0.162 HD
HETATM   26  O   UNL     1      45.027 -13.748   5.517  1.00  0.00    -0.272 OA
BRANCH  24  27
HETATM   27  C   UNL     1      45.084 -13.150   8.256  1.00  0.00     0.154 C 
BRANCH  27  28
HETATM   28  C   UNL     1      45.074 -11.775   8.947  1.00  0.00     0.139 C 
HETATM   29  O   UNL     1      43.777 -11.157   8.780  1.00  0.00    -0.384 OA
HETATM   30  C   UNL     1      43.387 -10.607  10.041  1.00  0.00     0.168 C 
HETATM   31  C   UNL     1      43.997 -11.521  11.074  1.00  0.00     0.029 C 
HETATM   32  C   UNL     1      45.330 -11.858  10.453  1.00  0.00     0.035 C 
ENDBRANCH  27  28
ENDBRANCH  24  27
ENDBRANCH  22  23
ENDBRANCH   2  22
TORSDOF 5
ENDMDL
MODEL 2
REMARK VINA RESULT:      -9.4      1.972      3.237
REMARK  5 active torsions:
REMARK  status: ('A' for Active; 'I' for Inactive)
REMARK    1  A    between atoms: C_7  and  C_8 
REMARK    2  A    between atoms: N_9  and  C_10 
REMARK    3  A    between atoms: C_10  and  C_11 
REMARK       I    between atoms: C_11  and  N_12 
REMARK    4  A    between atoms: N_12  and  C_13 
REMARK    5  A    between atoms: C_13  and  C_14 
ROOT
HETATM    1  C   UNL     1      42.561 -16.033   4.894  1.00  0.00     0.158 C 
HETATM    2  N   UNL     1      43.624 -15.069   4.646  1.00  0.00    -0.326 N 
HETATM    3  C   UNL     1      43.353 -14.357   3.476  1.00  0.00     0.255 C 
HETATM    4  O   UNL     1      43.894 -13.344   3.076  1.00  0.00    -0.267 OA
HETATM    5  C   UNL     1      42.237 -15.021   2.795  1.00  0.00     0.040 A 
HETATM    6  C   UNL     1      41.768 -16.037   3.624  1.00  0.00    -0.015 A 
HETATM    7  C   UNL     1      41.659 -14.721   1.576  1.00  0.00     0.017 A 
HETATM    8  C   UNL     1      40.563 -15.489   1.180  1.00  0.00     0.001 A 
HETATM    9  C   UNL     1      40.075 -16.518   2.005  1.00  0.00     0.001 A 
HETATM   10  C   UNL     1      40.673 -16.795   3.239  1.00  0.00     0.011 A 
ENDROOT
BRANCH   1  11
HETATM   11  C   UNL     1      43.083 -17.415   5.137  1.00  0.00     0.004 A 
HETATM   12  C   UNL     1      43.140 -18.051   6.377  1.00  0.00     0.017 A 
HETATM   13  C   UNL     1      42.732 -17.562   7.728  1.00  0.00     0.069 C 
HETATM   14  N   UNL     1      43.682 -19.306   6.186  1.00  0.00    -0.354 N 
HETATM   15  C   UNL     1      43.914 -20.265   7.249  1.00  0.00     0.156 C 
HETATM   16  C   UNL     1      43.969 -19.511   4.854  1.00  0.00     0.045 A 
HETATM   17  C   UNL     1      43.606 -18.347   4.172  1.00  0.00     0.001 A 
HETATM   18  C   UNL     1      44.521 -20.621   4.187  1.00  0.00     0.030 A 
HETATM   19  C   UNL     1      43.797 -18.306   2.772  1.00  0.00     0.014 A 
HETATM   20  C   UNL     1      44.343 -19.405   2.102  1.00  0.00     0.001 A 
HETATM   21  C   UNL     1      44.700 -20.548   2.804  1.00  0.00     0.002 A 
ENDBRANCH   1  11
BRANCH   2  22
HETATM   22  C   UNL     1      44.215 -14.365   5.777  1.00  0.00     0.229 C 
BRANCH  22  23
HETATM   23  C   UNL     1      43.329 -13.329   6.473  1.00  0.00     0.235 C 
HETATM   24  N   UNL     1      42.259 -12.867   5.738  1.00  0.00    -0.357 N 
HETATM   25  H   UNL     1      42.032 -13.350   4.877  1.00  0.00     0.162 HD
HETATM   26  O   UNL     1      43.650 -12.840   7.556  1.00  0.00    -0.272 OA
BRANCH  24  27
HETATM   27  C   UNL     1      41.299 -11.942   6.318  1.00  0.00     0.154 C 
BRANCH  27  28
HETATM   28  C   UNL     1      39.854 -12.207   5.859  1.00  0.00     0.139 C 
HETATM   29  O   UNL     1      39.298 -11.000   5.285  1.00  0.00    -0.384 OA
HETATM   30  C   UNL     1      38.618 -11.361   4.080  1.00  0.00     0.168 C 
HETATM   31  C   UNL     1      39.388 -12.536   3.530  1.00  0.00     0.029 C 
HETATM   32  C   UNL     1      39.755 -13.291   4.784  1.00  0.00     0.035 C 
ENDBRANCH  27  28
ENDBRANCH  24  27
ENDBRANCH  22  23
ENDBRANCH   2  22
TORSDOF 5
ENDMDL
MODEL 3
REMARK VINA RESULT:      -9.2      3.027      5.976
REMARK  5 active torsions:
REMARK  status: ('A' for Active; 'I' for Inactive)
REMARK    1  A    between atoms: C_7  and  C_8 
REMARK    2  A    between atoms: N_9  and  C_10 
REMARK    3  A    between atoms: C_10  and  C_11 
REMARK       I    between atoms: C_11  and  N_12 
REMARK    4  A    between atoms: N_12  and  C_13 
REMARK    5  A    between atoms: C_13  and  C_14 
ROOT
HETATM    1  C   UNL     1      42.574 -16.215   3.210  1.00  0.00     0.158 C 
HETATM    2  N   UNL     1      41.127 -16.273   3.048  1.00  0.00    -0.326 N 
HETATM    3  C   UNL     1      40.535 -15.191   3.702  1.00  0.00     0.255 C 
HETATM    4  O   UNL     1      39.389 -14.797   3.605  1.00  0.00    -0.267 OA
HETATM    5  C   UNL     1      41.563 -14.546   4.525  1.00  0.00     0.040 A 
HETATM    6  C   UNL     1      42.782 -15.163   4.254  1.00  0.00    -0.015 A 
HETATM    7  C   UNL     1      41.439 -13.480   5.395  1.00  0.00     0.017 A 
HETATM    8  C   UNL     1      42.600 -13.026   6.022  1.00  0.00     0.001 A 
HETATM    9  C   UNL     1      43.840 -13.635   5.759  1.00  0.00     0.001 A 
HETATM   10  C   UNL     1      43.940 -14.707   4.866  1.00  0.00     0.011 A 
ENDROOT
BRANCH   1  11
HETATM   11  C   UNL     1      43.148 -17.504   3.709  1.00  0.00     0.004 A 
HETATM   12  C   UNL     1      43.712 -18.501   2.911  1.00  0.00     0.017 A 
HETATM   13  C   UNL     1      43.884 -18.563   1.429  1.00  0.00     0.069 C 
HETATM   14  N   UNL     1      44.124 -19.525   3.738  1.00  0.00    -0.354 N 
HETATM   15  C   UNL     1      44.749 -20.748   3.274  1.00  0.00     0.156 C 
HETATM   16  C   UNL     1      43.855 -19.222   5.055  1.00  0.00     0.045 A 
HETATM   17  C   UNL     1      43.245 -17.964   5.070  1.00  0.00     0.001 A 
HETATM   18  C   UNL     1      44.094 -19.945   6.239  1.00  0.00     0.030 A 
HETATM   19  C   UNL     1      42.872 -17.417   6.319  1.00  0.00     0.014 A 
HETATM   20  C   UNL     1      43.107 -18.129   7.499  1.00  0.00     0.001 A 
HETATM   21  C   UNL     1      43.710 -19.378   7.457  1.00  0.00     0.002 A 
ENDBRANCH   1  11
BRANCH   2  22
HETATM   22  C   UNL     1      40.579 -16.710   1.771  1.00  0.00     0.229 C 
BRANCH  22  23
HETATM   23  C   UNL     1      40.762 -15.754   0.589  1.00  0.00     0.235 C 
HETATM   24  N   UNL     1      39.734 -14.864   0.374  1.00  0.00    -0.357 N 
HETATM   25  H   UNL     1      39.021 -14.781   1.090  1.00  0.00     0.162 HD
HETATM   26  O   UNL     1      41.699 -15.887  -0.199  1.00  0.00    -0.272 OA
BRANCH  24  27
HETATM   27  C   UNL     1      39.826 -13.853  -0.667  1.00  0.00     0.154 C 
BRANCH  27  28
HETATM   28  C   UNL     1      40.264 -12.477  -0.134  1.00  0.00     0.139 C 
HETATM   29  O   UNL     1      39.704 -12.266   1.183  1.00  0.00    -0.384 OA
HETATM   30  C   UNL     1      40.735 -11.731   2.017  1.00  0.00     0.168 C 
HETATM   31  C   UNL     1      42.015 -12.336   1.497  1.00  0.00     0.029 C 
HETATM   32  C   UNL     1      41.781 -12.342   0.006  1.00  0.00     0.035 C 
ENDBRANCH  27  28
ENDBRANCH  24  27
ENDBRANCH  22  23
ENDBRANCH   2  22
TORSDOF 5
ENDMDL
MODEL 4
REMARK VINA RESULT:      -9.1      3.495      8.254
REMARK  5 active torsions:
REMARK  status: ('A' for Active; 'I' for Inactive)
REMARK    1  A    between atoms: C_7  and  C_8 
REMARK    2  A    between atoms: N_9  and  C_10 
REMARK    3  A    between atoms: C_10  and  C_11 
REMARK       I    between atoms: C_11  and  N_12 
REMARK    4  A    between atoms: N_12  and  C_13 
REMARK    5  A    between atoms: C_13  and  C_14 
ROOT
HETATM    1  C   UNL     1      41.069 -16.671   2.494  1.00  0.00     0.158 C 
HETATM    2  N   UNL     1      41.965 -16.654   1.345  1.00  0.00    -0.326 N 
HETATM    3  C   UNL     1      43.043 -17.510   1.576  1.00  0.00     0.255 C 
HETATM    4  O   UNL     1      43.863 -17.911   0.772  1.00  0.00    -0.267 OA
HETATM    5  C   UNL     1      43.009 -17.906   2.987  1.00  0.00     0.040 A 
HETATM    6  C   UNL     1      41.844 -17.393   3.551  1.00  0.00    -0.015 A 
HETATM    7  C   UNL     1      43.903 -18.688   3.693  1.00  0.00     0.017 A 
HETATM    8  C   UNL     1      43.604 -18.956   5.030  1.00  0.00     0.001 A 
HETATM    9  C   UNL     1      42.430 -18.448   5.615  1.00  0.00     0.001 A 
HETATM   10  C   UNL     1      41.537 -17.666   4.875  1.00  0.00     0.011 A 
ENDROOT
BRANCH   1  11
HETATM   11  C   UNL     1      40.747 -15.296   2.991  1.00  0.00     0.004 A 
HETATM   12  C   UNL     1      39.649 -14.530   2.599  1.00  0.00     0.017 A 
HETATM   13  C   UNL     1      38.558 -14.842   1.627  1.00  0.00     0.069 C 
HETATM   14  N   UNL     1      39.703 -13.330   3.277  1.00  0.00    -0.354 N 
HETATM   15  C   UNL     1      38.735 -12.261   3.123  1.00  0.00     0.156 C 
HETATM   16  C   UNL     1      40.800 -13.294   4.110  1.00  0.00     0.045 A 
HETATM   17  C   UNL     1      41.473 -14.509   3.955  1.00  0.00     0.001 A 
HETATM   18  C   UNL     1      41.263 -12.296   4.988  1.00  0.00     0.030 A 
HETATM   19  C   UNL     1      42.644 -14.727   4.716  1.00  0.00     0.014 A 
HETATM   20  C   UNL     1      43.109 -13.741   5.591  1.00  0.00     0.001 A 
HETATM   21  C   UNL     1      42.425 -12.541   5.724  1.00  0.00     0.002 A 
ENDBRANCH   1  11
BRANCH   2  22
HETATM   22  C   UNL     1      41.393 -16.587   0.007  1.00  0.00     0.229 C 
BRANCH  22  23
HETATM   23  C   UNL     1      41.501 -15.240  -0.712  1.00  0.00     0.235 C 
HETATM   24  N   UNL     1      41.440 -15.289  -2.087  1.00  0.00    -0.357 N 
HETATM   25  H   UNL     1      41.164 -16.164  -2.518  1.00  0.00     0.162 HD
HETATM   26  O   UNL     1      41.777 -14.209  -0.098  1.00  0.00    -0.272 OA
BRANCH  24  27
HETATM   27  C   UNL     1      41.450 -14.070  -2.880  1.00  0.00     0.154 C 
BRANCH  27  28
HETATM   28  C   UNL     1      40.099 -13.780  -3.557  1.00  0.00     0.139 C 
HETATM   29  O   UNL     1      39.478 -15.025  -3.953  1.00  0.00    -0.384 OA
HETATM   30  C   UNL     1      38.098 -14.963  -3.583  1.00  0.00     0.168 C 
HETATM   31  C   UNL     1      38.062 -14.112  -2.338  1.00  0.00     0.029 C 
HETATM   32  C   UNL     1      39.107 -13.066  -2.637  1.00  0.00     0.035 C 
ENDBRANCH  27  28
ENDBRANCH  24  27
ENDBRANCH  22  23
ENDBRANCH   2  22
TORSDOF 5
ENDMDL
MODEL 5
REMARK VINA RESULT:      -9.0      2.851      5.510
REMARK  5 active torsions:
REMARK  status: ('A' for Active; 'I' for Inactive)
REMARK    1  A    between atoms: C_7  and  C_8 
REMARK    2  A    between atoms: N_9  and  C_10 
REMARK    3  A    between atoms: C_10  and  C_11 
REMARK       I    between atoms: C_11  and  N_12 
REMARK    4  A    between atoms: N_12  and  C_13 
REMARK    5  A    between atoms: C_13  and  C_14 
ROOT
HETATM    1  C   UNL     1      42.630 -16.418   3.822  1.00  0.00     0.158 C 
HETATM    2  N   UNL     1      41.196 -16.421   3.563  1.00  0.00    -0.326 N 
HETATM    3  C   UNL     1      40.631 -15.231   4.024  1.00  0.00     0.255 C 
HETATM    4  O   UNL     1      39.519 -14.794   3.792  1.00  0.00    -0.267 OA
HETATM    5  C   UNL     1      41.640 -14.535   4.828  1.00  0.00     0.040 A 
HETATM    6  C   UNL     1      42.834 -15.247   4.731  1.00  0.00    -0.015 A 
HETATM    7  C   UNL     1      41.525 -13.357   5.539  1.00  0.00     0.017 A 
HETATM    8  C   UNL     1      42.668 -12.883   6.184  1.00  0.00     0.001 A 
HETATM    9  C   UNL     1      43.883 -13.587   6.096  1.00  0.00     0.001 A 
HETATM   10  C   UNL     1      43.974 -14.774   5.361  1.00  0.00     0.011 A 
ENDROOT
BRANCH   1  11
HETATM   11  C   UNL     1      43.089 -17.656   4.527  1.00  0.00     0.004 A 
HETATM   12  C   UNL     1      42.947 -17.911   5.892  1.00  0.00     0.017 A 
HETATM   13  C   UNL     1      42.341 -17.070   6.967  1.00  0.00     0.069 C 
HETATM   14  N   UNL     1      43.494 -19.150   6.153  1.00  0.00    -0.354 N 
HETATM   15  C   UNL     1      43.546 -19.758   7.468  1.00  0.00     0.156 C 
HETATM   16  C   UNL     1      43.981 -19.717   4.996  1.00  0.00     0.045 A 
HETATM   17  C   UNL     1      43.743 -18.808   3.961  1.00  0.00     0.001 A 
HETATM   18  C   UNL     1      44.613 -20.954   4.766  1.00  0.00     0.030 A 
HETATM   19  C   UNL     1      44.148 -19.162   2.654  1.00  0.00     0.014 A 
HETATM   20  C   UNL     1      44.775 -20.389   2.418  1.00  0.00     0.001 A 
HETATM   21  C   UNL     1      45.004 -21.272   3.464  1.00  0.00     0.002 A 
ENDBRANCH   1  11
BRANCH   2  22
HETATM   22  C   UNL     1      40.707 -16.998   2.318  1.00  0.00     0.229 C 
BRANCH  22  23
HETATM   23  C   UNL     1      40.968 -16.189   1.045  1.00  0.00     0.235 C 
HETATM   24  N   UNL     1      39.972 -15.311   0.679  1.00  0.00    -0.357 N 
HETATM   25  H   UNL     1      39.228 -15.134   1.344  1.00  0.00     0.162 HD
HETATM   26  O   UNL     1      41.937 -16.428   0.324  1.00  0.00    -0.272 OA
BRANCH  24  27
HETATM   27  C   UNL     1      40.135 -14.429  -0.465  1.00  0.00     0.154 C 
BRANCH  27  28
HETATM   28  C   UNL     1      40.460 -12.978  -0.066  1.00  0.00     0.139 C 
HETATM   29  O   UNL     1      39.760 -12.643   1.155  1.00  0.00    -0.384 OA
HETATM   30  C   UNL     1      40.678 -11.959   2.012  1.00  0.00     0.168 C 
HETATM   31  C   UNL     1      42.029 -12.552   1.696  1.00  0.00     0.029 C 
HETATM   32  C   UNL     1      41.948 -12.748   0.202  1.00  0.00     0.035 C 
ENDBRANCH  27  28
ENDBRANCH  24  27
ENDBRANCH  22  23
ENDBRANCH   2  22
TORSDOF 5
ENDMDL
MODEL 6
REMARK VINA RESULT:      -9.0      1.645      2.018
REMARK  5 active torsions:
REMARK  status: ('A' for Active; 'I' for Inactive)
REMARK    1  A    between atoms: C_7  and  C_8 
REMARK    2  A    between atoms: N_9  and  C_10 
REMARK    3  A    between atoms: C_10  and  C_11 
REMARK       I    between atoms: C_11  and  N_12 
REMARK    4  A    between atoms: N_12  and  C_13 
REMARK    5  A    between atoms: C_13  and  C_14 
ROOT
HETATM    1  C   UNL     1      40.994 -14.957   4.577  1.00  0.00     0.158 C 
HETATM    2  N   UNL     1      41.783 -13.754   4.802  1.00  0.00    -0.326 N 
HETATM    3  C   UNL     1      41.416 -12.769   3.883  1.00  0.00     0.255 C 
HETATM    4  O   UNL     1      41.698 -11.586   3.903  1.00  0.00    -0.267 OA
HETATM    5  C   UNL     1      40.561 -13.396   2.870  1.00  0.00     0.040 A 
HETATM    6  C   UNL     1      40.319 -14.710   3.264  1.00  0.00    -0.015 A 
HETATM    7  C   UNL     1      40.009 -12.841   1.732  1.00  0.00     0.017 A 
HETATM    8  C   UNL     1      39.182 -13.655   0.957  1.00  0.00     0.001 A 
HETATM    9  C   UNL     1      38.924 -14.984   1.341  1.00  0.00     0.001 A 
HETATM   10  C   UNL     1      39.488 -15.519   2.504  1.00  0.00     0.011 A 
ENDROOT
BRANCH   1  11
HETATM   11  C   UNL     1      41.841 -16.185   4.455  1.00  0.00     0.004 A 
HETATM   12  C   UNL     1      42.128 -17.076   5.490  1.00  0.00     0.017 A 
HETATM   13  C   UNL     1      41.704 -17.053   6.922  1.00  0.00     0.069 C 
HETATM   14  N   UNL     1      42.936 -18.073   4.983  1.00  0.00    -0.354 N 
HETATM   15  C   UNL     1      43.455 -19.179   5.763  1.00  0.00     0.156 C 
HETATM   16  C   UNL     1      43.176 -17.864   3.642  1.00  0.00     0.045 A 
HETATM   17  C   UNL     1      42.506 -16.692   3.282  1.00  0.00     0.001 A 
HETATM   18  C   UNL     1      43.929 -18.604   2.711  1.00  0.00     0.030 A 
HETATM   19  C   UNL     1      42.590 -16.259   1.939  1.00  0.00     0.014 A 
HETATM   20  C   UNL     1      43.334 -16.990   1.008  1.00  0.00     0.001 A 
HETATM   21  C   UNL     1      43.995 -18.148   1.392  1.00  0.00     0.002 A 
ENDBRANCH   1  11
BRANCH   2  22
HETATM   22  C   UNL     1      42.091 -13.359   6.171  1.00  0.00     0.229 C 
BRANCH  22  23
HETATM   23  C   UNL     1      43.558 -13.466   6.596  1.00  0.00     0.235 C 
HETATM   24  N   UNL     1      43.890 -12.820   7.766  1.00  0.00    -0.357 N 
HETATM   25  H   UNL     1      43.135 -12.470   8.345  1.00  0.00     0.162 HD
HETATM   26  O   UNL     1      44.402 -13.969   5.854  1.00  0.00    -0.272 OA
BRANCH  24  27
HETATM   27  C   UNL     1      45.232 -12.915   8.317  1.00  0.00     0.154 C 
BRANCH  27  28
HETATM   28  C   UNL     1      45.441 -12.022   9.552  1.00  0.00     0.139 C 
HETATM   29  O   UNL     1      44.906 -10.702   9.293  1.00  0.00    -0.384 OA
HETATM   30  C   UNL     1      44.164 -10.296  10.445  1.00  0.00     0.168 C 
HETATM   31  C   UNL     1      43.600 -11.571  11.020  1.00  0.00     0.029 C 
HETATM   32  C   UNL     1      44.730 -12.546  10.800  1.00  0.00     0.035 C 
ENDBRANCH  27  28
ENDBRANCH  24  27
ENDBRANCH  22  23
ENDBRANCH   2  22
TORSDOF 5
ENDMDL
MODEL 7
REMARK VINA RESULT:      -8.9      5.042      8.960
REMARK  5 active torsions:
REMARK  status: ('A' for Active; 'I' for Inactive)
REMARK    1  A    between atoms: C_7  and  C_8 
REMARK    2  A    between atoms: N_9  and  C_10 
REMARK    3  A    between atoms: C_10  and  C_11 
REMARK       I    between atoms: C_11  and  N_12 
REMARK    4  A    between atoms: N_12  and  C_13 
REMARK    5  A    between atoms: C_13  and  C_14 
ROOT
HETATM    1  C   UNL     1      39.720 -11.871  -0.840  1.00  0.00     0.158 C 
HETATM    2  N   UNL     1      40.389 -12.738   0.121  1.00  0.00    -0.326 N 
HETATM    3  C   UNL     1      41.732 -12.375   0.230  1.00  0.00     0.255 C 
HETATM    4  O   UNL     1      42.535 -12.725   1.074  1.00  0.00    -0.267 OA
HETATM    5  C   UNL     1      42.031 -11.429  -0.851  1.00  0.00     0.040 A 
HETATM    6  C   UNL     1      40.839 -11.136  -1.509  1.00  0.00    -0.015 A 
HETATM    7  C   UNL     1      43.238 -10.846  -1.188  1.00  0.00     0.017 A 
HETATM    8  C   UNL     1      43.235  -9.931  -2.241  1.00  0.00     0.001 A 
HETATM    9  C   UNL     1      42.041  -9.621  -2.916  1.00  0.00     0.001 A 
HETATM   10  C   UNL     1      40.831 -10.220  -2.549  1.00  0.00     0.011 A 
ENDROOT
BRANCH   1  11
HETATM   11  C   UNL     1      38.963 -12.639  -1.878  1.00  0.00     0.004 A 
HETATM   12  C   UNL     1      37.774 -12.228  -2.480  1.00  0.00     0.017 A 
HETATM   13  C   UNL     1      36.966 -10.989  -2.268  1.00  0.00     0.069 C 
HETATM   14  N   UNL     1      37.392 -13.204  -3.378  1.00  0.00    -0.354 N 
HETATM   15  C   UNL     1      36.193 -13.142  -4.190  1.00  0.00     0.156 C 
HETATM   16  C   UNL     1      38.305 -14.237  -3.386  1.00  0.00     0.045 A 
HETATM   17  C   UNL     1      39.300 -13.913  -2.459  1.00  0.00     0.001 A 
HETATM   18  C   UNL     1      38.343 -15.432  -4.129  1.00  0.00     0.030 A 
HETATM   19  C   UNL     1      40.370 -14.819  -2.283  1.00  0.00     0.014 A 
HETATM   20  C   UNL     1      40.415 -16.007  -3.018  1.00  0.00     0.001 A 
HETATM   21  C   UNL     1      39.412 -16.308  -3.929  1.00  0.00     0.002 A 
ENDBRANCH   1  11
BRANCH   2  22
HETATM   22  C   UNL     1      39.670 -13.146   1.321  1.00  0.00     0.229 C 
BRANCH  22  23
HETATM   23  C   UNL     1      39.547 -14.652   1.562  1.00  0.00     0.235 C 
HETATM   24  N   UNL     1      40.712 -15.375   1.435  1.00  0.00    -0.357 N 
HETATM   25  H   UNL     1      41.583 -14.863   1.361  1.00  0.00     0.162 HD
HETATM   26  O   UNL     1      38.447 -15.187   1.708  1.00  0.00    -0.272 OA
BRANCH  24  27
HETATM   27  C   UNL     1      40.740 -16.802   1.717  1.00  0.00     0.154 C 
BRANCH  27  28
HETATM   28  C   UNL     1      42.003 -17.240   2.480  1.00  0.00     0.139 C 
HETATM   29  O   UNL     1      42.343 -18.599   2.116  1.00  0.00    -0.384 OA
HETATM   30  C   UNL     1      43.754 -18.652   1.889  1.00  0.00     0.168 C 
HETATM   31  C   UNL     1      44.117 -17.290   1.351  1.00  0.00     0.029 C 
HETATM   32  C   UNL     1      43.227 -16.380   2.160  1.00  0.00     0.035 C 
ENDBRANCH  27  28
ENDBRANCH  24  27
ENDBRANCH  22  23
ENDBRANCH   2  22
TORSDOF 5
ENDMDL
MODEL 8
REMARK VINA RESULT:      -8.8      4.480      8.295
REMARK  5 active torsions:
REMARK  status: ('A' for Active; 'I' for Inactive)
REMARK    1  A    between atoms: C_7  and  C_8 
REMARK    2  A    between atoms: N_9  and  C_10 
REMARK    3  A    between atoms: C_10  and  C_11 
REMARK       I    between atoms: C_11  and  N_12 
REMARK    4  A    between atoms: N_12  and  C_13 
REMARK    5  A    between atoms: C_13  and  C_14 
ROOT
HETATM    1  C   UNL     1      41.772 -13.501  -0.620  1.00  0.00     0.158 C 
HETATM    2  N   UNL     1      41.121 -14.455  -1.507  1.00  0.00    -0.326 N 
HETATM    3  C   UNL     1      41.301 -14.064  -2.835  1.00  0.00     0.255 C 
HETATM    4  O   UNL     1      41.088 -14.715  -3.840  1.00  0.00    -0.267 OA
HETATM    5  C   UNL     1      41.853 -12.706  -2.833  1.00  0.00     0.040 A 
HETATM    6  C   UNL     1      42.120 -12.351  -1.512  1.00  0.00    -0.015 A 
HETATM    7  C   UNL     1      42.137 -11.881  -3.903  1.00  0.00     0.017 A 
HETATM    8  C   UNL     1      42.712 -10.640  -3.622  1.00  0.00     0.001 A 
HETATM    9  C   UNL     1      42.990 -10.266  -2.295  1.00  0.00     0.001 A 
HETATM   10  C   UNL     1      42.700 -11.124  -1.229  1.00  0.00     0.011 A 
ENDROOT
BRANCH   1  11
HETATM   11  C   UNL     1      40.863 -13.009   0.463  1.00  0.00     0.004 A 
HETATM   12  C   UNL     1      41.204 -12.879   1.809  1.00  0.00     0.017 A 
HETATM   13  C   UNL     1      42.489 -13.182   2.508  1.00  0.00     0.069 C 
HETATM   14  N   UNL     1      40.101 -12.397   2.483  1.00  0.00    -0.354 N 
HETATM   15  C   UNL     1      40.063 -12.143   3.910  1.00  0.00     0.156 C 
HETATM   16  C   UNL     1      39.051 -12.198   1.613  1.00  0.00     0.045 A 
HETATM   17  C   UNL     1      39.496 -12.571   0.341  1.00  0.00     0.001 A 
HETATM   18  C   UNL     1      37.745 -11.723   1.832  1.00  0.00     0.030 A 
HETATM   19  C   UNL     1      38.596 -12.452  -0.743  1.00  0.00     0.014 A 
HETATM   20  C   UNL     1      37.298 -11.980  -0.532  1.00  0.00     0.001 A 
HETATM   21  C   UNL     1      36.879 -11.621   0.741  1.00  0.00     0.002 A 
ENDBRANCH   1  11
BRANCH   2  22
HETATM   22  C   UNL     1      41.173 -15.873  -1.177  1.00  0.00     0.229 C 
BRANCH  22  23
HETATM   23  C   UNL     1      41.495 -16.222   0.278  1.00  0.00     0.235 C 
HETATM   24  N   UNL     1      42.777 -16.663   0.519  1.00  0.00    -0.357 N 
HETATM   25  H   UNL     1      43.458 -16.570  -0.226  1.00  0.00     0.162 HD
HETATM   26  O   UNL     1      40.613 -16.248   1.138  1.00  0.00    -0.272 OA
BRANCH  24  27
HETATM   27  C   UNL     1      43.228 -16.949   1.872  1.00  0.00     0.154 C 
BRANCH  27  28
HETATM   28  C   UNL     1      42.890 -18.378   2.331  1.00  0.00     0.139 C 
HETATM   29  O   UNL     1      43.792 -19.316   1.699  1.00  0.00    -0.384 OA
HETATM   30  C   UNL     1      44.232 -20.242   2.697  1.00  0.00     0.168 C 
HETATM   31  C   UNL     1      44.257 -19.452   3.982  1.00  0.00     0.029 C 
HETATM   32  C   UNL     1      43.037 -18.575   3.840  1.00  0.00     0.035 C 
ENDBRANCH  27  28
ENDBRANCH  24  27
ENDBRANCH  22  23
ENDBRANCH   2  22
TORSDOF 5
ENDMDL
MODEL 9
REMARK VINA RESULT:      -8.8      2.915      7.146
REMARK  5 active torsions:
REMARK  status: ('A' for Active; 'I' for Inactive)
REMARK    1  A    between atoms: C_7  and  C_8 
REMARK    2  A    between atoms: N_9  and  C_10 
REMARK    3  A    between atoms: C_10  and  C_11 
REMARK       I    between atoms: C_11  and  N_12 
REMARK    4  A    between atoms: N_12  and  C_13 
REMARK    5  A    between atoms: C_13  and  C_14 
ROOT
HETATM    1  C   UNL     1      42.523 -16.000   3.312  1.00  0.00     0.158 C 
HETATM    2  N   UNL     1      41.066 -16.024   3.343  1.00  0.00    -0.326 N 
HETATM    3  C   UNL     1      40.595 -15.000   4.167  1.00  0.00     0.255 C 
HETATM    4  O   UNL     1      39.456 -14.584   4.263  1.00  0.00    -0.267 OA
HETATM    5  C   UNL     1      41.740 -14.447   4.897  1.00  0.00     0.040 A 
HETATM    6  C   UNL     1      42.896 -15.052   4.408  1.00  0.00    -0.015 A 
HETATM    7  C   UNL     1      41.761 -13.465   5.868  1.00  0.00     0.017 A 
HETATM    8  C   UNL     1      43.007 -13.085   6.369  1.00  0.00     0.001 A 
HETATM    9  C   UNL     1      44.185 -13.683   5.886  1.00  0.00     0.001 A 
HETATM   10  C   UNL     1      44.136 -14.669   4.895  1.00  0.00     0.011 A 
ENDROOT
BRANCH   1  11
HETATM   11  C   UNL     1      43.126 -17.337   3.610  1.00  0.00     0.004 A 
HETATM   12  C   UNL     1      43.683 -18.202   2.667  1.00  0.00     0.017 A 
HETATM   13  C   UNL     1      43.818 -18.050   1.187  1.00  0.00     0.069 C 
HETATM   14  N   UNL     1      44.129 -19.326   3.331  1.00  0.00    -0.354 N 
HETATM   15  C   UNL     1      44.758 -20.460   2.683  1.00  0.00     0.156 C 
HETATM   16  C   UNL     1      43.889 -19.215   4.683  1.00  0.00     0.045 A 
HETATM   17  C   UNL     1      43.263 -17.983   4.890  1.00  0.00     0.001 A 
HETATM   18  C   UNL     1      44.167 -20.094   5.747  1.00  0.00     0.030 A 
HETATM   19  C   UNL     1      42.915 -17.623   6.212  1.00  0.00     0.014 A 
HETATM   20  C   UNL     1      43.189 -18.491   7.273  1.00  0.00     0.001 A 
HETATM   21  C   UNL     1      43.807 -19.711   7.041  1.00  0.00     0.002 A 
ENDBRANCH   1  11
BRANCH   2  22
HETATM   22  C   UNL     1      40.340 -16.334   2.119  1.00  0.00     0.229 C 
BRANCH  22  23
HETATM   23  C   UNL     1      40.194 -15.194   1.107  1.00  0.00     0.235 C 
HETATM   24  N   UNL     1      41.329 -14.880   0.393  1.00  0.00    -0.357 N 
HETATM   25  H   UNL     1      42.118 -15.512   0.454  1.00  0.00     0.162 HD
HETATM   26  O   UNL     1      39.169 -14.514   1.056  1.00  0.00    -0.272 OA
BRANCH  24  27
HETATM   27  C   UNL     1      41.297 -13.871  -0.654  1.00  0.00     0.154 C 
BRANCH  27  28
HETATM   28  C   UNL     1      41.468 -14.460  -2.065  1.00  0.00     0.139 C 
HETATM   29  O   UNL     1      40.940 -15.807  -2.095  1.00  0.00    -0.384 OA
HETATM   30  C   UNL     1      40.163 -15.946  -3.288  1.00  0.00     0.168 C 
HETATM   31  C   UNL     1      39.583 -14.577  -3.542  1.00  0.00     0.029 C 
HETATM   32  C   UNL     1      40.721 -13.671  -3.140  1.00  0.00     0.035 C 
ENDBRANCH  27  28
ENDBRANCH  24  27
ENDBRANCH  22  23
ENDBRANCH   2  22
TORSDOF 5
ENDMDL
MODEL 10
REMARK VINA RESULT:      -8.4      2.775      3.874
REMARK  5 active torsions:
REMARK  status: ('A' for Active; 'I' for Inactive)
REMARK    1  A    between atoms: C_7  and  C_8 
REMARK    2  A    between atoms: N_9  and  C_10 
REMARK    3  A    between atoms: C_10  and  C_11 
REMARK       I    between atoms: C_11  and  N_12 
REMARK    4  A    between atoms: N_12  and  C_13 
REMARK    5  A    between atoms: C_13  and  C_14 
ROOT
HETATM    1  C   UNL     1      40.871 -15.594   4.140  1.00  0.00     0.158 C 
HETATM    2  N   UNL     1      40.207 -14.299   4.195  1.00  0.00    -0.326 N 
HETATM    3  C   UNL     1      39.920 -13.861   2.901  1.00  0.00     0.255 C 
HETATM    4  O   UNL     1      39.192 -12.945   2.567  1.00  0.00    -0.267 OA
HETATM    5  C   UNL     1      40.624 -14.740   1.962  1.00  0.00     0.040 A 
HETATM    6  C   UNL     1      41.213 -15.768   2.693  1.00  0.00    -0.015 A 
HETATM    7  C   UNL     1      40.695 -14.662   0.584  1.00  0.00     0.017 A 
HETATM    8  C   UNL     1      41.399 -15.669  -0.079  1.00  0.00     0.001 A 
HETATM    9  C   UNL     1      41.998 -16.717   0.643  1.00  0.00     0.001 A 
HETATM   10  C   UNL     1      41.904 -16.776   2.037  1.00  0.00     0.011 A 
ENDROOT
BRANCH   1  11
HETATM   11  C   UNL     1      42.137 -15.625   4.937  1.00  0.00     0.004 A 
HETATM   12  C   UNL     1      42.917 -14.514   5.262  1.00  0.00     0.017 A 
HETATM   13  C   UNL     1      42.724 -13.073   4.920  1.00  0.00     0.069 C 
HETATM   14  N   UNL     1      43.996 -14.952   6.001  1.00  0.00    -0.354 N 
HETATM   15  C   UNL     1      45.040 -14.086   6.512  1.00  0.00     0.156 C 
HETATM   16  C   UNL     1      43.938 -16.317   6.178  1.00  0.00     0.045 A 
HETATM   17  C   UNL     1      42.788 -16.768   5.525  1.00  0.00     0.001 A 
HETATM   18  C   UNL     1      44.801 -17.199   6.856  1.00  0.00     0.030 A 
HETATM   19  C   UNL     1      42.495 -18.150   5.565  1.00  0.00     0.014 A 
HETATM   20  C   UNL     1      43.346 -19.032   6.238  1.00  0.00     0.001 A 
HETATM   21  C   UNL     1      44.485 -18.560   6.875  1.00  0.00     0.002 A 
ENDBRANCH   1  11
BRANCH   2  22
HETATM   22  C   UNL     1      39.238 -14.049   5.254  1.00  0.00     0.229 C 
BRANCH  22  23
HETATM   23  C   UNL     1      39.279 -12.662   5.900  1.00  0.00     0.235 C 
HETATM   24  N   UNL     1      40.038 -12.557   7.045  1.00  0.00    -0.357 N 
HETATM   25  H   UNL     1      40.641 -13.335   7.286  1.00  0.00     0.162 HD
HETATM   26  O   UNL     1      38.556 -11.750   5.499  1.00  0.00    -0.272 OA
BRANCH  24  27
HETATM   27  C   UNL     1      40.220 -11.275   7.705  1.00  0.00     0.154 C 
BRANCH  27  28
HETATM   28  C   UNL     1      39.332 -11.106   8.950  1.00  0.00     0.139 C 
HETATM   29  O   UNL     1      40.142 -11.220  10.144  1.00  0.00    -0.384 OA
HETATM   30  C   UNL     1      39.756 -10.172  11.037  1.00  0.00     0.168 C 
HETATM   31  C   UNL     1      39.342  -9.028  10.146  1.00  0.00     0.029 C 
HETATM   32  C   UNL     1      38.643  -9.742   9.016  1.00  0.00     0.035 C 
ENDBRANCH  27  28
ENDBRANCH  24  27
ENDBRANCH  22  23
ENDBRANCH   2  22
TORSDOF 5
ENDMDL
