MODEL 1
REMARK VINA RESULT:      -8.8      0.000      0.000
REMARK  3 active torsions:
REMARK  status: ('A' for Active; 'I' for Inactive)
REMARK    1  A    between atoms: C_3  and  N_4 
REMARK       I    between atoms: N_4  and  C_5 
REMARK    2  A    between atoms: C_5  and  C_6 
REMARK    3  A    between atoms: C_7  and  C_8 
ROOT
HETATM    1  C   UNL     1      43.515 -16.794   5.429  1.00  0.00     0.062 C 
HETATM    2  C   UNL     1      43.536 -15.860   4.212  1.00  0.00     0.199 C 
HETATM    3  N   UNL     1      43.090 -14.524   4.592  1.00  0.00    -0.092 N 
HETATM    4  C   UNL     1      42.439 -14.227   5.755  1.00  0.00     0.735 A 
HETATM    5  N   UNL     1      42.225 -15.212   6.652  1.00  0.00    -0.191 N 
HETATM    6  N   UNL     1      43.292 -13.410   3.873  1.00  0.00     0.012 NA
HETATM    7  N   UNL     1      42.707 -12.448   4.583  1.00  0.00     0.033 NA
HETATM    8  N   UNL     1      42.172 -12.944   5.758  1.00  0.00     0.030 NA
HETATM    9  C   UNL     1      42.815 -16.469   6.548  1.00  0.00     0.037 C 
HETATM   10  C   UNL     1      42.588 -17.389   7.723  1.00  0.00     0.070 C 
HETATM   11  H   UNL     1      41.772 -14.975   7.533  1.00  0.00     0.184 HD
ENDROOT
BRANCH   1  12
HETATM   12  C   UNL     1      44.322 -18.040   5.259  1.00  0.00     0.256 C 
HETATM   13  N   UNL     1      43.613 -19.087   4.716  1.00  0.00    -0.323 N 
HETATM   14  H   UNL     1      42.606 -18.992   4.733  1.00  0.00     0.169 HD
HETATM   15  O   UNL     1      45.445 -18.096   5.737  1.00  0.00    -0.267 OA
BRANCH  13  16
HETATM   16  C   UNL     1      44.084 -20.358   4.307  1.00  0.00     0.041 A 
HETATM   17  C   UNL     1      44.070 -20.878   2.999  1.00  0.00    -0.035 A 
HETATM   18  C   UNL     1      43.482 -20.188   1.799  1.00  0.00     0.050 C 
HETATM   19  C   UNL     1      44.606 -22.164   2.775  1.00  0.00     0.009 A 
HETATM   20  C   UNL     1      45.091 -22.945   3.820  1.00  0.00     0.001 A 
HETATM   21  C   UNL     1      45.050 -22.457   5.116  1.00  0.00     0.002 A 
HETATM   22  C   UNL     1      44.547 -21.177   5.355  1.00  0.00     0.030 A 
ENDBRANCH  13  16
ENDBRANCH   1  12
BRANCH   2  23
HETATM   23  C   UNL     1      42.688 -16.356   3.053  1.00  0.00    -0.011 A 
HETATM   24  C   UNL     1      41.336 -16.669   3.204  1.00  0.00     0.125 A 
HETATM   25  N   UNL     1      40.540 -17.119   2.208  1.00  0.00    -0.272 NA
HETATM   26  C   UNL     1      41.111 -17.266   0.994  1.00  0.00     0.116 A 
HETATM   27  C   UNL     1      42.439 -16.980   0.731  1.00  0.00     0.020 A 
HETATM   28  C   UNL     1      43.236 -16.519   1.775  1.00  0.00     0.012 A 
ENDBRANCH   2  23
TORSDOF 3
ENDMDL
MODEL 2
REMARK VINA RESULT:      -8.6      2.114      4.210
REMARK  3 active torsions:
REMARK  status: ('A' for Active; 'I' for Inactive)
REMARK    1  A    between atoms: C_3  and  N_4 
REMARK       I    between atoms: N_4  and  C_5 
REMARK    2  A    between atoms: C_5  and  C_6 
REMARK    3  A    between atoms: C_7  and  C_8 
ROOT
HETATM    1  C   UNL     1      41.030 -15.971   4.008  1.00  0.00     0.062 C 
HETATM    2  C   UNL     1      41.059 -15.206   5.338  1.00  0.00     0.199 C 
HETATM    3  N   UNL     1      40.249 -13.996   5.243  1.00  0.00    -0.092 N 
HETATM    4  C   UNL     1      39.808 -13.450   4.072  1.00  0.00     0.735 A 
HETATM    5  N   UNL     1      40.088 -14.080   2.912  1.00  0.00    -0.191 N 
HETATM    6  N   UNL     1      39.799 -13.285   6.288  1.00  0.00     0.012 NA
HETATM    7  N   UNL     1      39.134 -12.273   5.737  1.00  0.00     0.033 NA
HETATM    8  N   UNL     1      39.132 -12.364   4.357  1.00  0.00     0.030 NA
HETATM    9  C   UNL     1      40.622 -15.365   2.862  1.00  0.00     0.037 C 
HETATM   10  C   UNL     1      40.721 -15.970   1.483  1.00  0.00     0.070 C 
HETATM   11  H   UNL     1      39.725 -13.686   2.046  1.00  0.00     0.184 HD
ENDROOT
BRANCH   1  12
HETATM   12  C   UNL     1      41.470 -17.395   4.111  1.00  0.00     0.256 C 
HETATM   13  N   UNL     1      42.524 -17.709   3.283  1.00  0.00    -0.323 N 
HETATM   14  H   UNL     1      42.709 -17.050   2.539  1.00  0.00     0.169 HD
HETATM   15  O   UNL     1      40.801 -18.183   4.762  1.00  0.00    -0.267 OA
BRANCH  13  16
HETATM   16  C   UNL     1      43.266 -18.912   3.211  1.00  0.00     0.041 A 
HETATM   17  C   UNL     1      44.232 -19.359   4.132  1.00  0.00    -0.035 A 
HETATM   18  C   UNL     1      44.698 -18.594   5.339  1.00  0.00     0.050 C 
HETATM   19  C   UNL     1      44.857 -20.605   3.907  1.00  0.00     0.009 A 
HETATM   20  C   UNL     1      44.585 -21.365   2.772  1.00  0.00     0.001 A 
HETATM   21  C   UNL     1      43.678 -20.895   1.836  1.00  0.00     0.002 A 
HETATM   22  C   UNL     1      43.029 -19.678   2.053  1.00  0.00     0.030 A 
ENDBRANCH  13  16
ENDBRANCH   1  12
BRANCH   2  23
HETATM   23  C   UNL     1      42.460 -14.831   5.792  1.00  0.00    -0.011 A 
HETATM   24  C   UNL     1      43.185 -13.803   5.188  1.00  0.00     0.125 A 
HETATM   25  N   UNL     1      44.435 -13.435   5.548  1.00  0.00    -0.272 NA
HETATM   26  C   UNL     1      44.999 -14.121   6.564  1.00  0.00     0.116 A 
HETATM   27  C   UNL     1      44.370 -15.153   7.237  1.00  0.00     0.020 A 
HETATM   28  C   UNL     1      43.084 -15.511   6.845  1.00  0.00     0.012 A 
ENDBRANCH   2  23
TORSDOF 3
ENDMDL
MODEL 3
REMARK VINA RESULT:      -8.4      1.918      2.498
REMARK  3 active torsions:
REMARK  status: ('A' for Active; 'I' for Inactive)
REMARK    1  A    between atoms: C_3  and  N_4 
REMARK       I    between atoms: N_4  and  C_5 
REMARK    2  A    between atoms: C_5  and  C_6 
REMARK    3  A    between atoms: C_7  and  C_8 
ROOT
HETATM    1  C   UNL     1      43.316 -16.995   6.008  1.00  0.00     0.062 C 
HETATM    2  C   UNL     1      43.448 -15.676   5.236  1.00  0.00     0.199 C 
HETATM    3  N   UNL     1      44.117 -14.673   6.059  1.00  0.00    -0.092 N 
HETATM    4  C   UNL     1      44.297 -14.775   7.409  1.00  0.00     0.735 A 
HETATM    5  N   UNL     1      43.879 -15.892   8.040  1.00  0.00    -0.191 N 
HETATM    6  N   UNL     1      44.675 -13.544   5.598  1.00  0.00     0.012 NA
HETATM    7  N   UNL     1      45.141 -12.937   6.687  1.00  0.00     0.033 NA
HETATM    8  N   UNL     1      44.912 -13.694   7.822  1.00  0.00     0.030 NA
HETATM    9  C   UNL     1      43.463 -17.033   7.358  1.00  0.00     0.037 C 
HETATM   10  C   UNL     1      43.181 -18.236   8.224  1.00  0.00     0.070 C 
HETATM   11  H   UNL     1      44.049 -15.976   9.041  1.00  0.00     0.184 HD
ENDROOT
BRANCH   1  12
HETATM   12  C   UNL     1      43.031 -18.182   5.146  1.00  0.00     0.256 C 
HETATM   13  N   UNL     1      44.163 -18.784   4.644  1.00  0.00    -0.323 N 
HETATM   14  H   UNL     1      45.011 -18.234   4.690  1.00  0.00     0.169 HD
HETATM   15  O   UNL     1      41.877 -18.428   4.827  1.00  0.00    -0.267 OA
BRANCH  13  16
HETATM   16  C   UNL     1      44.273 -19.985   3.904  1.00  0.00     0.041 A 
HETATM   17  C   UNL     1      43.999 -20.156   2.534  1.00  0.00    -0.035 A 
HETATM   18  C   UNL     1      43.472 -19.087   1.616  1.00  0.00     0.050 C 
HETATM   19  C   UNL     1      44.188 -21.431   1.958  1.00  0.00     0.009 A 
HETATM   20  C   UNL     1      44.578 -22.527   2.723  1.00  0.00     0.001 A 
HETATM   21  C   UNL     1      44.789 -22.371   4.083  1.00  0.00     0.002 A 
HETATM   22  C   UNL     1      44.634 -21.113   4.667  1.00  0.00     0.030 A 
ENDBRANCH  13  16
ENDBRANCH   1  12
BRANCH   2  23
HETATM   23  C   UNL     1      42.119 -15.118   4.755  1.00  0.00    -0.011 A 
HETATM   24  C   UNL     1      41.876 -14.837   3.410  1.00  0.00     0.125 A 
HETATM   25  N   UNL     1      40.715 -14.334   2.932  1.00  0.00    -0.272 NA
HETATM   26  C   UNL     1      39.740 -14.098   3.834  1.00  0.00     0.116 A 
HETATM   27  C   UNL     1      39.871 -14.344   5.190  1.00  0.00     0.020 A 
HETATM   28  C   UNL     1      41.077 -14.862   5.654  1.00  0.00     0.012 A 
ENDBRANCH   2  23
TORSDOF 3
ENDMDL
MODEL 4
REMARK VINA RESULT:      -8.1      2.356      3.169
REMARK  3 active torsions:
REMARK  status: ('A' for Active; 'I' for Inactive)
REMARK    1  A    between atoms: C_3  and  N_4 
REMARK       I    between atoms: N_4  and  C_5 
REMARK    2  A    between atoms: C_5  and  C_6 
REMARK    3  A    between atoms: C_7  and  C_8 
ROOT
HETATM    1  C   UNL     1      41.572 -15.185   4.905  1.00  0.00     0.062 C 
HETATM    2  C   UNL     1      41.468 -13.877   4.111  1.00  0.00     0.199 C 
HETATM    3  N   UNL     1      40.650 -12.909   4.835  1.00  0.00    -0.092 N 
HETATM    4  C   UNL     1      39.831 -13.218   5.883  1.00  0.00     0.735 A 
HETATM    5  N   UNL     1      39.795 -14.491   6.329  1.00  0.00    -0.191 N 
HETATM    6  N   UNL     1      40.622 -11.589   4.594  1.00  0.00     0.012 NA
HETATM    7  N   UNL     1      39.737 -11.114   5.466  1.00  0.00     0.033 NA
HETATM    8  N   UNL     1      39.237 -12.119   6.275  1.00  0.00     0.030 NA
HETATM    9  C   UNL     1      40.704 -15.462   5.913  1.00  0.00     0.037 C 
HETATM   10  C   UNL     1      40.610 -16.785   6.634  1.00  0.00     0.070 C 
HETATM   11  H   UNL     1      39.210 -14.706   7.134  1.00  0.00     0.184 HD
ENDROOT
BRANCH   1  12
HETATM   12  C   UNL     1      42.692 -16.075   4.474  1.00  0.00     0.256 C 
HETATM   13  N   UNL     1      42.326 -17.395   4.336  1.00  0.00    -0.323 N 
HETATM   14  H   UNL     1      41.451 -17.657   4.771  1.00  0.00     0.169 HD
HETATM   15  O   UNL     1      43.830 -15.631   4.436  1.00  0.00    -0.267 OA
BRANCH  13  16
HETATM   16  C   UNL     1      43.087 -18.477   3.832  1.00  0.00     0.041 A 
HETATM   17  C   UNL     1      44.123 -19.157   4.499  1.00  0.00    -0.035 A 
HETATM   18  C   UNL     1      44.655 -18.804   5.860  1.00  0.00     0.050 C 
HETATM   19  C   UNL     1      44.759 -20.234   3.844  1.00  0.00     0.009 A 
HETATM   20  C   UNL     1      44.425 -20.596   2.541  1.00  0.00     0.001 A 
HETATM   21  C   UNL     1      43.446 -19.888   1.864  1.00  0.00     0.002 A 
HETATM   22  C   UNL     1      42.787 -18.837   2.503  1.00  0.00     0.030 A 
ENDBRANCH  13  16
ENDBRANCH   1  12
BRANCH   2  23
HETATM   23  C   UNL     1      40.901 -14.060   2.713  1.00  0.00    -0.011 A 
HETATM   24  C   UNL     1      41.669 -13.846   1.568  1.00  0.00     0.125 A 
HETATM   25  N   UNL     1      41.211 -13.988   0.303  1.00  0.00    -0.272 NA
HETATM   26  C   UNL     1      39.923 -14.364   0.163  1.00  0.00     0.116 A 
HETATM   27  C   UNL     1      39.074 -14.609   1.228  1.00  0.00     0.020 A 
HETATM   28  C   UNL     1      39.572 -14.455   2.519  1.00  0.00     0.012 A 
ENDBRANCH   2  23
TORSDOF 3
ENDMDL
MODEL 5
REMARK VINA RESULT:      -8.0      2.342      2.837
REMARK  3 active torsions:
REMARK  status: ('A' for Active; 'I' for Inactive)
REMARK    1  A    between atoms: C_3  and  N_4 
REMARK       I    between atoms: N_4  and  C_5 
REMARK    2  A    between atoms: C_5  and  C_6 
REMARK    3  A    between atoms: C_7  and  C_8 
ROOT
HETATM    1  C   UNL     1      41.533 -15.096   4.917  1.00  0.00     0.062 C 
HETATM    2  C   UNL     1      41.516 -13.817   4.070  1.00  0.00     0.199 C 
HETATM    3  N   UNL     1      40.617 -12.830   4.660  1.00  0.00    -0.092 N 
HETATM    4  C   UNL     1      39.684 -13.109   5.618  1.00  0.00     0.735 A 
HETATM    5  N   UNL     1      39.601 -14.366   6.101  1.00  0.00    -0.191 N 
HETATM    6  N   UNL     1      40.613 -11.520   4.372  1.00  0.00     0.012 NA
HETATM    7  N   UNL     1      39.631 -11.022   5.119  1.00  0.00     0.033 NA
HETATM    8  N   UNL     1      39.045 -12.001   5.900  1.00  0.00     0.030 NA
HETATM    9  C   UNL     1      40.555 -15.344   5.828  1.00  0.00     0.037 C 
HETATM   10  C   UNL     1      40.383 -16.642   6.579  1.00  0.00     0.070 C 
HETATM   11  H   UNL     1      38.928 -14.558   6.841  1.00  0.00     0.184 HD
ENDROOT
BRANCH   1  12
HETATM   12  C   UNL     1      42.698 -15.992   4.650  1.00  0.00     0.256 C 
HETATM   13  N   UNL     1      42.350 -17.191   4.068  1.00  0.00    -0.323 N 
HETATM   14  H   UNL     1      41.371 -17.438   4.122  1.00  0.00     0.169 HD
HETATM   15  O   UNL     1      43.798 -15.692   5.089  1.00  0.00    -0.267 OA
BRANCH  13  16
HETATM   16  C   UNL     1      43.195 -18.212   3.572  1.00  0.00     0.041 A 
HETATM   17  C   UNL     1      43.583 -18.404   2.232  1.00  0.00    -0.035 A 
HETATM   18  C   UNL     1      43.106 -17.582   1.067  1.00  0.00     0.050 C 
HETATM   19  C   UNL     1      44.455 -19.470   1.925  1.00  0.00     0.009 A 
HETATM   20  C   UNL     1      44.889 -20.363   2.901  1.00  0.00     0.001 A 
HETATM   21  C   UNL     1      44.460 -20.209   4.209  1.00  0.00     0.002 A 
HETATM   22  C   UNL     1      43.618 -19.146   4.538  1.00  0.00     0.030 A 
ENDBRANCH  13  16
ENDBRANCH   1  12
BRANCH   2  23
HETATM   23  C   UNL     1      41.115 -14.052   2.623  1.00  0.00    -0.011 A 
HETATM   24  C   UNL     1      39.836 -14.487   2.271  1.00  0.00     0.125 A 
HETATM   25  N   UNL     1      39.431 -14.718   1.001  1.00  0.00    -0.272 NA
HETATM   26  C   UNL     1      40.339 -14.505   0.027  1.00  0.00     0.116 A 
HETATM   27  C   UNL     1      41.631 -14.069   0.262  1.00  0.00     0.020 A 
HETATM   28  C   UNL     1      42.021 -13.839   1.579  1.00  0.00     0.012 A 
ENDBRANCH   2  23
TORSDOF 3
ENDMDL
MODEL 6
REMARK VINA RESULT:      -7.8      4.183      5.705
REMARK  3 active torsions:
REMARK  status: ('A' for Active; 'I' for Inactive)
REMARK    1  A    between atoms: C_3  and  N_4 
REMARK       I    between atoms: N_4  and  C_5 
REMARK    2  A    between atoms: C_5  and  C_6 
REMARK    3  A    between atoms: C_7  and  C_8 
ROOT
HETATM    1  C   UNL     1      41.481 -14.062   0.640  1.00  0.00     0.062 C 
HETATM    2  C   UNL     1      41.832 -14.001  -0.853  1.00  0.00     0.199 C 
HETATM    3  N   UNL     1      42.198 -12.639  -1.230  1.00  0.00    -0.092 N 
HETATM    4  C   UNL     1      41.948 -11.532  -0.471  1.00  0.00     0.735 A 
HETATM    5  N   UNL     1      41.367 -11.687   0.737  1.00  0.00    -0.191 N 
HETATM    6  N   UNL     1      42.858 -12.300  -2.347  1.00  0.00     0.012 NA
HETATM    7  N   UNL     1      42.953 -10.974  -2.285  1.00  0.00     0.033 NA
HETATM    8  N   UNL     1      42.390 -10.483  -1.120  1.00  0.00     0.030 NA
HETATM    9  C   UNL     1      41.199 -12.932   1.339  1.00  0.00     0.037 C 
HETATM   10  C   UNL     1      40.675 -12.899   2.754  1.00  0.00     0.070 C 
HETATM   11  H   UNL     1      41.218 -10.860   1.313  1.00  0.00     0.184 HD
ENDROOT
BRANCH   1  12
HETATM   12  C   UNL     1      41.494 -15.441   1.215  1.00  0.00     0.256 C 
HETATM   13  N   UNL     1      42.755 -15.899   1.524  1.00  0.00    -0.323 N 
HETATM   14  H   UNL     1      43.522 -15.387   1.108  1.00  0.00     0.169 HD
HETATM   15  O   UNL     1      40.464 -16.099   1.219  1.00  0.00    -0.267 OA
BRANCH  13  16
HETATM   16  C   UNL     1      43.126 -17.092   2.189  1.00  0.00     0.041 A 
HETATM   17  C   UNL     1      43.289 -17.264   3.576  1.00  0.00    -0.035 A 
HETATM   18  C   UNL     1      43.158 -16.176   4.606  1.00  0.00     0.050 C 
HETATM   19  C   UNL     1      43.643 -18.541   4.064  1.00  0.00     0.009 A 
HETATM   20  C   UNL     1      43.889 -19.608   3.205  1.00  0.00     0.001 A 
HETATM   21  C   UNL     1      43.787 -19.422   1.836  1.00  0.00     0.002 A 
HETATM   22  C   UNL     1      43.413 -18.174   1.335  1.00  0.00     0.030 A 
ENDBRANCH  13  16
ENDBRANCH   1  12
BRANCH   2  23
HETATM   23  C   UNL     1      40.713 -14.484  -1.760  1.00  0.00    -0.011 A 
HETATM   24  C   UNL     1      39.433 -13.930  -1.716  1.00  0.00     0.125 A 
HETATM   25  N   UNL     1      38.401 -14.327  -2.496  1.00  0.00    -0.272 NA
HETATM   26  C   UNL     1      38.650 -15.327  -3.368  1.00  0.00     0.116 A 
HETATM   27  C   UNL     1      39.882 -15.942  -3.499  1.00  0.00     0.020 A 
HETATM   28  C   UNL     1      40.926 -15.513  -2.684  1.00  0.00     0.012 A 
ENDBRANCH   2  23
TORSDOF 3
ENDMDL
MODEL 7
REMARK VINA RESULT:      -7.6      2.489      4.029
REMARK  3 active torsions:
REMARK  status: ('A' for Active; 'I' for Inactive)
REMARK    1  A    between atoms: C_3  and  N_4 
REMARK       I    between atoms: N_4  and  C_5 
REMARK    2  A    between atoms: C_5  and  C_6 
REMARK    3  A    between atoms: C_7  and  C_8 
ROOT
HETATM    1  C   UNL     1      42.428 -13.527   4.159  1.00  0.00     0.062 C 
HETATM    2  C   UNL     1      42.653 -13.754   2.659  1.00  0.00     0.199 C 
HETATM    3  N   UNL     1      42.120 -12.633   1.892  1.00  0.00    -0.092 N 
HETATM    4  C   UNL     1      41.263 -11.693   2.389  1.00  0.00     0.735 A 
HETATM    5  N   UNL     1      40.907 -11.758   3.689  1.00  0.00    -0.191 N 
HETATM    6  N   UNL     1      42.429 -12.354   0.616  1.00  0.00     0.012 NA
HETATM    7  N   UNL     1      41.706 -11.274   0.330  1.00  0.00     0.033 NA
HETATM    8  N   UNL     1      40.976 -10.852   1.426  1.00  0.00     0.030 NA
HETATM    9  C   UNL     1      41.530 -12.607   4.600  1.00  0.00     0.037 C 
HETATM   10  C   UNL     1      41.110 -12.431   6.039  1.00  0.00     0.070 C 
HETATM   11  H   UNL     1      40.296 -11.033   4.061  1.00  0.00     0.184 HD
ENDROOT
BRANCH   1  12
HETATM   12  C   UNL     1      43.276 -14.384   5.042  1.00  0.00     0.256 C 
HETATM   13  N   UNL     1      42.692 -15.587   5.370  1.00  0.00    -0.323 N 
HETATM   14  H   UNL     1      41.696 -15.651   5.207  1.00  0.00     0.169 HD
HETATM   15  O   UNL     1      44.300 -13.921   5.522  1.00  0.00    -0.267 OA
BRANCH  13  16
HETATM   16  C   UNL     1      43.251 -16.679   6.075  1.00  0.00     0.041 A 
HETATM   17  C   UNL     1      43.847 -17.824   5.514  1.00  0.00    -0.035 A 
HETATM   18  C   UNL     1      43.937 -18.121   4.043  1.00  0.00     0.050 C 
HETATM   19  C   UNL     1      44.375 -18.807   6.380  1.00  0.00     0.009 A 
HETATM   20  C   UNL     1      44.266 -18.696   7.763  1.00  0.00     0.001 A 
HETATM   21  C   UNL     1      43.626 -17.597   8.313  1.00  0.00     0.002 A 
HETATM   22  C   UNL     1      43.121 -16.602   7.476  1.00  0.00     0.030 A 
ENDBRANCH  13  16
ENDBRANCH   1  12
BRANCH   2  23
HETATM   23  C   UNL     1      42.040 -15.045   2.142  1.00  0.00    -0.011 A 
HETATM   24  C   UNL     1      42.750 -15.929   1.328  1.00  0.00     0.125 A 
HETATM   25  N   UNL     1      42.250 -17.086   0.837  1.00  0.00    -0.272 NA
HETATM   26  C   UNL     1      40.978 -17.386   1.171  1.00  0.00     0.116 A 
HETATM   27  C   UNL     1      40.185 -16.586   1.975  1.00  0.00     0.020 A 
HETATM   28  C   UNL     1      40.726 -15.401   2.466  1.00  0.00     0.012 A 
ENDBRANCH   2  23
TORSDOF 3
ENDMDL
MODEL 8
REMARK VINA RESULT:      -7.6      2.431      4.486
REMARK  3 active torsions:
REMARK  status: ('A' for Active; 'I' for Inactive)
REMARK    1  A    between atoms: C_3  and  N_4 
REMARK       I    between atoms: N_4  and  C_5 
REMARK    2  A    between atoms: C_5  and  C_6 
REMARK    3  A    between atoms: C_7  and  C_8 
ROOT
HETATM    1  C   UNL     1      40.931 -14.857   3.553  1.00  0.00     0.062 C 
HETATM    2  C   UNL     1      40.840 -14.690   5.075  1.00  0.00     0.199 C 
HETATM    3  N   UNL     1      40.048 -13.509   5.408  1.00  0.00    -0.092 N 
HETATM    4  C   UNL     1      39.723 -12.522   4.522  1.00  0.00     0.735 A 
HETATM    5  N   UNL     1      40.107 -12.647   3.235  1.00  0.00    -0.191 N 
HETATM    6  N   UNL     1      39.506 -13.257   6.608  1.00  0.00     0.012 NA
HETATM    7  N   UNL     1      38.901 -12.082   6.457  1.00  0.00     0.033 NA
HETATM    8  N   UNL     1      39.028 -11.613   5.161  1.00  0.00     0.030 NA
HETATM    9  C   UNL     1      40.636 -13.827   2.717  1.00  0.00     0.037 C 
HETATM   10  C   UNL     1      40.862 -13.833   1.225  1.00  0.00     0.070 C 
HETATM   11  H   UNL     1      39.829 -11.924   2.574  1.00  0.00     0.184 HD
ENDROOT
BRANCH   1  12
HETATM   12  C   UNL     1      41.352 -16.221   3.112  1.00  0.00     0.256 C 
HETATM   13  N   UNL     1      42.664 -16.516   3.406  1.00  0.00    -0.323 N 
HETATM   14  H   UNL     1      43.251 -15.726   3.640  1.00  0.00     0.169 HD
HETATM   15  O   UNL     1      40.600 -16.883   2.413  1.00  0.00    -0.267 OA
BRANCH  13  16
HETATM   16  C   UNL     1      43.353 -17.742   3.247  1.00  0.00     0.041 A 
HETATM   17  C   UNL     1      43.744 -18.334   2.032  1.00  0.00    -0.035 A 
HETATM   18  C   UNL     1      43.437 -17.790   0.664  1.00  0.00     0.050 C 
HETATM   19  C   UNL     1      44.448 -19.558   2.069  1.00  0.00     0.009 A 
HETATM   20  C   UNL     1      44.708 -20.214   3.269  1.00  0.00     0.001 A 
HETATM   21  C   UNL     1      44.270 -19.661   4.461  1.00  0.00     0.002 A 
HETATM   22  C   UNL     1      43.596 -18.439   4.448  1.00  0.00     0.030 A 
ENDBRANCH  13  16
ENDBRANCH   1  12
BRANCH   2  23
HETATM   23  C   UNL     1      42.194 -14.588   5.757  1.00  0.00    -0.011 A 
HETATM   24  C   UNL     1      43.011 -13.465   5.619  1.00  0.00     0.125 A 
HETATM   25  N   UNL     1      44.225 -13.327   6.198  1.00  0.00    -0.272 NA
HETATM   26  C   UNL     1      44.654 -14.357   6.958  1.00  0.00     0.116 A 
HETATM   27  C   UNL     1      43.924 -15.513   7.168  1.00  0.00     0.020 A 
HETATM   28  C   UNL     1      42.678 -15.628   6.560  1.00  0.00     0.012 A 
ENDBRANCH   2  23
TORSDOF 3
ENDMDL
MODEL 9
REMARK VINA RESULT:      -7.6      2.073      4.137
REMARK  3 active torsions:
REMARK  status: ('A' for Active; 'I' for Inactive)
REMARK    1  A    between atoms: C_3  and  N_4 
REMARK       I    between atoms: N_4  and  C_5 
REMARK    2  A    between atoms: C_5  and  C_6 
REMARK    3  A    between atoms: C_7  and  C_8 
ROOT
HETATM    1  C   UNL     1      42.055 -17.048   2.355  1.00  0.00     0.062 C 
HETATM    2  C   UNL     1      40.884 -16.143   2.758  1.00  0.00     0.199 C 
HETATM    3  N   UNL     1      40.369 -15.431   1.592  1.00  0.00    -0.092 N 
HETATM    4  C   UNL     1      41.027 -15.323   0.400  1.00  0.00     0.735 A 
HETATM    5  N   UNL     1      42.213 -15.948   0.251  1.00  0.00    -0.191 N 
HETATM    6  N   UNL     1      39.175 -14.826   1.523  1.00  0.00     0.012 NA
HETATM    7  N   UNL     1      39.141 -14.302   0.300  1.00  0.00     0.033 NA
HETATM    8  N   UNL     1      40.289 -14.604  -0.409  1.00  0.00     0.030 NA
HETATM    9  C   UNL     1      42.703 -16.869   1.174  1.00  0.00     0.037 C 
HETATM   10  C   UNL     1      43.967 -17.584   0.765  1.00  0.00     0.070 C 
HETATM   11  H   UNL     1      42.680 -15.893  -0.653  1.00  0.00     0.184 HD
ENDROOT
BRANCH   1  12
HETATM   12  C   UNL     1      42.383 -18.107   3.357  1.00  0.00     0.256 C 
HETATM   13  N   UNL     1      43.211 -19.092   2.868  1.00  0.00    -0.323 N 
HETATM   14  H   UNL     1      43.294 -19.136   1.861  1.00  0.00     0.169 HD
HETATM   15  O   UNL     1      41.797 -18.119   4.429  1.00  0.00    -0.267 OA
BRANCH  13  16
HETATM   16  C   UNL     1      43.815 -20.166   3.563  1.00  0.00     0.041 A 
HETATM   17  C   UNL     1      44.204 -21.405   3.019  1.00  0.00    -0.035 A 
HETATM   18  C   UNL     1      43.982 -21.834   1.595  1.00  0.00     0.050 C 
HETATM   19  C   UNL     1      44.817 -22.355   3.866  1.00  0.00     0.009 A 
HETATM   20  C   UNL     1      44.989 -22.116   5.227  1.00  0.00     0.001 A 
HETATM   21  C   UNL     1      44.552 -20.920   5.772  1.00  0.00     0.002 A 
HETATM   22  C   UNL     1      43.967 -19.958   4.948  1.00  0.00     0.030 A 
ENDBRANCH  13  16
ENDBRANCH   1  12
BRANCH   2  23
HETATM   23  C   UNL     1      41.239 -15.135   3.838  1.00  0.00    -0.011 A 
HETATM   24  C   UNL     1      40.396 -14.880   4.921  1.00  0.00     0.125 A 
HETATM   25  N   UNL     1      40.662 -13.990   5.904  1.00  0.00    -0.272 NA
HETATM   26  C   UNL     1      41.827 -13.315   5.812  1.00  0.00     0.116 A 
HETATM   27  C   UNL     1      42.739 -13.493   4.786  1.00  0.00     0.020 A 
HETATM   28  C   UNL     1      42.439 -14.415   3.788  1.00  0.00     0.012 A 
ENDBRANCH   2  23
TORSDOF 3
ENDMDL
MODEL 10
REMARK VINA RESULT:      -7.4      3.212      6.451
REMARK  3 active torsions:
REMARK  status: ('A' for Active; 'I' for Inactive)
REMARK    1  A    between atoms: C_3  and  N_4 
REMARK       I    between atoms: N_4  and  C_5 
REMARK    2  A    between atoms: C_5  and  C_6 
REMARK    3  A    between atoms: C_7  and  C_8 
ROOT
HETATM    1  C   UNL     1      41.945 -15.417   5.226  1.00  0.00     0.062 C 
HETATM    2  C   UNL     1      42.112 -16.893   4.843  1.00  0.00     0.199 C 
HETATM    3  N   UNL     1      43.153 -17.512   5.658  1.00  0.00    -0.092 N 
HETATM    4  C   UNL     1      44.066 -16.821   6.402  1.00  0.00     0.735 A 
HETATM    5  N   UNL     1      43.991 -15.475   6.441  1.00  0.00    -0.191 N 
HETATM    6  N   UNL     1      43.328 -18.833   5.813  1.00  0.00     0.012 NA
HETATM    7  N   UNL     1      44.389 -18.934   6.610  1.00  0.00     0.033 NA
HETATM    8  N   UNL     1      44.858 -17.688   6.984  1.00  0.00     0.030 NA
HETATM    9  C   UNL     1      42.906 -14.765   5.932  1.00  0.00     0.037 C 
HETATM   10  C   UNL     1      42.920 -13.281   6.205  1.00  0.00     0.070 C 
HETATM   11  H   UNL     1      44.652 -14.969   7.028  1.00  0.00     0.184 HD
ENDROOT
BRANCH   1  12
HETATM   12  C   UNL     1      40.662 -14.806   4.764  1.00  0.00     0.256 C 
HETATM   13  N   UNL     1      40.730 -14.270   3.498  1.00  0.00    -0.323 N 
HETATM   14  H   UNL     1      41.661 -14.117   3.135  1.00  0.00     0.169 HD
HETATM   15  O   UNL     1      39.739 -14.682   5.556  1.00  0.00    -0.267 OA
BRANCH  13  16
HETATM   16  C   UNL     1      39.687 -13.730   2.708  1.00  0.00     0.041 A 
HETATM   17  C   UNL     1      39.201 -12.410   2.747  1.00  0.00    -0.035 A 
HETATM   18  C   UNL     1      39.670 -11.342   3.696  1.00  0.00     0.050 C 
HETATM   19  C   UNL     1      38.163 -12.043   1.863  1.00  0.00     0.009 A 
HETATM   20  C   UNL     1      37.575 -12.967   1.003  1.00  0.00     0.001 A 
HETATM   21  C   UNL     1      38.014 -14.281   1.008  1.00  0.00     0.002 A 
HETATM   22  C   UNL     1      39.056 -14.658   1.856  1.00  0.00     0.030 A 
ENDBRANCH  13  16
ENDBRANCH   1  12
BRANCH   2  23
HETATM   23  C   UNL     1      42.437 -17.107   3.374  1.00  0.00    -0.011 A 
HETATM   24  C   UNL     1      43.719 -16.904   2.862  1.00  0.00     0.125 A 
HETATM   25  N   UNL     1      44.059 -17.073   1.564  1.00  0.00    -0.272 NA
HETATM   26  C   UNL     1      43.077 -17.467   0.727  1.00  0.00     0.116 A 
HETATM   27  C   UNL     1      41.774 -17.703   1.128  1.00  0.00     0.020 A 
HETATM   28  C   UNL     1      41.452 -17.521   2.470  1.00  0.00     0.012 A 
ENDBRANCH   2  23
TORSDOF 3
ENDMDL
