MODEL 1
REMARK VINA RESULT:      -9.8      0.000      0.000
REMARK  8 active torsions:
REMARK  status: ('A' for Active; 'I' for Inactive)
REMARK    1  A    between atoms: C_2  and  N_3 
REMARK    2  A    between atoms: N_3  and  N_4 
REMARK       I    between atoms: N_4  and  C_5 
REMARK    3  A    between atoms: C_5  and  C_6 
REMARK    4  A    between atoms: C_6  and  O_7 
REMARK    5  A    between atoms: O_7  and  C_8 
REMARK    6  A    between atoms: C_19  and  C_20 
REMARK       I    between atoms: C_20  and  N_21 
REMARK    7  A    between atoms: N_21  and  C_22 
REMARK    8  A    between atoms: C_25  and  C_26 
REMARK       I    between atoms: C_26  and  N_27 
ROOT
HETATM    1  C   UNL     1      43.856 -14.113   5.747  1.00  0.00     0.070 C 
HETATM    2  C   UNL     1      44.165 -14.569   7.159  1.00  0.00     0.027 C 
HETATM    3  C   UNL     1      43.903 -15.823   7.584  1.00  0.00     0.100 C 
ENDROOT
BRANCH   2   4
HETATM    4  N   UNL     1      44.730 -13.581   7.962  1.00  0.00    -0.302 N 
HETATM    5  H   UNL     1      44.033 -13.106   8.551  1.00  0.00     0.186 HD
BRANCH   4   6
HETATM    6  N   UNL     1      45.747 -12.728   7.523  1.00  0.00    -0.268 N 
HETATM    7  C   UNL     1      46.271 -11.746   8.343  1.00  0.00     0.260 C 
HETATM    8  O   UNL     1      47.376 -11.263   8.088  1.00  0.00    -0.269 OA
HETATM    9  H   UNL     1      46.383 -13.121   6.834  1.00  0.00     0.190 HD
BRANCH   7  10
HETATM   10  C   UNL     1      45.396 -11.221   9.480  1.00  0.00     0.280 C 
BRANCH  10  11
HETATM   11  O   UNL     1      44.110 -10.832   9.008  1.00  0.00    -0.342 OA
BRANCH  11  12
HETATM   12  C   UNL     1      43.208 -10.515   9.990  1.00  0.00     0.070 A 
HETATM   13  C   UNL     1      43.758 -10.208  11.237  1.00  0.00     0.049 A 
HETATM   14  C   UNL     1      42.938  -9.873  12.328  1.00  0.00    -0.023 A 
HETATM   15  C   UNL     1      41.534  -9.864  12.160  1.00  0.00    -0.026 A 
HETATM   16  C   UNL     1      43.478  -9.542  13.581  1.00  0.00     0.012 A 
HETATM   17  C   UNL     1      40.993 -10.205  10.912  1.00  0.00     0.015 A 
HETATM   18  C   UNL     1      40.711  -9.522  13.245  1.00  0.00     0.012 A 
HETATM   19  C   UNL     1      41.824 -10.535   9.837  1.00  0.00     0.037 A 
HETATM   20  C   UNL     1      41.265  -9.192  14.482  1.00  0.00     0.001 A 
HETATM   21  C   UNL     1      42.647  -9.203  14.651  1.00  0.00     0.001 A 
ENDBRANCH  11  12
ENDBRANCH  10  11
ENDBRANCH   7  10
ENDBRANCH   4   6
ENDBRANCH   2   4
BRANCH   3  22
HETATM   22  C   UNL     1      43.466 -16.924   6.681  1.00  0.00     0.247 C 
HETATM   23  N   UNL     1      44.528 -17.501   6.017  1.00  0.00    -0.324 N 
HETATM   24  H   UNL     1      45.452 -17.139   6.214  1.00  0.00     0.169 HD
HETATM   25  O   UNL     1      42.281 -17.202   6.557  1.00  0.00    -0.268 OA
BRANCH  23  26
HETATM   26  C   UNL     1      44.469 -18.567   5.092  1.00  0.00     0.035 A 
HETATM   27  C   UNL     1      44.107 -18.417   3.750  1.00  0.00     0.030 A 
HETATM   28  C   UNL     1      44.054 -19.523   2.892  1.00  0.00     0.019 A 
HETATM   29  C   UNL     1      44.360 -20.799   3.370  1.00  0.00     0.032 A 
HETATM   30  C   UNL     1      44.743 -20.953   4.707  1.00  0.00     0.019 A 
HETATM   31  C   UNL     1      44.791 -19.846   5.561  1.00  0.00     0.030 A 
BRANCH  29  32
HETATM   32  C   UNL     1      44.310 -22.005   2.503  1.00  0.00     0.249 C 
HETATM   33  N   UNL     1      43.617 -21.913   1.328  1.00  0.00    -0.366 N 
HETATM   34  H   UNL     1      42.986 -21.154   1.119  1.00  0.00     0.159 HD
HETATM   35  H   UNL     1      43.510 -22.771   0.802  1.00  0.00     0.159 HD
HETATM   36  O   UNL     1      44.834 -23.059   2.840  1.00  0.00    -0.268 OA
ENDBRANCH  29  32
ENDBRANCH  23  26
ENDBRANCH   3  22
TORSDOF 8
ENDMDL
MODEL 2
REMARK VINA RESULT:      -9.4      2.757     11.966
REMARK  8 active torsions:
REMARK  status: ('A' for Active; 'I' for Inactive)
REMARK    1  A    between atoms: C_2  and  N_3 
REMARK    2  A    between atoms: N_3  and  N_4 
REMARK       I    between atoms: N_4  and  C_5 
REMARK    3  A    between atoms: C_5  and  C_6 
REMARK    4  A    between atoms: C_6  and  O_7 
REMARK    5  A    between atoms: O_7  and  C_8 
REMARK    6  A    between atoms: C_19  and  C_20 
REMARK       I    between atoms: C_20  and  N_21 
REMARK    7  A    between atoms: N_21  and  C_22 
REMARK    8  A    between atoms: C_25  and  C_26 
REMARK       I    between atoms: C_26  and  N_27 
ROOT
HETATM    1  C   UNL     1      42.291 -11.509   7.198  1.00  0.00     0.070 C 
HETATM    2  C   UNL     1      43.304 -12.616   7.412  1.00  0.00     0.027 C 
HETATM    3  C   UNL     1      44.206 -12.581   8.414  1.00  0.00     0.100 C 
ENDROOT
BRANCH   2   4
HETATM    4  N   UNL     1      43.217 -13.649   6.482  1.00  0.00    -0.302 N 
HETATM    5  H   UNL     1      43.824 -13.496   5.665  1.00  0.00     0.186 HD
BRANCH   4   6
HETATM    6  N   UNL     1      42.017 -14.289   6.159  1.00  0.00    -0.268 N 
HETATM    7  C   UNL     1      41.913 -15.667   6.150  1.00  0.00     0.260 C 
HETATM    8  O   UNL     1      40.802 -16.196   6.225  1.00  0.00    -0.269 OA
HETATM    9  H   UNL     1      41.170 -13.778   6.394  1.00  0.00     0.190 HD
BRANCH   7  10
HETATM   10  C   UNL     1      43.188 -16.480   5.935  1.00  0.00     0.280 C 
BRANCH  10  11
HETATM   11  O   UNL     1      43.618 -16.423   4.578  1.00  0.00    -0.342 OA
BRANCH  11  12
HETATM   12  C   UNL     1      43.757 -17.641   3.966  1.00  0.00     0.070 A 
HETATM   13  C   UNL     1      44.126 -18.697   4.803  1.00  0.00     0.049 A 
HETATM   14  C   UNL     1      44.306 -19.995   4.295  1.00  0.00    -0.023 A 
HETATM   15  C   UNL     1      44.128 -20.227   2.912  1.00  0.00    -0.026 A 
HETATM   16  C   UNL     1      44.658 -21.070   5.129  1.00  0.00     0.012 A 
HETATM   17  C   UNL     1      43.789 -19.153   2.078  1.00  0.00     0.015 A 
HETATM   18  C   UNL     1      44.300 -21.524   2.402  1.00  0.00     0.012 A 
HETATM   19  C   UNL     1      43.612 -17.867   2.600  1.00  0.00     0.037 A 
HETATM   20  C   UNL     1      44.644 -22.581   3.245  1.00  0.00     0.001 A 
HETATM   21  C   UNL     1      44.824 -22.354   4.606  1.00  0.00     0.001 A 
ENDBRANCH  11  12
ENDBRANCH  10  11
ENDBRANCH   7  10
ENDBRANCH   4   6
ENDBRANCH   2   4
BRANCH   3  22
HETATM   22  C   UNL     1      44.185 -11.570   9.508  1.00  0.00     0.247 C 
HETATM   23  N   UNL     1      43.271 -11.890  10.491  1.00  0.00    -0.324 N 
HETATM   24  H   UNL     1      42.744 -12.746  10.375  1.00  0.00     0.169 HD
HETATM   25  O   UNL     1      44.890 -10.571   9.455  1.00  0.00    -0.268 OA
BRANCH  23  26
HETATM   26  C   UNL     1      42.997 -11.152  11.664  1.00  0.00     0.035 A 
HETATM   27  C   UNL     1      43.837 -10.158  12.174  1.00  0.00     0.030 A 
HETATM   28  C   UNL     1      43.510  -9.476  13.354  1.00  0.00     0.019 A 
HETATM   29  C   UNL     1      42.334  -9.786  14.041  1.00  0.00     0.032 A 
HETATM   30  C   UNL     1      41.479 -10.765  13.524  1.00  0.00     0.019 A 
HETATM   31  C   UNL     1      41.812 -11.446  12.348  1.00  0.00     0.030 A 
BRANCH  29  32
HETATM   32  C   UNL     1      41.946  -9.099  15.301  1.00  0.00     0.249 C 
HETATM   33  N   UNL     1      42.158  -7.751  15.378  1.00  0.00    -0.366 N 
HETATM   34  H   UNL     1      42.734  -7.245  14.722  1.00  0.00     0.159 HD
HETATM   35  H   UNL     1      41.982  -7.320  16.276  1.00  0.00     0.159 HD
HETATM   36  O   UNL     1      41.489  -9.717  16.254  1.00  0.00    -0.268 OA
ENDBRANCH  29  32
ENDBRANCH  23  26
ENDBRANCH   3  22
TORSDOF 8
ENDMDL
MODEL 3
REMARK VINA RESULT:      -9.3      5.177      9.731
REMARK  8 active torsions:
REMARK  status: ('A' for Active; 'I' for Inactive)
REMARK    1  A    between atoms: C_2  and  N_3 
REMARK    2  A    between atoms: N_3  and  N_4 
REMARK       I    between atoms: N_4  and  C_5 
REMARK    3  A    between atoms: C_5  and  C_6 
REMARK    4  A    between atoms: C_6  and  O_7 
REMARK    5  A    between atoms: O_7  and  C_8 
REMARK    6  A    between atoms: C_19  and  C_20 
REMARK       I    between atoms: C_20  and  N_21 
REMARK    7  A    between atoms: N_21  and  C_22 
REMARK    8  A    between atoms: C_25  and  C_26 
REMARK       I    between atoms: C_26  and  N_27 
ROOT
HETATM    1  C   UNL     1      40.189 -12.870   4.599  1.00  0.00     0.070 C 
HETATM    2  C   UNL     1      41.505 -13.569   4.874  1.00  0.00     0.027 C 
HETATM    3  C   UNL     1      42.289 -14.042   3.883  1.00  0.00     0.100 C 
ENDROOT
BRANCH   2   4
HETATM    4  N   UNL     1      41.814 -13.681   6.228  1.00  0.00    -0.302 N 
HETATM    5  H   UNL     1      41.122 -13.214   6.829  1.00  0.00     0.186 HD
BRANCH   4   6
HETATM    6  N   UNL     1      43.118 -13.593   6.724  1.00  0.00    -0.268 N 
HETATM    7  C   UNL     1      43.971 -14.680   6.712  1.00  0.00     0.260 C 
HETATM    8  O   UNL     1      45.187 -14.504   6.805  1.00  0.00    -0.269 OA
HETATM    9  H   UNL     1      43.558 -12.680   6.645  1.00  0.00     0.190 HD
BRANCH   7  10
HETATM   10  C   UNL     1      43.350 -16.076   6.693  1.00  0.00     0.280 C 
BRANCH  10  11
HETATM   11  O   UNL     1      44.325 -17.073   6.398  1.00  0.00    -0.342 OA
BRANCH  11  12
HETATM   12  C   UNL     1      44.082 -17.797   5.260  1.00  0.00     0.070 A 
HETATM   13  C   UNL     1      44.534 -19.118   5.278  1.00  0.00     0.049 A 
HETATM   14  C   UNL     1      44.350 -19.962   4.169  1.00  0.00    -0.023 A 
HETATM   15  C   UNL     1      43.715 -19.456   3.013  1.00  0.00    -0.026 A 
HETATM   16  C   UNL     1      44.782 -21.299   4.181  1.00  0.00     0.012 A 
HETATM   17  C   UNL     1      43.294 -18.118   2.996  1.00  0.00     0.015 A 
HETATM   18  C   UNL     1      43.522 -20.297   1.905  1.00  0.00     0.012 A 
HETATM   19  C   UNL     1      43.483 -17.292   4.108  1.00  0.00     0.037 A 
HETATM   20  C   UNL     1      43.952 -21.624   1.937  1.00  0.00     0.001 A 
HETATM   21  C   UNL     1      44.583 -22.124   3.072  1.00  0.00     0.001 A 
ENDBRANCH  11  12
ENDBRANCH  10  11
ENDBRANCH   7  10
ENDBRANCH   4   6
ENDBRANCH   2   4
BRANCH   3  22
HETATM   22  C   UNL     1      42.047 -13.769   2.439  1.00  0.00     0.247 C 
HETATM   23  N   UNL     1      41.271 -14.745   1.850  1.00  0.00    -0.324 N 
HETATM   24  H   UNL     1      40.953 -15.504   2.439  1.00  0.00     0.169 HD
HETATM   25  O   UNL     1      42.548 -12.796   1.891  1.00  0.00    -0.268 OA
BRANCH  23  26
HETATM   26  C   UNL     1      40.854 -14.795   0.502  1.00  0.00     0.035 A 
HETATM   27  C   UNL     1      41.460 -15.591  -0.474  1.00  0.00     0.030 A 
HETATM   28  C   UNL     1      41.002 -15.578  -1.798  1.00  0.00     0.019 A 
HETATM   29  C   UNL     1      39.930 -14.761  -2.163  1.00  0.00     0.032 A 
HETATM   30  C   UNL     1      39.306 -13.977  -1.187  1.00  0.00     0.019 A 
HETATM   31  C   UNL     1      39.769 -13.991   0.134  1.00  0.00     0.030 A 
BRANCH  29  32
HETATM   32  C   UNL     1      39.413 -14.704  -3.556  1.00  0.00     0.249 C 
HETATM   33  N   UNL     1      38.653 -13.623  -3.906  1.00  0.00    -0.366 N 
HETATM   34  H   UNL     1      38.266 -12.979  -3.231  1.00  0.00     0.159 HD
HETATM   35  H   UNL     1      38.228 -13.652  -4.823  1.00  0.00     0.159 HD
HETATM   36  O   UNL     1      39.623 -15.607  -4.355  1.00  0.00    -0.268 OA
ENDBRANCH  29  32
ENDBRANCH  23  26
ENDBRANCH   3  22
TORSDOF 8
ENDMDL
MODEL 4
REMARK VINA RESULT:      -9.2      5.066      9.603
REMARK  8 active torsions:
REMARK  status: ('A' for Active; 'I' for Inactive)
REMARK    1  A    between atoms: C_2  and  N_3 
REMARK    2  A    between atoms: N_3  and  N_4 
REMARK       I    between atoms: N_4  and  C_5 
REMARK    3  A    between atoms: C_5  and  C_6 
REMARK    4  A    between atoms: C_6  and  O_7 
REMARK    5  A    between atoms: O_7  and  C_8 
REMARK    6  A    between atoms: C_19  and  C_20 
REMARK       I    between atoms: C_20  and  N_21 
REMARK    7  A    between atoms: N_21  and  C_22 
REMARK    8  A    between atoms: C_25  and  C_26 
REMARK       I    between atoms: C_26  and  N_27 
ROOT
HETATM    1  C   UNL     1      40.170 -13.517   4.589  1.00  0.00     0.070 C 
HETATM    2  C   UNL     1      41.662 -13.673   4.806  1.00  0.00     0.027 C 
HETATM    3  C   UNL     1      42.534 -13.747   3.779  1.00  0.00     0.100 C 
ENDROOT
BRANCH   2   4
HETATM    4  N   UNL     1      42.035 -13.738   6.147  1.00  0.00    -0.302 N 
HETATM    5  H   UNL     1      41.274 -13.459   6.780  1.00  0.00     0.186 HD
BRANCH   4   6
HETATM    6  N   UNL     1      43.298 -13.360   6.608  1.00  0.00    -0.268 N 
HETATM    7  C   UNL     1      44.321 -14.279   6.750  1.00  0.00     0.260 C 
HETATM    8  O   UNL     1      45.489 -13.890   6.801  1.00  0.00    -0.269 OA
HETATM    9  H   UNL     1      43.581 -12.408   6.387  1.00  0.00     0.190 HD
BRANCH   7  10
HETATM   10  C   UNL     1      43.943 -15.745   6.950  1.00  0.00     0.280 C 
BRANCH  10  11
HETATM   11  O   UNL     1      43.258 -16.264   5.814  1.00  0.00    -0.342 OA
BRANCH  11  12
HETATM   12  C   UNL     1      43.691 -17.494   5.392  1.00  0.00     0.070 A 
HETATM   13  C   UNL     1      43.251 -17.886   4.126  1.00  0.00     0.049 A 
HETATM   14  C   UNL     1      43.622 -19.128   3.582  1.00  0.00    -0.023 A 
HETATM   15  C   UNL     1      44.439 -19.998   4.340  1.00  0.00    -0.026 A 
HETATM   16  C   UNL     1      43.203 -19.527   2.303  1.00  0.00     0.012 A 
HETATM   17  C   UNL     1      44.849 -19.605   5.622  1.00  0.00     0.015 A 
HETATM   18  C   UNL     1      44.819 -21.236   3.798  1.00  0.00     0.012 A 
HETATM   19  C   UNL     1      44.472 -18.365   6.147  1.00  0.00     0.037 A 
HETATM   20  C   UNL     1      44.398 -21.614   2.523  1.00  0.00     0.001 A 
HETATM   21  C   UNL     1      43.589 -20.762   1.777  1.00  0.00     0.001 A 
ENDBRANCH  11  12
ENDBRANCH  10  11
ENDBRANCH   7  10
ENDBRANCH   4   6
ENDBRANCH   2   4
BRANCH   3  22
HETATM   22  C   UNL     1      42.159 -13.500   2.359  1.00  0.00     0.247 C 
HETATM   23  N   UNL     1      41.530 -14.590   1.793  1.00  0.00    -0.324 N 
HETATM   24  H   UNL     1      41.386 -15.401   2.381  1.00  0.00     0.169 HD
HETATM   25  O   UNL     1      42.447 -12.447   1.806  1.00  0.00    -0.268 OA
BRANCH  23  26
HETATM   26  C   UNL     1      41.044 -14.693   0.471  1.00  0.00     0.035 A 
HETATM   27  C   UNL     1      41.494 -15.639  -0.454  1.00  0.00     0.030 A 
HETATM   28  C   UNL     1      40.978 -15.674  -1.756  1.00  0.00     0.019 A 
HETATM   29  C   UNL     1      40.004 -14.754  -2.150  1.00  0.00     0.032 A 
HETATM   30  C   UNL     1      39.534 -13.817  -1.223  1.00  0.00     0.019 A 
HETATM   31  C   UNL     1      40.055 -13.785   0.076  1.00  0.00     0.030 A 
BRANCH  29  32
HETATM   32  C   UNL     1      39.431 -14.743  -3.522  1.00  0.00     0.249 C 
HETATM   33  N   UNL     1      38.610 -13.702  -3.857  1.00  0.00    -0.366 N 
HETATM   34  H   UNL     1      38.222 -13.065  -3.178  1.00  0.00     0.159 HD
HETATM   35  H   UNL     1      38.152 -13.765  -4.757  1.00  0.00     0.159 HD
HETATM   36  O   UNL     1      39.650 -15.649  -4.316  1.00  0.00    -0.268 OA
ENDBRANCH  29  32
ENDBRANCH  23  26
ENDBRANCH   3  22
TORSDOF 8
ENDMDL
MODEL 5
REMARK VINA RESULT:      -9.2      3.120     11.674
REMARK  8 active torsions:
REMARK  status: ('A' for Active; 'I' for Inactive)
REMARK    1  A    between atoms: C_2  and  N_3 
REMARK    2  A    between atoms: N_3  and  N_4 
REMARK       I    between atoms: N_4  and  C_5 
REMARK    3  A    between atoms: C_5  and  C_6 
REMARK    4  A    between atoms: C_6  and  O_7 
REMARK    5  A    between atoms: O_7  and  C_8 
REMARK    6  A    between atoms: C_19  and  C_20 
REMARK       I    between atoms: C_20  and  N_21 
REMARK    7  A    between atoms: N_21  and  C_22 
REMARK    8  A    between atoms: C_25  and  C_26 
REMARK       I    between atoms: C_26  and  N_27 
ROOT
HETATM    1  C   UNL     1      39.396 -12.251   6.934  1.00  0.00     0.070 C 
HETATM    2  C   UNL     1      40.675 -12.522   6.168  1.00  0.00     0.027 C 
HETATM    3  C   UNL     1      41.798 -11.801   6.365  1.00  0.00     0.100 C 
ENDROOT
BRANCH   2   4
HETATM    4  N   UNL     1      40.574 -13.566   5.250  1.00  0.00    -0.302 N 
HETATM    5  H   UNL     1      40.322 -13.239   4.308  1.00  0.00     0.186 HD
BRANCH   4   6
HETATM    6  N   UNL     1      40.019 -14.809   5.565  1.00  0.00    -0.268 N 
HETATM    7  C   UNL     1      40.798 -15.853   6.026  1.00  0.00     0.260 C 
HETATM    8  O   UNL     1      40.270 -16.790   6.629  1.00  0.00    -0.269 OA
HETATM    9  H   UNL     1      39.057 -14.790   5.895  1.00  0.00     0.190 HD
BRANCH   7  10
HETATM   10  C   UNL     1      42.283 -15.851   5.667  1.00  0.00     0.280 C 
BRANCH  10  11
HETATM   11  O   UNL     1      42.477 -15.734   4.260  1.00  0.00    -0.342 OA
BRANCH  11  12
HETATM   12  C   UNL     1      42.688 -16.921   3.608  1.00  0.00     0.070 A 
HETATM   13  C   UNL     1      43.503 -17.838   4.274  1.00  0.00     0.049 A 
HETATM   14  C   UNL     1      43.801 -19.089   3.707  1.00  0.00    -0.023 A 
HETATM   15  C   UNL     1      43.278 -19.413   2.434  1.00  0.00    -0.026 A 
HETATM   16  C   UNL     1      44.603 -20.029   4.375  1.00  0.00     0.012 A 
HETATM   17  C   UNL     1      42.486 -18.471   1.762  1.00  0.00     0.015 A 
HETATM   18  C   UNL     1      43.566 -20.665   1.867  1.00  0.00     0.012 A 
HETATM   19  C   UNL     1      42.199 -17.231   2.341  1.00  0.00     0.037 A 
HETATM   20  C   UNL     1      44.361 -21.588   2.547  1.00  0.00     0.001 A 
HETATM   21  C   UNL     1      44.880 -21.270   3.798  1.00  0.00     0.001 A 
ENDBRANCH  11  12
ENDBRANCH  10  11
ENDBRANCH   7  10
ENDBRANCH   4   6
ENDBRANCH   2   4
BRANCH   3  22
HETATM   22  C   UNL     1      41.958 -10.808   7.463  1.00  0.00     0.247 C 
HETATM   23  N   UNL     1      42.261 -11.411   8.667  1.00  0.00    -0.324 N 
HETATM   24  H   UNL     1      42.350 -12.419   8.672  1.00  0.00     0.169 HD
HETATM   25  O   UNL     1      41.781  -9.614   7.262  1.00  0.00    -0.268 OA
BRANCH  23  26
HETATM   26  C   UNL     1      42.478 -10.767   9.904  1.00  0.00     0.035 A 
HETATM   27  C   UNL     1      43.735 -10.615  10.495  1.00  0.00     0.030 A 
HETATM   28  C   UNL     1      43.875  -9.977  11.735  1.00  0.00     0.019 A 
HETATM   29  C   UNL     1      42.750  -9.486  12.403  1.00  0.00     0.032 A 
HETATM   30  C   UNL     1      41.491  -9.616  11.807  1.00  0.00     0.019 A 
HETATM   31  C   UNL     1      41.357 -10.257  10.570  1.00  0.00     0.030 A 
BRANCH  29  32
HETATM   32  C   UNL     1      42.844  -8.810  13.724  1.00  0.00     0.249 C 
HETATM   33  N   UNL     1      42.907  -7.445  13.733  1.00  0.00    -0.366 N 
HETATM   34  H   UNL     1      43.094  -6.895  12.907  1.00  0.00     0.159 HD
HETATM   35  H   UNL     1      43.072  -7.010  14.632  1.00  0.00     0.159 HD
HETATM   36  O   UNL     1      42.901  -9.448  14.768  1.00  0.00    -0.268 OA
ENDBRANCH  29  32
ENDBRANCH  23  26
ENDBRANCH   3  22
TORSDOF 8
ENDMDL
MODEL 6
REMARK VINA RESULT:      -9.1      3.098     11.822
REMARK  8 active torsions:
REMARK  status: ('A' for Active; 'I' for Inactive)
REMARK    1  A    between atoms: C_2  and  N_3 
REMARK    2  A    between atoms: N_3  and  N_4 
REMARK       I    between atoms: N_4  and  C_5 
REMARK    3  A    between atoms: C_5  and  C_6 
REMARK    4  A    between atoms: C_6  and  O_7 
REMARK    5  A    between atoms: O_7  and  C_8 
REMARK    6  A    between atoms: C_19  and  C_20 
REMARK       I    between atoms: C_20  and  N_21 
REMARK    7  A    between atoms: N_21  and  C_22 
REMARK    8  A    between atoms: C_25  and  C_26 
REMARK       I    between atoms: C_26  and  N_27 
ROOT
HETATM    1  C   UNL     1      39.816 -11.588   6.875  1.00  0.00     0.070 C 
HETATM    2  C   UNL     1      41.225 -11.989   6.488  1.00  0.00     0.027 C 
HETATM    3  C   UNL     1      42.312 -11.485   7.108  1.00  0.00     0.100 C 
ENDROOT
BRANCH   2   4
HETATM    4  N   UNL     1      41.285 -12.907   5.442  1.00  0.00    -0.302 N 
HETATM    5  H   UNL     1      41.258 -12.454   4.519  1.00  0.00     0.186 HD
BRANCH   4   6
HETATM    6  N   UNL     1      40.625 -14.139   5.467  1.00  0.00    -0.268 N 
HETATM    7  C   UNL     1      41.297 -15.313   5.746  1.00  0.00     0.260 C 
HETATM    8  O   UNL     1      40.666 -16.305   6.117  1.00  0.00    -0.269 OA
HETATM    9  H   UNL     1      39.646 -14.107   5.743  1.00  0.00     0.190 HD
BRANCH   7  10
HETATM   10  C   UNL     1      42.799 -15.361   5.474  1.00  0.00     0.280 C 
BRANCH  10  11
HETATM   11  O   UNL     1      43.079 -15.941   4.203  1.00  0.00    -0.342 OA
BRANCH  11  12
HETATM   12  C   UNL     1      43.529 -17.234   4.247  1.00  0.00     0.070 A 
HETATM   13  C   UNL     1      43.262 -18.004   3.113  1.00  0.00     0.049 A 
HETATM   14  C   UNL     1      43.667 -19.348   3.037  1.00  0.00    -0.023 A 
HETATM   15  C   UNL     1      44.340 -19.929   4.136  1.00  0.00    -0.026 A 
HETATM   16  C   UNL     1      43.423 -20.128   1.895  1.00  0.00     0.012 A 
HETATM   17  C   UNL     1      44.574 -19.155   5.281  1.00  0.00     0.015 A 
HETATM   18  C   UNL     1      44.754 -21.269   4.062  1.00  0.00     0.012 A 
HETATM   19  C   UNL     1      44.165 -17.819   5.339  1.00  0.00     0.037 A 
HETATM   20  C   UNL     1      44.508 -22.028   2.917  1.00  0.00     0.001 A 
HETATM   21  C   UNL     1      43.842 -21.459   1.835  1.00  0.00     0.001 A 
ENDBRANCH  11  12
ENDBRANCH  10  11
ENDBRANCH   7  10
ENDBRANCH   4   6
ENDBRANCH   2   4
BRANCH   3  22
HETATM   22  C   UNL     1      42.245 -10.643   8.336  1.00  0.00     0.247 C 
HETATM   23  N   UNL     1      42.353 -11.397   9.487  1.00  0.00    -0.324 N 
HETATM   24  H   UNL     1      42.473 -12.395   9.378  1.00  0.00     0.169 HD
HETATM   25  O   UNL     1      42.066  -9.435   8.261  1.00  0.00    -0.268 OA
BRANCH  23  26
HETATM   26  C   UNL     1      42.329 -10.919  10.815  1.00  0.00     0.035 A 
HETATM   27  C   UNL     1      43.417 -10.307  11.444  1.00  0.00     0.030 A 
HETATM   28  C   UNL     1      43.327  -9.870  12.772  1.00  0.00     0.019 A 
HETATM   29  C   UNL     1      42.143 -10.047  13.491  1.00  0.00     0.032 A 
HETATM   30  C   UNL     1      41.043 -10.640  12.862  1.00  0.00     0.019 A 
HETATM   31  C   UNL     1      41.139 -11.078  11.535  1.00  0.00     0.030 A 
BRANCH  29  32
HETATM   32  C   UNL     1      41.999  -9.610  14.905  1.00  0.00     0.249 C 
HETATM   33  N   UNL     1      42.957  -8.777  15.411  1.00  0.00    -0.366 N 
HETATM   34  H   UNL     1      43.840  -8.608  14.952  1.00  0.00     0.159 HD
HETATM   35  H   UNL     1      42.897  -8.573  16.400  1.00  0.00     0.159 HD
HETATM   36  O   UNL     1      41.080 -10.009  15.610  1.00  0.00    -0.268 OA
ENDBRANCH  29  32
ENDBRANCH  23  26
ENDBRANCH   3  22
TORSDOF 8
ENDMDL
MODEL 7
REMARK VINA RESULT:      -9.0      5.380      6.697
REMARK  8 active torsions:
REMARK  status: ('A' for Active; 'I' for Inactive)
REMARK    1  A    between atoms: C_2  and  N_3 
REMARK    2  A    between atoms: N_3  and  N_4 
REMARK       I    between atoms: N_4  and  C_5 
REMARK    3  A    between atoms: C_5  and  C_6 
REMARK    4  A    between atoms: C_6  and  O_7 
REMARK    5  A    between atoms: O_7  and  C_8 
REMARK    6  A    between atoms: C_19  and  C_20 
REMARK       I    between atoms: C_20  and  N_21 
REMARK    7  A    between atoms: N_21  and  C_22 
REMARK    8  A    between atoms: C_25  and  C_26 
REMARK       I    between atoms: C_26  and  N_27 
ROOT
HETATM    1  C   UNL     1      39.470 -14.866   2.273  1.00  0.00     0.070 C 
HETATM    2  C   UNL     1      40.674 -13.950   2.183  1.00  0.00     0.027 C 
HETATM    3  C   UNL     1      41.922 -14.420   1.978  1.00  0.00     0.100 C 
ENDROOT
BRANCH   2   4
HETATM    4  N   UNL     1      40.370 -12.599   2.338  1.00  0.00    -0.302 N 
HETATM    5  H   UNL     1      41.156 -12.061   2.727  1.00  0.00     0.186 HD
BRANCH   4   6
HETATM    6  N   UNL     1      39.123 -12.141   2.773  1.00  0.00    -0.268 N 
HETATM    7  C   UNL     1      38.946 -11.626   4.043  1.00  0.00     0.260 C 
HETATM    8  O   UNL     1      37.971 -10.912   4.282  1.00  0.00    -0.269 OA
HETATM    9  H   UNL     1      38.516 -11.765   2.050  1.00  0.00     0.190 HD
BRANCH   7  10
HETATM   10  C   UNL     1      39.923 -12.060   5.135  1.00  0.00     0.280 C 
BRANCH  10  11
HETATM   11  O   UNL     1      39.845 -13.463   5.373  1.00  0.00    -0.342 OA
BRANCH  11  12
HETATM   12  C   UNL     1      41.038 -14.060   5.686  1.00  0.00     0.070 A 
HETATM   13  C   UNL     1      40.951 -15.378   6.140  1.00  0.00     0.049 A 
HETATM   14  C   UNL     1      42.104 -16.098   6.500  1.00  0.00    -0.023 A 
HETATM   15  C   UNL     1      43.366 -15.469   6.415  1.00  0.00    -0.026 A 
HETATM   16  C   UNL     1      42.033 -17.430   6.939  1.00  0.00     0.012 A 
HETATM   17  C   UNL     1      43.437 -14.135   5.987  1.00  0.00     0.015 A 
HETATM   18  C   UNL     1      44.521 -16.187   6.765  1.00  0.00     0.012 A 
HETATM   19  C   UNL     1      42.281 -13.433   5.632  1.00  0.00     0.037 A 
HETATM   20  C   UNL     1      44.433 -17.511   7.195  1.00  0.00     0.001 A 
HETATM   21  C   UNL     1      43.190 -18.132   7.283  1.00  0.00     0.001 A 
ENDBRANCH  11  12
ENDBRANCH  10  11
ENDBRANCH   7  10
ENDBRANCH   4   6
ENDBRANCH   2   4
BRANCH   3  22
HETATM   22  C   UNL     1      42.223 -15.839   1.638  1.00  0.00     0.247 C 
HETATM   23  N   UNL     1      42.785 -16.518   2.699  1.00  0.00    -0.324 N 
HETATM   24  H   UNL     1      42.916 -16.005   3.561  1.00  0.00     0.169 HD
HETATM   25  O   UNL     1      42.013 -16.274   0.513  1.00  0.00    -0.268 OA
BRANCH  23  26
HETATM   26  C   UNL     1      43.188 -17.871   2.718  1.00  0.00     0.035 A 
HETATM   27  C   UNL     1      42.868 -18.795   1.720  1.00  0.00     0.030 A 
HETATM   28  C   UNL     1      43.289 -20.129   1.813  1.00  0.00     0.019 A 
HETATM   29  C   UNL     1      44.036 -20.554   2.914  1.00  0.00     0.032 A 
HETATM   30  C   UNL     1      44.378 -19.629   3.906  1.00  0.00     0.019 A 
HETATM   31  C   UNL     1      43.952 -18.299   3.810  1.00  0.00     0.030 A 
BRANCH  29  32
HETATM   32  C   UNL     1      44.499 -21.959   3.064  1.00  0.00     0.249 C 
HETATM   33  N   UNL     1      44.755 -22.410   4.329  1.00  0.00    -0.366 N 
HETATM   34  H   UNL     1      44.839 -21.797   5.126  1.00  0.00     0.159 HD
HETATM   35  H   UNL     1      45.164 -23.333   4.401  1.00  0.00     0.159 HD
HETATM   36  O   UNL     1      44.684 -22.681   2.092  1.00  0.00    -0.268 OA
ENDBRANCH  29  32
ENDBRANCH  23  26
ENDBRANCH   3  22
TORSDOF 8
ENDMDL
MODEL 8
REMARK VINA RESULT:      -8.9      6.450     10.965
REMARK  8 active torsions:
REMARK  status: ('A' for Active; 'I' for Inactive)
REMARK    1  A    between atoms: C_2  and  N_3 
REMARK    2  A    between atoms: N_3  and  N_4 
REMARK       I    between atoms: N_4  and  C_5 
REMARK    3  A    between atoms: C_5  and  C_6 
REMARK    4  A    between atoms: C_6  and  O_7 
REMARK    5  A    between atoms: O_7  and  C_8 
REMARK    6  A    between atoms: C_19  and  C_20 
REMARK       I    between atoms: C_20  and  N_21 
REMARK    7  A    between atoms: N_21  and  C_22 
REMARK    8  A    between atoms: C_25  and  C_26 
REMARK       I    between atoms: C_26  and  N_27 
ROOT
HETATM    1  C   UNL     1      39.028 -14.873   1.488  1.00  0.00     0.070 C 
HETATM    2  C   UNL     1      40.262 -15.692   1.810  1.00  0.00     0.027 C 
HETATM    3  C   UNL     1      41.233 -15.917   0.902  1.00  0.00     0.100 C 
ENDROOT
BRANCH   2   4
HETATM    4  N   UNL     1      40.288 -16.187   3.112  1.00  0.00    -0.302 N 
HETATM    5  H   UNL     1      39.739 -17.051   3.216  1.00  0.00     0.186 HD
BRANCH   4   6
HETATM    6  N   UNL     1      40.237 -15.367   4.243  1.00  0.00    -0.268 N 
HETATM    7  C   UNL     1      41.362 -14.721   4.719  1.00  0.00     0.260 C 
HETATM    8  O   UNL     1      41.238 -13.747   5.464  1.00  0.00    -0.269 OA
HETATM    9  H   UNL     1      39.350 -14.897   4.406  1.00  0.00     0.190 HD
BRANCH   7  10
HETATM   10  C   UNL     1      42.727 -15.319   4.383  1.00  0.00     0.280 C 
BRANCH  10  11
HETATM   11  O   UNL     1      43.236 -16.092   5.467  1.00  0.00    -0.342 OA
BRANCH  11  12
HETATM   12  C   UNL     1      43.679 -17.342   5.124  1.00  0.00     0.070 A 
HETATM   13  C   UNL     1      43.218 -17.830   3.899  1.00  0.00     0.049 A 
HETATM   14  C   UNL     1      43.596 -19.103   3.437  1.00  0.00    -0.023 A 
HETATM   15  C   UNL     1      44.442 -19.905   4.236  1.00  0.00    -0.026 A 
HETATM   16  C   UNL     1      43.155 -19.598   2.199  1.00  0.00     0.012 A 
HETATM   17  C   UNL     1      44.874 -19.416   5.478  1.00  0.00     0.015 A 
HETATM   18  C   UNL     1      44.829 -21.173   3.776  1.00  0.00     0.012 A 
HETATM   19  C   UNL     1      44.489 -18.147   5.922  1.00  0.00     0.037 A 
HETATM   20  C   UNL     1      44.386 -21.648   2.541  1.00  0.00     0.001 A 
HETATM   21  C   UNL     1      43.549 -20.862   1.754  1.00  0.00     0.001 A 
ENDBRANCH  11  12
ENDBRANCH  10  11
ENDBRANCH   7  10
ENDBRANCH   4   6
ENDBRANCH   2   4
BRANCH   3  22
HETATM   22  C   UNL     1      41.291 -15.246  -0.427  1.00  0.00     0.247 C 
HETATM   23  N   UNL     1      41.634 -13.914  -0.319  1.00  0.00    -0.324 N 
HETATM   24  H   UNL     1      41.814 -13.554   0.609  1.00  0.00     0.169 HD
HETATM   25  O   UNL     1      41.010 -15.854  -1.451  1.00  0.00    -0.268 OA
BRANCH  23  26
HETATM   26  C   UNL     1      41.779 -12.990  -1.378  1.00  0.00     0.035 A 
HETATM   27  C   UNL     1      41.080 -13.071  -2.585  1.00  0.00     0.030 A 
HETATM   28  C   UNL     1      41.286 -12.126  -3.599  1.00  0.00     0.019 A 
HETATM   29  C   UNL     1      42.203 -11.088  -3.417  1.00  0.00     0.032 A 
HETATM   30  C   UNL     1      42.891 -10.990  -2.203  1.00  0.00     0.019 A 
HETATM   31  C   UNL     1      42.684 -11.938  -1.194  1.00  0.00     0.030 A 
BRANCH  29  32
HETATM   32  C   UNL     1      42.464 -10.066  -4.465  1.00  0.00     0.249 C 
HETATM   33  N   UNL     1      42.663 -10.507  -5.743  1.00  0.00    -0.366 N 
HETATM   34  H   UNL     1      42.837 -11.474  -5.973  1.00  0.00     0.159 HD
HETATM   35  H   UNL     1      42.938  -9.807  -6.421  1.00  0.00     0.159 HD
HETATM   36  O   UNL     1      42.540  -8.874  -4.194  1.00  0.00    -0.268 OA
ENDBRANCH  29  32
ENDBRANCH  23  26
ENDBRANCH   3  22
TORSDOF 8
ENDMDL
MODEL 9
REMARK VINA RESULT:      -8.8      2.046      2.841
REMARK  8 active torsions:
REMARK  status: ('A' for Active; 'I' for Inactive)
REMARK    1  A    between atoms: C_2  and  N_3 
REMARK    2  A    between atoms: N_3  and  N_4 
REMARK       I    between atoms: N_4  and  C_5 
REMARK    3  A    between atoms: C_5  and  C_6 
REMARK    4  A    between atoms: C_6  and  O_7 
REMARK    5  A    between atoms: O_7  and  C_8 
REMARK    6  A    between atoms: C_19  and  C_20 
REMARK       I    between atoms: C_20  and  N_21 
REMARK    7  A    between atoms: N_21  and  C_22 
REMARK    8  A    between atoms: C_25  and  C_26 
REMARK       I    between atoms: C_26  and  N_27 
ROOT
HETATM    1  C   UNL     1      40.578 -14.855   5.158  1.00  0.00     0.070 C 
HETATM    2  C   UNL     1      41.802 -13.998   5.410  1.00  0.00     0.027 C 
HETATM    3  C   UNL     1      43.023 -14.333   4.944  1.00  0.00     0.100 C 
ENDROOT
BRANCH   2   4
HETATM    4  N   UNL     1      41.547 -12.854   6.163  1.00  0.00    -0.302 N 
HETATM    5  H   UNL     1      40.956 -13.047   6.983  1.00  0.00     0.186 HD
BRANCH   4   6
HETATM    6  N   UNL     1      41.300 -11.602   5.593  1.00  0.00    -0.268 N 
HETATM    7  C   UNL     1      41.505 -10.433   6.300  1.00  0.00     0.260 C 
HETATM    8  O   UNL     1      41.635  -9.367   5.695  1.00  0.00    -0.269 OA
HETATM    9  H   UNL     1      41.431 -11.544   4.586  1.00  0.00     0.190 HD
BRANCH   7  10
HETATM   10  C   UNL     1      41.451 -10.499   7.826  1.00  0.00     0.280 C 
BRANCH  10  11
HETATM   11  O   UNL     1      42.640 -11.074   8.362  1.00  0.00    -0.342 OA
BRANCH  11  12
HETATM   12  C   UNL     1      42.916 -10.722   9.657  1.00  0.00     0.070 A 
HETATM   13  C   UNL     1      41.818 -10.310  10.416  1.00  0.00     0.049 A 
HETATM   14  C   UNL     1      41.971  -9.917  11.757  1.00  0.00    -0.023 A 
HETATM   15  C   UNL     1      43.260  -9.925  12.337  1.00  0.00    -0.026 A 
HETATM   16  C   UNL     1      40.873  -9.520  12.538  1.00  0.00     0.012 A 
HETATM   17  C   UNL     1      44.358 -10.310  11.555  1.00  0.00     0.015 A 
HETATM   18  C   UNL     1      43.417  -9.541  13.679  1.00  0.00     0.012 A 
HETATM   19  C   UNL     1      44.189 -10.699  10.222  1.00  0.00     0.037 A 
HETATM   20  C   UNL     1      42.315  -9.154  14.441  1.00  0.00     0.001 A 
HETATM   21  C   UNL     1      41.044  -9.142  13.872  1.00  0.00     0.001 A 
ENDBRANCH  11  12
ENDBRANCH  10  11
ENDBRANCH   7  10
ENDBRANCH   4   6
ENDBRANCH   2   4
BRANCH   3  22
HETATM   22  C   UNL     1      43.263 -15.456   3.995  1.00  0.00     0.247 C 
HETATM   23  N   UNL     1      43.326 -16.674   4.639  1.00  0.00    -0.324 N 
HETATM   24  H   UNL     1      43.196 -16.676   5.642  1.00  0.00     0.169 HD
HETATM   25  O   UNL     1      43.423 -15.245   2.800  1.00  0.00    -0.268 OA
BRANCH  23  26
HETATM   26  C   UNL     1      43.539 -17.936   4.042  1.00  0.00     0.035 A 
HETATM   27  C   UNL     1      42.923 -18.354   2.859  1.00  0.00     0.030 A 
HETATM   28  C   UNL     1      43.170 -19.628   2.331  1.00  0.00     0.019 A 
HETATM   29  C   UNL     1      44.037 -20.504   2.988  1.00  0.00     0.032 A 
HETATM   30  C   UNL     1      44.673 -20.085   4.161  1.00  0.00     0.019 A 
HETATM   31  C   UNL     1      44.421 -18.812   4.686  1.00  0.00     0.030 A 
BRANCH  29  32
HETATM   32  C   UNL     1      44.325 -21.870   2.474  1.00  0.00     0.249 C 
HETATM   33  N   UNL     1      44.170 -22.088   1.134  1.00  0.00    -0.366 N 
HETATM   34  H   UNL     1      43.690 -21.445   0.522  1.00  0.00     0.159 HD
HETATM   35  H   UNL     1      44.273 -23.045   0.821  1.00  0.00     0.159 HD
HETATM   36  O   UNL     1      44.651 -22.781   3.224  1.00  0.00    -0.268 OA
ENDBRANCH  29  32
ENDBRANCH  23  26
ENDBRANCH   3  22
TORSDOF 8
ENDMDL
MODEL 10
REMARK VINA RESULT:      -8.7      7.541     11.402
REMARK  8 active torsions:
REMARK  status: ('A' for Active; 'I' for Inactive)
REMARK    1  A    between atoms: C_2  and  N_3 
REMARK    2  A    between atoms: N_3  and  N_4 
REMARK       I    between atoms: N_4  and  C_5 
REMARK    3  A    between atoms: C_5  and  C_6 
REMARK    4  A    between atoms: C_6  and  O_7 
REMARK    5  A    between atoms: O_7  and  C_8 
REMARK    6  A    between atoms: C_19  and  C_20 
REMARK       I    between atoms: C_20  and  N_21 
REMARK    7  A    between atoms: N_21  and  C_22 
REMARK    8  A    between atoms: C_25  and  C_26 
REMARK       I    between atoms: C_26  and  N_27 
ROOT
HETATM    1  C   UNL     1      41.466 -15.992   0.208  1.00  0.00     0.070 C 
HETATM    2  C   UNL     1      41.860 -14.558   0.498  1.00  0.00     0.027 C 
HETATM    3  C   UNL     1      41.669 -13.564  -0.394  1.00  0.00     0.100 C 
ENDROOT
BRANCH   2   4
HETATM    4  N   UNL     1      42.437 -14.372   1.753  1.00  0.00    -0.302 N 
HETATM    5  H   UNL     1      42.759 -15.255   2.172  1.00  0.00     0.186 HD
BRANCH   4   6
HETATM    6  N   UNL     1      41.941 -13.467   2.696  1.00  0.00    -0.268 N 
HETATM    7  C   UNL     1      42.439 -13.421   3.984  1.00  0.00     0.260 C 
HETATM    8  O   UNL     1      42.263 -12.413   4.671  1.00  0.00    -0.269 OA
HETATM    9  H   UNL     1      41.590 -12.590   2.321  1.00  0.00     0.190 HD
BRANCH   7  10
HETATM   10  C   UNL     1      43.099 -14.681   4.543  1.00  0.00     0.280 C 
BRANCH  10  11
HETATM   11  O   UNL     1      42.290 -15.832   4.321  1.00  0.00    -0.342 OA
BRANCH  11  12
HETATM   12  C   UNL     1      42.975 -17.019   4.286  1.00  0.00     0.070 A 
HETATM   13  C   UNL     1      42.694 -17.845   3.195  1.00  0.00     0.049 A 
HETATM   14  C   UNL     1      43.327 -19.091   3.048  1.00  0.00    -0.023 A 
HETATM   15  C   UNL     1      44.249 -19.518   4.031  1.00  0.00    -0.026 A 
HETATM   16  C   UNL     1      43.069 -19.923   1.946  1.00  0.00     0.012 A 
HETATM   17  C   UNL     1      44.499 -18.694   5.137  1.00  0.00     0.015 A 
HETATM   18  C   UNL     1      44.890 -20.759   3.884  1.00  0.00     0.012 A 
HETATM   19  C   UNL     1      43.861 -17.456   5.267  1.00  0.00     0.037 A 
HETATM   20  C   UNL     1      44.625 -21.570   2.780  1.00  0.00     0.001 A 
HETATM   21  C   UNL     1      43.715 -21.154   1.813  1.00  0.00     0.001 A 
ENDBRANCH  11  12
ENDBRANCH  10  11
ENDBRANCH   7  10
ENDBRANCH   4   6
ENDBRANCH   2   4
BRANCH   3  22
HETATM   22  C   UNL     1      40.897 -13.728  -1.657  1.00  0.00     0.247 C 
HETATM   23  N   UNL     1      39.535 -13.677  -1.442  1.00  0.00    -0.324 N 
HETATM   24  H   UNL     1      39.221 -13.528  -0.492  1.00  0.00     0.169 HD
HETATM   25  O   UNL     1      41.467 -13.928  -2.722  1.00  0.00    -0.268 OA
BRANCH  23  26
HETATM   26  C   UNL     1      38.520 -13.796  -2.417  1.00  0.00     0.035 A 
HETATM   27  C   UNL     1      38.135 -15.007  -2.999  1.00  0.00     0.030 A 
HETATM   28  C   UNL     1      37.129 -15.048  -3.973  1.00  0.00     0.019 A 
HETATM   29  C   UNL     1      36.497 -13.871  -4.381  1.00  0.00     0.032 A 
HETATM   30  C   UNL     1      36.863 -12.658  -3.787  1.00  0.00     0.019 A 
HETATM   31  C   UNL     1      37.871 -12.622  -2.816  1.00  0.00     0.030 A 
BRANCH  29  32
HETATM   32  C   UNL     1      35.431 -13.860  -5.417  1.00  0.00     0.249 C 
HETATM   33  N   UNL     1      34.200 -13.390  -5.053  1.00  0.00    -0.366 N 
HETATM   34  H   UNL     1      33.927 -13.244  -4.093  1.00  0.00     0.159 HD
HETATM   35  H   UNL     1      33.463 -13.485  -5.741  1.00  0.00     0.159 HD
HETATM   36  O   UNL     1      35.629 -14.289  -6.546  1.00  0.00    -0.268 OA
ENDBRANCH  29  32
ENDBRANCH  23  26
ENDBRANCH   3  22
TORSDOF 8
ENDMDL
