MODEL 1
REMARK VINA RESULT:      -8.1      0.000      0.000
REMARK  3 active torsions:
REMARK  status: ('A' for Active; 'I' for Inactive)
REMARK    1  A    between atoms: C_2  and  C_3 
REMARK    2  A    between atoms: C_10  and  C_12 
REMARK    3  A    between atoms: C_10  and  O_11 
ROOT
HETATM    1  C   UNL     1      43.396 -18.906   3.337  1.00  0.00    -0.058 A 
HETATM    2  C   UNL     1      42.731 -17.993   4.172  1.00  0.00     0.020 A 
HETATM    3  C   UNL     1      43.101 -17.923   5.506  1.00  0.00     0.018 A 
HETATM    4  C   UNL     1      44.098 -18.762   6.007  1.00  0.00     0.045 A 
HETATM    5  N   UNL     1      44.313 -18.510   7.353  1.00  0.00    -0.323 N 
HETATM    6  C   UNL     1      43.489 -17.484   7.821  1.00  0.00     0.266 A 
HETATM    7  O   UNL     1      43.483 -17.081   8.974  1.00  0.00    -0.269 OA
HETATM    8  C   UNL     1      42.575 -17.045   6.621  1.00  0.00     0.198 A 
HETATM    9  C   UNL     1      44.761 -19.678   5.219  1.00  0.00     0.031 A 
HETATM   10  C   UNL     1      44.405 -19.740   3.869  1.00  0.00     0.009 A 
HETATM   11  H   UNL     1      44.992 -18.969   7.943  1.00  0.00     0.169 HD
ENDROOT
BRANCH   8  12
HETATM   12  C   UNL     1      42.779 -15.609   6.210  1.00  0.00     0.018 A 
HETATM   13  C   UNL     1      41.865 -14.714   5.540  1.00  0.00     0.002 A 
HETATM   14  C   UNL     1      42.510 -13.483   5.396  1.00  0.00     0.043 A 
HETATM   15  C   UNL     1      40.545 -14.823   5.049  1.00  0.00     0.014 A 
HETATM   16  C   UNL     1      41.906 -12.368   4.801  1.00  0.00     0.030 A 
HETATM   17  N   UNL     1      43.769 -13.617   5.928  1.00  0.00    -0.365 N 
HETATM   18  C   UNL     1      40.597 -12.507   4.334  1.00  0.00     0.002 A 
HETATM   19  C   UNL     1      39.925 -13.718   4.454  1.00  0.00     0.001 A 
HETATM   20  H   UNL     1      44.463 -12.884   5.948  1.00  0.00     0.165 HD
HETATM   21  C   UNL     1      43.940 -14.877   6.421  1.00  0.00     0.100 A 
ENDBRANCH   8  12
BRANCH   8  22
HETATM   22  O   UNL     1      41.203 -17.363   6.852  1.00  0.00    -0.371 OA
HETATM   23  H   UNL     1      41.149 -18.332   6.896  1.00  0.00     0.212 HD
ENDBRANCH   8  22
BRANCH   1  24
HETATM   24  C   UNL     1      43.063 -18.959   1.866  1.00  0.00     0.034 C 
HETATM   25  C   UNL     1      43.728 -17.824   1.100  1.00  0.00     0.010 C 
ENDBRANCH   1  24
TORSDOF 3
ENDMDL
MODEL 2
REMARK VINA RESULT:      -8.0      2.051      2.231
REMARK  3 active torsions:
REMARK  status: ('A' for Active; 'I' for Inactive)
REMARK    1  A    between atoms: C_2  and  C_3 
REMARK    2  A    between atoms: C_10  and  C_12 
REMARK    3  A    between atoms: C_10  and  O_11 
ROOT
HETATM    1  C   UNL     1      43.747 -19.766   3.091  1.00  0.00    -0.058 A 
HETATM    2  C   UNL     1      42.966 -18.667   3.482  1.00  0.00     0.020 A 
HETATM    3  C   UNL     1      43.316 -17.981   4.635  1.00  0.00     0.018 A 
HETATM    4  C   UNL     1      44.410 -18.395   5.398  1.00  0.00     0.045 A 
HETATM    5  N   UNL     1      44.584 -17.559   6.491  1.00  0.00    -0.323 N 
HETATM    6  C   UNL     1      43.632 -16.537   6.511  1.00  0.00     0.266 A 
HETATM    7  O   UNL     1      43.567 -15.677   7.376  1.00  0.00    -0.269 OA
HETATM    8  C   UNL     1      42.675 -16.775   5.287  1.00  0.00     0.198 A 
HETATM    9  C   UNL     1      45.190 -19.476   5.049  1.00  0.00     0.031 A 
HETATM   10  C   UNL     1      44.853 -20.161   3.878  1.00  0.00     0.009 A 
HETATM   11  H   UNL     1      45.313 -17.632   7.185  1.00  0.00     0.169 HD
ENDROOT
BRANCH   8  12
HETATM   12  C   UNL     1      42.696 -15.647   4.287  1.00  0.00     0.018 A 
HETATM   13  C   UNL     1      41.765 -15.356   3.221  1.00  0.00     0.002 A 
HETATM   14  C   UNL     1      42.204 -14.194   2.583  1.00  0.00     0.043 A 
HETATM   15  C   UNL     1      40.582 -15.961   2.742  1.00  0.00     0.014 A 
HETATM   16  C   UNL     1      41.524 -13.609   1.507  1.00  0.00     0.030 A 
HETATM   17  N   UNL     1      43.362 -13.800   3.205  1.00  0.00    -0.365 N 
HETATM   18  C   UNL     1      40.353 -14.227   1.062  1.00  0.00     0.002 A 
HETATM   19  C   UNL     1      39.887 -15.388   1.669  1.00  0.00     0.001 A 
HETATM   20  H   UNL     1      43.908 -12.992   2.941  1.00  0.00     0.165 HD
HETATM   21  C   UNL     1      43.663 -14.654   4.226  1.00  0.00     0.100 A 
ENDBRANCH   8  12
BRANCH   8  22
HETATM   22  O   UNL     1      41.355 -17.121   5.702  1.00  0.00    -0.371 OA
HETATM   23  H   UNL     1      41.122 -16.506   6.417  1.00  0.00     0.212 HD
ENDBRANCH   8  22
BRANCH   1  24
HETATM   24  C   UNL     1      43.432 -20.492   1.805  1.00  0.00     0.034 C 
HETATM   25  C   UNL     1      44.085 -21.866   1.764  1.00  0.00     0.010 C 
ENDBRANCH   1  24
TORSDOF 3
ENDMDL
MODEL 3
REMARK VINA RESULT:      -7.8      2.732      3.580
REMARK  3 active torsions:
REMARK  status: ('A' for Active; 'I' for Inactive)
REMARK    1  A    between atoms: C_2  and  C_3 
REMARK    2  A    between atoms: C_10  and  C_12 
REMARK    3  A    between atoms: C_10  and  O_11 
ROOT
HETATM    1  C   UNL     1      44.246 -20.051   3.704  1.00  0.00    -0.058 A 
HETATM    2  C   UNL     1      43.128 -19.256   3.402  1.00  0.00     0.020 A 
HETATM    3  C   UNL     1      42.929 -18.089   4.124  1.00  0.00     0.018 A 
HETATM    4  C   UNL     1      43.814 -17.731   5.144  1.00  0.00     0.045 A 
HETATM    5  N   UNL     1      43.432 -16.527   5.716  1.00  0.00    -0.323 N 
HETATM    6  C   UNL     1      42.288 -16.009   5.105  1.00  0.00     0.266 A 
HETATM    7  O   UNL     1      41.749 -14.962   5.433  1.00  0.00    -0.269 OA
HETATM    8  C   UNL     1      41.835 -17.049   4.017  1.00  0.00     0.198 A 
HETATM    9  C   UNL     1      44.912 -18.494   5.474  1.00  0.00     0.031 A 
HETATM   10  C   UNL     1      45.128 -19.663   4.738  1.00  0.00     0.009 A 
HETATM   11  H   UNL     1      43.913 -16.044   6.460  1.00  0.00     0.169 HD
ENDROOT
BRANCH   8  12
HETATM   12  C   UNL     1      41.863 -16.495   2.615  1.00  0.00     0.018 A 
HETATM   13  C   UNL     1      40.856 -15.730   1.917  1.00  0.00     0.002 A 
HETATM   14  C   UNL     1      41.357 -15.434   0.647  1.00  0.00     0.043 A 
HETATM   15  C   UNL     1      39.569 -15.249   2.243  1.00  0.00     0.014 A 
HETATM   16  C   UNL     1      40.648 -14.683  -0.299  1.00  0.00     0.030 A 
HETATM   17  N   UNL     1      42.601 -16.008   0.555  1.00  0.00    -0.365 N 
HETATM   18  C   UNL     1      39.382 -14.215   0.058  1.00  0.00     0.002 A 
HETATM   19  C   UNL     1      38.847 -14.493   1.310  1.00  0.00     0.001 A 
HETATM   20  H   UNL     1      43.193 -15.966  -0.262  1.00  0.00     0.165 HD
HETATM   21  C   UNL     1      42.917 -16.639   1.723  1.00  0.00     0.100 A 
ENDBRANCH   8  12
BRANCH   8  22
HETATM   22  O   UNL     1      40.587 -17.655   4.347  1.00  0.00    -0.371 OA
HETATM   23  H   UNL     1      40.233 -17.161   5.104  1.00  0.00     0.212 HD
ENDBRANCH   8  22
BRANCH   1  24
HETATM   24  C   UNL     1      44.527 -21.292   2.892  1.00  0.00     0.034 C 
HETATM   25  C   UNL     1      43.517 -21.466   1.767  1.00  0.00     0.010 C 
ENDBRANCH   1  24
TORSDOF 3
ENDMDL
MODEL 4
REMARK VINA RESULT:      -7.7      2.555      3.402
REMARK  3 active torsions:
REMARK  status: ('A' for Active; 'I' for Inactive)
REMARK    1  A    between atoms: C_2  and  C_3 
REMARK    2  A    between atoms: C_10  and  C_12 
REMARK    3  A    between atoms: C_10  and  O_11 
ROOT
HETATM    1  C   UNL     1      44.420 -19.078   4.851  1.00  0.00    -0.058 A 
HETATM    2  C   UNL     1      43.120 -18.686   4.497  1.00  0.00     0.020 A 
HETATM    3  C   UNL     1      42.555 -17.597   5.145  1.00  0.00     0.018 A 
HETATM    4  C   UNL     1      43.264 -16.924   6.143  1.00  0.00     0.045 A 
HETATM    5  N   UNL     1      42.518 -15.866   6.638  1.00  0.00    -0.323 N 
HETATM    6  C   UNL     1      41.284 -15.762   5.992  1.00  0.00     0.266 A 
HETATM    7  O   UNL     1      40.442 -14.916   6.253  1.00  0.00    -0.269 OA
HETATM    8  C   UNL     1      41.197 -16.953   4.970  1.00  0.00     0.198 A 
HETATM    9  C   UNL     1      44.537 -17.291   6.523  1.00  0.00     0.031 A 
HETATM   10  C   UNL     1      45.118 -18.377   5.861  1.00  0.00     0.009 A 
HETATM   11  H   UNL     1      42.811 -15.215   7.351  1.00  0.00     0.169 HD
ENDROOT
BRANCH   8  12
HETATM   12  C   UNL     1      41.084 -16.501   3.537  1.00  0.00     0.018 A 
HETATM   13  C   UNL     1      41.511 -15.258   2.936  1.00  0.00     0.002 A 
HETATM   14  C   UNL     1      41.204 -15.320   1.575  1.00  0.00     0.043 A 
HETATM   15  C   UNL     1      42.141 -14.088   3.413  1.00  0.00     0.014 A 
HETATM   16  C   UNL     1      41.499 -14.287   0.676  1.00  0.00     0.030 A 
HETATM   17  N   UNL     1      40.594 -16.530   1.349  1.00  0.00    -0.365 N 
HETATM   18  C   UNL     1      42.129 -13.147   1.178  1.00  0.00     0.002 A 
HETATM   19  C   UNL     1      42.446 -13.046   2.528  1.00  0.00     0.001 A 
HETATM   20  H   UNL     1      40.251 -16.840   0.451  1.00  0.00     0.165 HD
HETATM   21  C   UNL     1      40.521 -17.244   2.509  1.00  0.00     0.100 A 
ENDBRANCH   8  12
BRANCH   8  22
HETATM   22  O   UNL     1      40.189 -17.894   5.334  1.00  0.00    -0.371 OA
HETATM   23  H   UNL     1      39.699 -17.501   6.074  1.00  0.00     0.212 HD
ENDBRANCH   8  22
BRANCH   1  24
HETATM   24  C   UNL     1      45.088 -20.216   4.118  1.00  0.00     0.034 C 
HETATM   25  C   UNL     1      44.450 -20.458   2.758  1.00  0.00     0.010 C 
ENDBRANCH   1  24
TORSDOF 3
ENDMDL
MODEL 5
REMARK VINA RESULT:      -7.6      2.105      5.614
REMARK  3 active torsions:
REMARK  status: ('A' for Active; 'I' for Inactive)
REMARK    1  A    between atoms: C_2  and  C_3 
REMARK    2  A    between atoms: C_10  and  C_12 
REMARK    3  A    between atoms: C_10  and  O_11 
ROOT
HETATM    1  C   UNL     1      39.912 -13.335   3.261  1.00  0.00    -0.058 A 
HETATM    2  C   UNL     1      41.174 -13.949   3.254  1.00  0.00     0.020 A 
HETATM    3  C   UNL     1      41.993 -13.796   4.363  1.00  0.00     0.018 A 
HETATM    4  C   UNL     1      41.572 -13.028   5.450  1.00  0.00     0.045 A 
HETATM    5  N   UNL     1      42.537 -13.027   6.445  1.00  0.00    -0.323 N 
HETATM    6  C   UNL     1      43.642 -13.802   6.089  1.00  0.00     0.266 A 
HETATM    7  O   UNL     1      44.630 -13.954   6.793  1.00  0.00    -0.269 OA
HETATM    8  C   UNL     1      43.379 -14.339   4.636  1.00  0.00     0.198 A 
HETATM    9  C   UNL     1      40.345 -12.402   5.484  1.00  0.00     0.031 A 
HETATM   10  C   UNL     1      39.508 -12.567   4.377  1.00  0.00     0.009 A 
HETATM   11  H   UNL     1      42.469 -12.562   7.339  1.00  0.00     0.169 HD
ENDROOT
BRANCH   8  12
HETATM   12  C   UNL     1      43.307 -15.843   4.560  1.00  0.00     0.018 A 
HETATM   13  C   UNL     1      43.457 -16.706   3.412  1.00  0.00     0.002 A 
HETATM   14  C   UNL     1      43.325 -18.024   3.855  1.00  0.00     0.043 A 
HETATM   15  C   UNL     1      43.705 -16.499   2.037  1.00  0.00     0.014 A 
HETATM   16  C   UNL     1      43.434 -19.132   3.005  1.00  0.00     0.030 A 
HETATM   17  N   UNL     1      43.080 -17.978   5.206  1.00  0.00    -0.365 N 
HETATM   18  C   UNL     1      43.688 -18.893   1.653  1.00  0.00     0.002 A 
HETATM   19  C   UNL     1      43.820 -17.595   1.173  1.00  0.00     0.001 A 
HETATM   20  H   UNL     1      42.928 -18.789   5.789  1.00  0.00     0.165 HD
HETATM   21  C   UNL     1      43.071 -16.684   5.639  1.00  0.00     0.100 A 
ENDBRANCH   8  12
BRANCH   8  22
HETATM   22  O   UNL     1      44.289 -13.782   3.688  1.00  0.00    -0.371 OA
HETATM   23  H   UNL     1      44.081 -14.193   2.834  1.00  0.00     0.212 HD
ENDBRANCH   8  22
BRANCH   1  24
HETATM   24  C   UNL     1      38.971 -13.537   2.098  1.00  0.00     0.034 C 
HETATM   25  C   UNL     1      38.832 -15.010   1.739  1.00  0.00     0.010 C 
ENDBRANCH   1  24
TORSDOF 3
ENDMDL
MODEL 6
REMARK VINA RESULT:      -7.6      2.180      4.498
REMARK  3 active torsions:
REMARK  status: ('A' for Active; 'I' for Inactive)
REMARK    1  A    between atoms: C_2  and  C_3 
REMARK    2  A    between atoms: C_10  and  C_12 
REMARK    3  A    between atoms: C_10  and  O_11 
ROOT
HETATM    1  C   UNL     1      43.452 -18.244   6.469  1.00  0.00    -0.058 A 
HETATM    2  C   UNL     1      42.313 -17.698   5.858  1.00  0.00     0.020 A 
HETATM    3  C   UNL     1      42.182 -16.318   5.810  1.00  0.00     0.018 A 
HETATM    4  C   UNL     1      43.157 -15.497   6.380  1.00  0.00     0.045 A 
HETATM    5  N   UNL     1      42.830 -14.161   6.203  1.00  0.00    -0.323 N 
HETATM    6  C   UNL     1      41.636 -14.015   5.494  1.00  0.00     0.266 A 
HETATM    7  O   UNL     1      41.130 -12.938   5.216  1.00  0.00    -0.269 OA
HETATM    8  C   UNL     1      41.084 -15.460   5.219  1.00  0.00     0.198 A 
HETATM    9  C   UNL     1      44.281 -16.000   6.999  1.00  0.00     0.031 A 
HETATM   10  C   UNL     1      44.427 -17.390   7.034  1.00  0.00     0.009 A 
HETATM   11  H   UNL     1      43.379 -13.370   6.506  1.00  0.00     0.169 HD
ENDROOT
BRANCH   8  12
HETATM   12  C   UNL     1      40.982 -15.791   3.752  1.00  0.00     0.018 A 
HETATM   13  C   UNL     1      41.992 -16.320   2.865  1.00  0.00     0.002 A 
HETATM   14  C   UNL     1      41.409 -16.472   1.605  1.00  0.00     0.043 A 
HETATM   15  C   UNL     1      43.345 -16.698   3.011  1.00  0.00     0.014 A 
HETATM   16  C   UNL     1      42.099 -16.984   0.499  1.00  0.00     0.030 A 
HETATM   17  N   UNL     1      40.111 -16.035   1.701  1.00  0.00    -0.365 N 
HETATM   18  C   UNL     1      43.433 -17.356   0.678  1.00  0.00     0.002 A 
HETATM   19  C   UNL     1      44.050 -17.215   1.916  1.00  0.00     0.001 A 
HETATM   20  H   UNL     1      39.454 -16.017   0.934  1.00  0.00     0.165 HD
HETATM   21  C   UNL     1      39.843 -15.631   2.976  1.00  0.00     0.100 A 
ENDBRANCH   8  12
BRANCH   8  22
HETATM   22  O   UNL     1      39.870 -15.711   5.927  1.00  0.00    -0.371 OA
HETATM   23  H   UNL     1      39.634 -16.636   5.748  1.00  0.00     0.212 HD
ENDBRANCH   8  22
BRANCH   1  24
HETATM   24  C   UNL     1      43.657 -19.740   6.478  1.00  0.00     0.034 C 
HETATM   25  C   UNL     1      44.484 -20.200   5.286  1.00  0.00     0.010 C 
ENDBRANCH   1  24
TORSDOF 3
ENDMDL
MODEL 7
REMARK VINA RESULT:      -7.6      3.280      4.307
REMARK  3 active torsions:
REMARK  status: ('A' for Active; 'I' for Inactive)
REMARK    1  A    between atoms: C_2  and  C_3 
REMARK    2  A    between atoms: C_10  and  C_12 
REMARK    3  A    between atoms: C_10  and  O_11 
ROOT
HETATM    1  C   UNL     1      42.881 -18.280   2.721  1.00  0.00    -0.058 A 
HETATM    2  C   UNL     1      42.016 -17.243   2.338  1.00  0.00     0.020 A 
HETATM    3  C   UNL     1      41.409 -16.484   3.328  1.00  0.00     0.018 A 
HETATM    4  C   UNL     1      41.641 -16.767   4.676  1.00  0.00     0.045 A 
HETATM    5  N   UNL     1      40.949 -15.879   5.484  1.00  0.00    -0.323 N 
HETATM    6  C   UNL     1      40.234 -14.948   4.728  1.00  0.00     0.266 A 
HETATM    7  O   UNL     1      39.538 -14.065   5.206  1.00  0.00    -0.269 OA
HETATM    8  C   UNL     1      40.451 -15.318   3.216  1.00  0.00     0.198 A 
HETATM    9  C   UNL     1      42.474 -17.786   5.086  1.00  0.00     0.031 A 
HETATM   10  C   UNL     1      43.103 -18.542   4.092  1.00  0.00     0.009 A 
HETATM   11  H   UNL     1      40.963 -15.859   6.493  1.00  0.00     0.169 HD
ENDROOT
BRANCH   8  12
HETATM   12  C   UNL     1      41.140 -14.232   2.430  1.00  0.00     0.018 A 
HETATM   13  C   UNL     1      41.249 -14.072   0.998  1.00  0.00     0.002 A 
HETATM   14  C   UNL     1      41.967 -12.898   0.758  1.00  0.00     0.043 A 
HETATM   15  C   UNL     1      40.797 -14.805  -0.122  1.00  0.00     0.014 A 
HETATM   16  C   UNL     1      42.246 -12.421  -0.529  1.00  0.00     0.030 A 
HETATM   17  N   UNL     1      42.307 -12.371   1.980  1.00  0.00    -0.365 N 
HETATM   18  C   UNL     1      41.778 -13.165  -1.615  1.00  0.00     0.002 A 
HETATM   19  C   UNL     1      41.064 -14.342  -1.416  1.00  0.00     0.001 A 
HETATM   20  H   UNL     1      42.844 -11.525   2.110  1.00  0.00     0.165 HD
HETATM   21  C   UNL     1      41.816 -13.154   2.984  1.00  0.00     0.100 A 
ENDBRANCH   8  12
BRANCH   8  22
HETATM   22  O   UNL     1      39.246 -15.767   2.598  1.00  0.00    -0.371 OA
HETATM   23  H   UNL     1      39.512 -16.346   1.865  1.00  0.00     0.212 HD
ENDBRANCH   8  22
BRANCH   1  24
HETATM   24  C   UNL     1      43.609 -19.080   1.668  1.00  0.00     0.034 C 
HETATM   25  C   UNL     1      43.599 -20.568   1.988  1.00  0.00     0.010 C 
ENDBRANCH   1  24
TORSDOF 3
ENDMDL
MODEL 8
REMARK VINA RESULT:      -7.4      3.163      6.125
REMARK  3 active torsions:
REMARK  status: ('A' for Active; 'I' for Inactive)
REMARK    1  A    between atoms: C_2  and  C_3 
REMARK    2  A    between atoms: C_10  and  C_12 
REMARK    3  A    between atoms: C_10  and  O_11 
ROOT
HETATM    1  C   UNL     1      40.929 -14.697  -0.192  1.00  0.00    -0.058 A 
HETATM    2  C   UNL     1      41.842 -15.208   0.743  1.00  0.00     0.020 A 
HETATM    3  C   UNL     1      41.416 -15.403   2.049  1.00  0.00     0.018 A 
HETATM    4  C   UNL     1      40.111 -15.073   2.422  1.00  0.00     0.045 A 
HETATM    5  N   UNL     1      39.902 -15.364   3.761  1.00  0.00    -0.323 N 
HETATM    6  C   UNL     1      41.042 -15.916   4.350  1.00  0.00     0.266 A 
HETATM    7  O   UNL     1      41.114 -16.250   5.523  1.00  0.00    -0.269 OA
HETATM    8  C   UNL     1      42.164 -15.937   3.251  1.00  0.00     0.198 A 
HETATM    9  C   UNL     1      39.194 -14.558   1.532  1.00  0.00     0.031 A 
HETATM   10  C   UNL     1      39.613 -14.376   0.211  1.00  0.00     0.009 A 
HETATM   11  H   UNL     1      39.040 -15.236   4.269  1.00  0.00     0.169 HD
ENDROOT
BRANCH   8  12
HETATM   12  C   UNL     1      42.642 -17.327   2.914  1.00  0.00     0.018 A 
HETATM   13  C   UNL     1      43.504 -18.204   3.673  1.00  0.00     0.002 A 
HETATM   14  C   UNL     1      43.637 -19.392   2.951  1.00  0.00     0.043 A 
HETATM   15  C   UNL     1      44.177 -18.109   4.910  1.00  0.00     0.014 A 
HETATM   16  C   UNL     1      44.394 -20.481   3.402  1.00  0.00     0.030 A 
HETATM   17  N   UNL     1      42.915 -19.249   1.792  1.00  0.00    -0.365 N 
HETATM   18  C   UNL     1      45.041 -20.358   4.634  1.00  0.00     0.002 A 
HETATM   19  C   UNL     1      44.936 -19.189   5.379  1.00  0.00     0.001 A 
HETATM   20  H   UNL     1      42.843 -19.952   1.071  1.00  0.00     0.165 HD
HETATM   21  C   UNL     1      42.312 -18.025   1.761  1.00  0.00     0.100 A 
ENDBRANCH   8  12
BRANCH   8  22
HETATM   22  O   UNL     1      43.234 -15.047   3.564  1.00  0.00    -0.371 OA
HETATM   23  H   UNL     1      43.555 -14.696   2.717  1.00  0.00     0.212 HD
ENDBRANCH   8  22
BRANCH   1  24
HETATM   24  C   UNL     1      41.342 -14.536  -1.635  1.00  0.00     0.034 C 
HETATM   25  C   UNL     1      40.722 -15.610  -2.518  1.00  0.00     0.010 C 
ENDBRANCH   1  24
TORSDOF 3
ENDMDL
MODEL 9
REMARK VINA RESULT:      -7.2      2.542      3.409
REMARK  3 active torsions:
REMARK  status: ('A' for Active; 'I' for Inactive)
REMARK    1  A    between atoms: C_2  and  C_3 
REMARK    2  A    between atoms: C_10  and  C_12 
REMARK    3  A    between atoms: C_10  and  O_11 
ROOT
HETATM    1  C   UNL     1      44.234 -19.031   5.098  1.00  0.00    -0.058 A 
HETATM    2  C   UNL     1      43.092 -18.344   4.656  1.00  0.00     0.020 A 
HETATM    3  C   UNL     1      42.839 -17.080   5.167  1.00  0.00     0.018 A 
HETATM    4  C   UNL     1      43.693 -16.520   6.120  1.00  0.00     0.045 A 
HETATM    5  N   UNL     1      43.258 -15.253   6.476  1.00  0.00    -0.323 N 
HETATM    6  C   UNL     1      42.105 -14.891   5.775  1.00  0.00     0.266 A 
HETATM    7  O   UNL     1      41.522 -13.826   5.916  1.00  0.00    -0.269 OA
HETATM    8  C   UNL     1      41.708 -16.117   4.876  1.00  0.00     0.198 A 
HETATM    9  C   UNL     1      44.814 -17.172   6.584  1.00  0.00     0.031 A 
HETATM   10  C   UNL     1      45.085 -18.439   6.058  1.00  0.00     0.009 A 
HETATM   11  H   UNL     1      43.709 -14.632   7.131  1.00  0.00     0.169 HD
ENDROOT
BRANCH   8  12
HETATM   12  C   UNL     1      41.737 -15.808   3.401  1.00  0.00     0.018 A 
HETATM   13  C   UNL     1      40.686 -15.287   2.558  1.00  0.00     0.002 A 
HETATM   14  C   UNL     1      41.206 -15.156   1.268  1.00  0.00     0.043 A 
HETATM   15  C   UNL     1      39.343 -14.902   2.765  1.00  0.00     0.014 A 
HETATM   16  C   UNL     1      40.462 -14.658   0.190  1.00  0.00     0.030 A 
HETATM   17  N   UNL     1      42.506 -15.597   1.305  1.00  0.00    -0.365 N 
HETATM   18  C   UNL     1      39.140 -14.278   0.431  1.00  0.00     0.002 A 
HETATM   19  C   UNL     1      38.586 -14.398   1.700  1.00  0.00     0.001 A 
HETATM   20  H   UNL     1      43.123 -15.629   0.507  1.00  0.00     0.165 HD
HETATM   21  C   UNL     1      42.836 -15.984   2.571  1.00  0.00     0.100 A 
ENDBRANCH   8  12
BRANCH   8  22
HETATM   22  O   UNL     1      40.478 -16.708   5.293  1.00  0.00    -0.371 OA
HETATM   23  H   UNL     1      40.626 -17.044   6.191  1.00  0.00     0.212 HD
ENDBRANCH   8  22
BRANCH   1  24
HETATM   24  C   UNL     1      44.574 -20.379   4.510  1.00  0.00     0.034 C 
HETATM   25  C   UNL     1      44.694 -20.316   2.994  1.00  0.00     0.010 C 
ENDBRANCH   1  24
TORSDOF 3
ENDMDL
MODEL 10
REMARK VINA RESULT:      -7.1      2.720      6.683
REMARK  3 active torsions:
REMARK  status: ('A' for Active; 'I' for Inactive)
REMARK    1  A    between atoms: C_2  and  C_3 
REMARK    2  A    between atoms: C_10  and  C_12 
REMARK    3  A    between atoms: C_10  and  O_11 
ROOT
HETATM    1  C   UNL     1      40.004 -13.410   4.843  1.00  0.00    -0.058 A 
HETATM    2  C   UNL     1      40.232 -14.735   4.442  1.00  0.00     0.020 A 
HETATM    3  C   UNL     1      40.684 -14.970   3.152  1.00  0.00     0.018 A 
HETATM    4  C   UNL     1      40.882 -13.906   2.269  1.00  0.00     0.045 A 
HETATM    5  N   UNL     1      41.348 -14.369   1.048  1.00  0.00    -0.323 N 
HETATM    6  C   UNL     1      41.501 -15.757   1.051  1.00  0.00     0.266 A 
HETATM    7  O   UNL     1      41.889 -16.406   0.092  1.00  0.00    -0.269 OA
HETATM    8  C   UNL     1      41.017 -16.271   2.455  1.00  0.00     0.198 A 
HETATM    9  C   UNL     1      40.656 -12.595   2.627  1.00  0.00     0.031 A 
HETATM   10  C   UNL     1      40.218 -12.351   3.932  1.00  0.00     0.009 A 
HETATM   11  H   UNL     1      41.586 -13.801   0.249  1.00  0.00     0.169 HD
ENDROOT
BRANCH   8  12
HETATM   12  C   UNL     1      42.104 -16.952   3.247  1.00  0.00     0.018 A 
HETATM   13  C   UNL     1      42.778 -18.202   2.984  1.00  0.00     0.002 A 
HETATM   14  C   UNL     1      43.721 -18.394   3.996  1.00  0.00     0.043 A 
HETATM   15  C   UNL     1      42.689 -19.186   1.975  1.00  0.00     0.014 A 
HETATM   16  C   UNL     1      44.574 -19.504   4.047  1.00  0.00     0.030 A 
HETATM   17  N   UNL     1      43.617 -17.330   4.857  1.00  0.00    -0.365 N 
HETATM   18  C   UNL     1      44.466 -20.455   3.030  1.00  0.00     0.002 A 
HETATM   19  C   UNL     1      43.536 -20.301   2.007  1.00  0.00     0.001 A 
HETATM   20  H   UNL     1      44.172 -17.213   5.694  1.00  0.00     0.165 HD
HETATM   21  C   UNL     1      42.661 -16.461   4.420  1.00  0.00     0.100 A 
ENDBRANCH   8  12
BRANCH   8  22
HETATM   22  O   UNL     1      39.831 -17.059   2.355  1.00  0.00    -0.371 OA
HETATM   23  H   UNL     1      39.277 -16.636   1.679  1.00  0.00     0.212 HD
ENDBRANCH   8  22
BRANCH   1  24
HETATM   24  C   UNL     1      39.577 -13.116   6.261  1.00  0.00     0.034 C 
HETATM   25  C   UNL     1      39.775 -11.649   6.614  1.00  0.00     0.010 C 
ENDBRANCH   1  24
TORSDOF 3
ENDMDL
