MODEL 1
REMARK VINA RESULT:      -9.1      0.000      0.000
REMARK  6 active torsions:
REMARK  status: ('A' for Active; 'I' for Inactive)
REMARK    1  A    between atoms: C_6  and  C_7 
REMARK    2  A    between atoms: C_7  and  N_8 
REMARK    3  A    between atoms: C_12  and  C_13 
REMARK    4  A    between atoms: C_13  and  C_14 
REMARK    5  A    between atoms: N_23  and  C_24 
REMARK    6  A    between atoms: C_24  and  C_25 
ROOT
HETATM    1  C   UNL     1      40.752 -14.192   2.156  1.00  0.00     0.164 C 
HETATM    2  N   UNL     1      42.180 -13.979   2.003  1.00  0.00    -0.319 N 
HETATM    3  C   UNL     1      42.818 -13.878   3.221  1.00  0.00     0.326 C 
HETATM    4  O   UNL     1      43.996 -13.581   3.315  1.00  0.00    -0.247 OA
HETATM    5  N   UNL     1      41.929 -14.143   4.211  1.00  0.00    -0.265 N 
HETATM    6  C   UNL     1      40.659 -14.202   3.702  1.00  0.00     0.263 C 
HETATM    7  O   UNL     1      39.628 -14.287   4.353  1.00  0.00    -0.270 OA
HETATM    8  H   UNL     1      42.589 -13.461   1.233  1.00  0.00     0.166 HD
ENDROOT
BRANCH   1   9
HETATM    9  C   UNL     1      40.310 -15.618   1.627  1.00  0.00     0.033 C 
HETATM   10  C   UNL     1      40.379 -16.763   2.667  1.00  0.00     0.036 C 
HETATM   11  C   UNL     1      41.787 -17.266   2.977  1.00  0.00     0.235 C 
HETATM   12  N   UNL     1      42.479 -17.688   1.700  1.00  0.00    -0.067 N 
HETATM   13  H   UNL     1      41.979 -18.518   1.362  1.00  0.00     0.280 HD
HETATM   14  C   UNL     1      42.440 -16.645   0.611  1.00  0.00     0.235 C 
HETATM   15  C   UNL     1      41.030 -16.142   0.366  1.00  0.00     0.036 C 
BRANCH  12  16
HETATM   16  C   UNL     1      43.927 -18.121   1.910  1.00  0.00     0.273 C 
BRANCH  16  17
HETATM   17  C   UNL     1      44.145 -19.464   2.557  1.00  0.00    -0.027 A 
HETATM   18  C   UNL     1      44.502 -19.583   3.920  1.00  0.00    -0.054 A 
HETATM   19  C   UNL     1      44.702 -20.859   4.471  1.00  0.00     0.014 A 
HETATM   20  C   UNL     1      44.696 -18.386   4.816  1.00  0.00     0.049 C 
HETATM   21  C   UNL     1      44.572 -22.015   3.695  1.00  0.00    -0.061 A 
HETATM   22  C   UNL     1      44.773 -23.365   4.323  1.00  0.00     0.048 C 
HETATM   23  C   UNL     1      44.220 -21.893   2.351  1.00  0.00     0.007 A 
HETATM   24  C   UNL     1      44.020 -20.633   1.784  1.00  0.00     0.010 A 
ENDBRANCH  16  17
ENDBRANCH  12  16
ENDBRANCH   1   9
BRANCH   1  25
HETATM   25  C   UNL     1      39.969 -12.998   1.599  1.00  0.00     0.072 A 
HETATM   26  N   UNL     1      40.613 -11.810   1.491  1.00  0.00    -0.262 NA
HETATM   27  C   UNL     1      39.917 -10.744   1.029  1.00  0.00     0.117 A 
HETATM   28  C   UNL     1      38.578 -10.789   0.690  1.00  0.00     0.019 A 
HETATM   29  C   UNL     1      37.913 -11.997   0.824  1.00  0.00     0.003 A 
HETATM   30  C   UNL     1      38.610 -13.113   1.282  1.00  0.00     0.030 A 
ENDBRANCH   1  25
BRANCH   5  31
HETATM   31  C   UNL     1      42.260 -14.194   5.628  1.00  0.00     0.168 C 
BRANCH  31  32
HETATM   32  C   UNL     1      42.742 -15.584   6.058  1.00  0.00     0.140 C 
HETATM   33  O   UNL     1      43.663 -15.494   7.169  1.00  0.00    -0.384 OA
HETATM   34  C   UNL     1      43.531 -16.709   7.937  1.00  0.00     0.168 C 
HETATM   35  C   UNL     1      42.416 -17.527   7.313  1.00  0.00     0.029 C 
HETATM   36  C   UNL     1      41.628 -16.490   6.552  1.00  0.00     0.036 C 
ENDBRANCH  31  32
ENDBRANCH   5  31
TORSDOF 6
ENDMDL
MODEL 2
REMARK VINA RESULT:      -8.6      2.282      5.021
REMARK  6 active torsions:
REMARK  status: ('A' for Active; 'I' for Inactive)
REMARK    1  A    between atoms: C_6  and  C_7 
REMARK    2  A    between atoms: C_7  and  N_8 
REMARK    3  A    between atoms: C_12  and  C_13 
REMARK    4  A    between atoms: C_13  and  C_14 
REMARK    5  A    between atoms: N_23  and  C_24 
REMARK    6  A    between atoms: C_24  and  C_25 
ROOT
HETATM    1  C   UNL     1      41.165 -12.936   2.949  1.00  0.00     0.164 C 
HETATM    2  N   UNL     1      40.404 -14.169   3.053  1.00  0.00    -0.319 N 
HETATM    3  C   UNL     1      40.504 -14.932   1.908  1.00  0.00     0.326 C 
HETATM    4  O   UNL     1      39.849 -15.945   1.744  1.00  0.00    -0.247 OA
HETATM    5  N   UNL     1      41.402 -14.358   1.069  1.00  0.00    -0.265 N 
HETATM    6  C   UNL     1      41.743 -13.112   1.522  1.00  0.00     0.263 C 
HETATM    7  O   UNL     1      42.420 -12.290   0.923  1.00  0.00    -0.270 OA
HETATM    8  H   UNL     1      39.541 -14.250   3.577  1.00  0.00     0.166 HD
ENDROOT
BRANCH   1   9
HETATM    9  C   UNL     1      42.375 -12.905   3.970  1.00  0.00     0.033 C 
HETATM   10  C   UNL     1      43.555 -13.849   3.632  1.00  0.00     0.036 C 
HETATM   11  C   UNL     1      43.298 -15.327   3.915  1.00  0.00     0.235 C 
HETATM   12  N   UNL     1      42.887 -15.514   5.358  1.00  0.00    -0.067 N 
HETATM   13  H   UNL     1      43.712 -15.284   5.924  1.00  0.00     0.280 HD
HETATM   14  C   UNL     1      41.758 -14.613   5.792  1.00  0.00     0.235 C 
HETATM   15  C   UNL     1      42.036 -13.161   5.454  1.00  0.00     0.036 C 
BRANCH  12  16
HETATM   16  C   UNL     1      42.523 -16.956   5.702  1.00  0.00     0.273 C 
BRANCH  16  17
HETATM   17  C   UNL     1      43.089 -18.029   4.809  1.00  0.00    -0.027 A 
HETATM   18  C   UNL     1      44.258 -18.744   5.158  1.00  0.00    -0.054 A 
HETATM   19  C   UNL     1      44.749 -19.729   4.285  1.00  0.00     0.014 A 
HETATM   20  C   UNL     1      45.020 -18.484   6.433  1.00  0.00     0.049 C 
HETATM   21  C   UNL     1      44.115 -20.006   3.070  1.00  0.00    -0.061 A 
HETATM   22  C   UNL     1      44.655 -21.080   2.171  1.00  0.00     0.048 C 
HETATM   23  C   UNL     1      42.962 -19.298   2.730  1.00  0.00     0.007 A 
HETATM   24  C   UNL     1      42.460 -18.312   3.583  1.00  0.00     0.010 A 
ENDBRANCH  16  17
ENDBRANCH  12  16
ENDBRANCH   1   9
BRANCH   1  25
HETATM   25  C   UNL     1      40.228 -11.724   2.982  1.00  0.00     0.072 A 
HETATM   26  N   UNL     1      40.759 -10.519   3.304  1.00  0.00    -0.262 NA
HETATM   27  C   UNL     1      39.929  -9.450   3.365  1.00  0.00     0.117 A 
HETATM   28  C   UNL     1      38.566  -9.521   3.147  1.00  0.00     0.019 A 
HETATM   29  C   UNL     1      38.020 -10.758   2.842  1.00  0.00     0.003 A 
HETATM   30  C   UNL     1      38.854 -11.871   2.757  1.00  0.00     0.030 A 
ENDBRANCH   1  25
BRANCH   5  31
HETATM   31  C   UNL     1      41.816 -14.919  -0.209  1.00  0.00     0.168 C 
BRANCH  31  32
HETATM   32  C   UNL     1      40.851 -14.548  -1.341  1.00  0.00     0.140 C 
HETATM   33  O   UNL     1      41.313 -13.378  -2.055  1.00  0.00    -0.384 OA
HETATM   34  C   UNL     1      40.838 -13.488  -3.413  1.00  0.00     0.168 C 
HETATM   35  C   UNL     1      40.137 -14.827  -3.547  1.00  0.00     0.029 C 
HETATM   36  C   UNL     1      40.718 -15.623  -2.405  1.00  0.00     0.036 C 
ENDBRANCH  31  32
ENDBRANCH   5  31
TORSDOF 6
ENDMDL
MODEL 3
REMARK VINA RESULT:      -8.5      2.387      3.367
REMARK  6 active torsions:
REMARK  status: ('A' for Active; 'I' for Inactive)
REMARK    1  A    between atoms: C_6  and  C_7 
REMARK    2  A    between atoms: C_7  and  N_8 
REMARK    3  A    between atoms: C_12  and  C_13 
REMARK    4  A    between atoms: C_13  and  C_14 
REMARK    5  A    between atoms: N_23  and  C_24 
REMARK    6  A    between atoms: C_24  and  C_25 
ROOT
HETATM    1  C   UNL     1      40.807 -14.022   0.484  1.00  0.00     0.164 C 
HETATM    2  N   UNL     1      41.839 -13.574   1.401  1.00  0.00    -0.319 N 
HETATM    3  C   UNL     1      41.360 -12.643   2.298  1.00  0.00     0.326 C 
HETATM    4  O   UNL     1      42.090 -12.054   3.075  1.00  0.00    -0.247 OA
HETATM    5  N   UNL     1      40.018 -12.521   2.139  1.00  0.00    -0.265 N 
HETATM    6  C   UNL     1      39.615 -13.182   1.009  1.00  0.00     0.263 C 
HETATM    7  O   UNL     1      38.497 -13.147   0.517  1.00  0.00    -0.270 OA
HETATM    8  H   UNL     1      42.817 -13.496   1.146  1.00  0.00     0.166 HD
ENDROOT
BRANCH   1   9
HETATM    9  C   UNL     1      40.459 -15.552   0.692  1.00  0.00     0.033 C 
HETATM   10  C   UNL     1      40.142 -15.970   2.149  1.00  0.00     0.036 C 
HETATM   11  C   UNL     1      41.358 -16.076   3.067  1.00  0.00     0.235 C 
HETATM   12  N   UNL     1      42.375 -17.022   2.471  1.00  0.00    -0.067 N 
HETATM   13  H   UNL     1      41.951 -17.956   2.498  1.00  0.00     0.280 HD
HETATM   14  C   UNL     1      42.730 -16.713   1.037  1.00  0.00     0.235 C 
HETATM   15  C   UNL     1      41.492 -16.574   0.171  1.00  0.00     0.036 C 
BRANCH  12  16
HETATM   16  C   UNL     1      43.664 -17.116   3.283  1.00  0.00     0.273 C 
BRANCH  16  17
HETATM   17  C   UNL     1      44.054 -18.485   3.778  1.00  0.00    -0.027 A 
HETATM   18  C   UNL     1      44.337 -18.728   5.142  1.00  0.00    -0.054 A 
HETATM   19  C   UNL     1      44.703 -20.021   5.550  1.00  0.00     0.014 A 
HETATM   20  C   UNL     1      44.277 -17.645   6.190  1.00  0.00     0.049 C 
HETATM   21  C   UNL     1      44.811 -21.070   4.632  1.00  0.00    -0.061 A 
HETATM   22  C   UNL     1      45.185 -22.445   5.107  1.00  0.00     0.048 C 
HETATM   23  C   UNL     1      44.531 -20.826   3.288  1.00  0.00     0.007 A 
HETATM   24  C   UNL     1      44.168 -19.546   2.862  1.00  0.00     0.010 A 
ENDBRANCH  16  17
ENDBRANCH  12  16
ENDBRANCH   1   9
BRANCH   1  25
HETATM   25  C   UNL     1      41.144 -13.600  -0.951  1.00  0.00     0.072 A 
HETATM   26  N   UNL     1      40.438 -14.162  -1.962  1.00  0.00    -0.262 NA
HETATM   27  C   UNL     1      40.753 -13.815  -3.233  1.00  0.00     0.117 A 
HETATM   28  C   UNL     1      41.775 -12.945  -3.561  1.00  0.00     0.019 A 
HETATM   29  C   UNL     1      42.513 -12.389  -2.528  1.00  0.00     0.003 A 
HETATM   30  C   UNL     1      42.199 -12.716  -1.211  1.00  0.00     0.030 A 
ENDBRANCH   1  25
BRANCH   5  31
HETATM   31  C   UNL     1      39.161 -11.678   2.959  1.00  0.00     0.168 C 
BRANCH  31  32
HETATM   32  C   UNL     1      38.961 -12.252   4.366  1.00  0.00     0.140 C 
HETATM   33  O   UNL     1      39.583 -13.552   4.491  1.00  0.00    -0.384 OA
HETATM   34  C   UNL     1      39.974 -13.711   5.870  1.00  0.00     0.168 C 
HETATM   35  C   UNL     1      39.655 -12.414   6.590  1.00  0.00     0.029 C 
HETATM   36  C   UNL     1      39.592 -11.414   5.462  1.00  0.00     0.036 C 
ENDBRANCH  31  32
ENDBRANCH   5  31
TORSDOF 6
ENDMDL
MODEL 4
REMARK VINA RESULT:      -8.5      2.141      5.652
REMARK  6 active torsions:
REMARK  status: ('A' for Active; 'I' for Inactive)
REMARK    1  A    between atoms: C_6  and  C_7 
REMARK    2  A    between atoms: C_7  and  N_8 
REMARK    3  A    between atoms: C_12  and  C_13 
REMARK    4  A    between atoms: C_13  and  C_14 
REMARK    5  A    between atoms: N_23  and  C_24 
REMARK    6  A    between atoms: C_24  and  C_25 
ROOT
HETATM    1  C   UNL     1      41.720 -15.176   2.977  1.00  0.00     0.164 C 
HETATM    2  N   UNL     1      42.500 -13.997   2.649  1.00  0.00    -0.319 N 
HETATM    3  C   UNL     1      41.826 -13.159   1.785  1.00  0.00     0.326 C 
HETATM    4  O   UNL     1      42.349 -12.175   1.294  1.00  0.00    -0.247 OA
HETATM    5  N   UNL     1      40.566 -13.629   1.603  1.00  0.00    -0.265 N 
HETATM    6  C   UNL     1      40.446 -14.881   2.145  1.00  0.00     0.263 C 
HETATM    7  O   UNL     1      39.484 -15.625   2.027  1.00  0.00    -0.270 OA
HETATM    8  H   UNL     1      43.512 -13.996   2.583  1.00  0.00     0.166 HD
ENDROOT
BRANCH   1   9
HETATM    9  C   UNL     1      41.313 -15.205   4.507  1.00  0.00     0.033 C 
HETATM   10  C   UNL     1      42.260 -14.439   5.462  1.00  0.00     0.036 C 
HETATM   11  C   UNL     1      43.584 -15.142   5.755  1.00  0.00     0.235 C 
HETATM   12  N   UNL     1      43.324 -16.530   6.294  1.00  0.00    -0.067 N 
HETATM   13  H   UNL     1      42.890 -16.405   7.216  1.00  0.00     0.280 HD
HETATM   14  C   UNL     1      42.384 -17.349   5.444  1.00  0.00     0.235 C 
HETATM   15  C   UNL     1      41.102 -16.597   5.141  1.00  0.00     0.036 C 
BRANCH  12  16
HETATM   16  C   UNL     1      44.598 -17.337   6.530  1.00  0.00     0.273 C 
BRANCH  16  17
HETATM   17  C   UNL     1      44.602 -18.758   6.029  1.00  0.00    -0.027 A 
HETATM   18  C   UNL     1      44.198 -19.836   6.851  1.00  0.00    -0.054 A 
HETATM   19  C   UNL     1      44.228 -21.143   6.337  1.00  0.00     0.014 A 
HETATM   20  C   UNL     1      43.744 -19.646   8.276  1.00  0.00     0.049 C 
HETATM   21  C   UNL     1      44.667 -21.403   5.035  1.00  0.00    -0.061 A 
HETATM   22  C   UNL     1      44.667 -22.810   4.512  1.00  0.00     0.048 C 
HETATM   23  C   UNL     1      45.065 -20.337   4.228  1.00  0.00     0.007 A 
HETATM   24  C   UNL     1      45.045 -19.030   4.722  1.00  0.00     0.010 A 
ENDBRANCH  16  17
ENDBRANCH  12  16
ENDBRANCH   1   9
BRANCH   1  25
HETATM   25  C   UNL     1      42.405 -16.438   2.441  1.00  0.00     0.072 A 
HETATM   26  N   UNL     1      43.722 -16.364   2.129  1.00  0.00    -0.262 NA
HETATM   27  C   UNL     1      44.324 -17.468   1.626  1.00  0.00     0.117 A 
HETATM   28  C   UNL     1      43.668 -18.658   1.382  1.00  0.00     0.019 A 
HETATM   29  C   UNL     1      42.315 -18.727   1.677  1.00  0.00     0.003 A 
HETATM   30  C   UNL     1      41.675 -17.611   2.211  1.00  0.00     0.030 A 
ENDBRANCH   1  25
BRANCH   5  31
HETATM   31  C   UNL     1      39.544 -12.967   0.806  1.00  0.00     0.168 C 
BRANCH  31  32
HETATM   32  C   UNL     1      39.485 -13.512  -0.625  1.00  0.00     0.140 C 
HETATM   33  O   UNL     1      38.148 -13.949  -0.961  1.00  0.00    -0.384 OA
HETATM   34  C   UNL     1      37.984 -13.779  -2.384  1.00  0.00     0.168 C 
HETATM   35  C   UNL     1      39.246 -13.126  -2.916  1.00  0.00     0.029 C 
HETATM   36  C   UNL     1      39.833 -12.482  -1.684  1.00  0.00     0.036 C 
ENDBRANCH  31  32
ENDBRANCH   5  31
TORSDOF 6
ENDMDL
MODEL 5
REMARK VINA RESULT:      -8.3      2.504      5.113
REMARK  6 active torsions:
REMARK  status: ('A' for Active; 'I' for Inactive)
REMARK    1  A    between atoms: C_6  and  C_7 
REMARK    2  A    between atoms: C_7  and  N_8 
REMARK    3  A    between atoms: C_12  and  C_13 
REMARK    4  A    between atoms: C_13  and  C_14 
REMARK    5  A    between atoms: N_23  and  C_24 
REMARK    6  A    between atoms: C_24  and  C_25 
ROOT
HETATM    1  C   UNL     1      40.722 -12.895   2.862  1.00  0.00     0.164 C 
HETATM    2  N   UNL     1      39.827 -14.026   2.701  1.00  0.00    -0.319 N 
HETATM    3  C   UNL     1      38.947 -13.839   1.656  1.00  0.00     0.326 C 
HETATM    4  O   UNL     1      38.036 -14.616   1.426  1.00  0.00    -0.247 OA
HETATM    5  N   UNL     1      39.272 -12.698   0.999  1.00  0.00    -0.265 N 
HETATM    6  C   UNL     1      40.210 -11.996   1.709  1.00  0.00     0.263 C 
HETATM    7  O   UNL     1      40.606 -10.868   1.456  1.00  0.00    -0.270 OA
HETATM    8  H   UNL     1      39.498 -14.594   3.474  1.00  0.00     0.166 HD
ENDROOT
BRANCH   1   9
HETATM    9  C   UNL     1      42.225 -13.285   2.552  1.00  0.00     0.033 C 
HETATM   10  C   UNL     1      42.416 -14.516   1.631  1.00  0.00     0.036 C 
HETATM   11  C   UNL     1      42.157 -15.864   2.298  1.00  0.00     0.235 C 
HETATM   12  N   UNL     1      43.020 -16.006   3.531  1.00  0.00    -0.067 N 
HETATM   13  H   UNL     1      43.989 -16.066   3.199  1.00  0.00     0.280 HD
HETATM   14  C   UNL     1      42.925 -14.838   4.481  1.00  0.00     0.235 C 
HETATM   15  C   UNL     1      43.146 -13.517   3.769  1.00  0.00     0.036 C 
BRANCH  12  16
HETATM   16  C   UNL     1      42.758 -17.292   4.310  1.00  0.00     0.273 C 
BRANCH  16  17
HETATM   17  C   UNL     1      43.285 -18.569   3.708  1.00  0.00    -0.027 A 
HETATM   18  C   UNL     1      44.322 -19.307   4.325  1.00  0.00    -0.054 A 
HETATM   19  C   UNL     1      44.783 -20.486   3.716  1.00  0.00     0.014 A 
HETATM   20  C   UNL     1      44.974 -18.873   5.613  1.00  0.00     0.049 C 
HETATM   21  C   UNL     1      44.250 -20.936   2.505  1.00  0.00    -0.061 A 
HETATM   22  C   UNL     1      44.754 -22.212   1.894  1.00  0.00     0.048 C 
HETATM   23  C   UNL     1      43.229 -20.204   1.900  1.00  0.00     0.007 A 
HETATM   24  C   UNL     1      42.758 -19.028   2.487  1.00  0.00     0.010 A 
ENDBRANCH  16  17
ENDBRANCH  12  16
ENDBRANCH   1   9
BRANCH   1  25
HETATM   25  C   UNL     1      40.473 -12.202   4.206  1.00  0.00     0.072 A 
HETATM   26  N   UNL     1      41.080 -11.011   4.430  1.00  0.00    -0.262 NA
HETATM   27  C   UNL     1      40.888 -10.410   5.629  1.00  0.00     0.117 A 
HETATM   28  C   UNL     1      40.134 -10.954   6.650  1.00  0.00     0.019 A 
HETATM   29  C   UNL     1      39.533 -12.184   6.430  1.00  0.00     0.003 A 
HETATM   30  C   UNL     1      39.701 -12.817   5.201  1.00  0.00     0.030 A 
ENDBRANCH   1  25
BRANCH   5  31
HETATM   31  C   UNL     1      38.604 -12.213  -0.200  1.00  0.00     0.168 C 
BRANCH  31  32
HETATM   32  C   UNL     1      39.174 -12.845  -1.474  1.00  0.00     0.140 C 
HETATM   33  O   UNL     1      40.434 -13.504  -1.210  1.00  0.00    -0.384 OA
HETATM   34  C   UNL     1      40.556 -14.592  -2.149  1.00  0.00     0.168 C 
HETATM   35  C   UNL     1      39.272 -14.649  -2.955  1.00  0.00     0.029 C 
HETATM   36  C   UNL     1      38.289 -13.927  -2.067  1.00  0.00     0.036 C 
ENDBRANCH  31  32
ENDBRANCH   5  31
TORSDOF 6
ENDMDL
MODEL 6
REMARK VINA RESULT:      -8.3      2.730      7.225
REMARK  6 active torsions:
REMARK  status: ('A' for Active; 'I' for Inactive)
REMARK    1  A    between atoms: C_6  and  C_7 
REMARK    2  A    between atoms: C_7  and  N_8 
REMARK    3  A    between atoms: C_12  and  C_13 
REMARK    4  A    between atoms: C_13  and  C_14 
REMARK    5  A    between atoms: N_23  and  C_24 
REMARK    6  A    between atoms: C_24  and  C_25 
ROOT
HETATM    1  C   UNL     1      42.302 -15.637   3.786  1.00  0.00     0.164 C 
HETATM    2  N   UNL     1      43.174 -15.516   2.631  1.00  0.00    -0.319 N 
HETATM    3  C   UNL     1      43.339 -16.723   1.984  1.00  0.00     0.326 C 
HETATM    4  O   UNL     1      44.124 -16.864   1.063  1.00  0.00    -0.247 OA
HETATM    5  N   UNL     1      42.522 -17.646   2.549  1.00  0.00    -0.265 N 
HETATM    6  C   UNL     1      41.975 -17.149   3.702  1.00  0.00     0.263 C 
HETATM    7  O   UNL     1      41.309 -17.779   4.510  1.00  0.00    -0.270 OA
HETATM    8  H   UNL     1      43.950 -14.866   2.582  1.00  0.00     0.166 HD
ENDROOT
BRANCH   1   9
HETATM    9  C   UNL     1      40.954 -14.830   3.592  1.00  0.00     0.033 C 
HETATM   10  C   UNL     1      39.899 -15.506   2.683  1.00  0.00     0.036 C 
HETATM   11  C   UNL     1      40.203 -15.444   1.188  1.00  0.00     0.235 C 
HETATM   12  N   UNL     1      40.405 -14.008   0.760  1.00  0.00    -0.067 N 
HETATM   13  H   UNL     1      39.492 -13.548   0.856  1.00  0.00     0.280 HD
HETATM   14  C   UNL     1      41.399 -13.253   1.608  1.00  0.00     0.235 C 
HETATM   15  C   UNL     1      41.084 -13.377   3.086  1.00  0.00     0.036 C 
BRANCH  12  16
HETATM   16  C   UNL     1      40.802 -13.862  -0.706  1.00  0.00     0.273 C 
BRANCH  16  17
HETATM   17  C   UNL     1      39.704 -14.023  -1.725  1.00  0.00    -0.027 A 
HETATM   18  C   UNL     1      39.788 -14.981  -2.761  1.00  0.00    -0.054 A 
HETATM   19  C   UNL     1      38.739 -15.085  -3.690  1.00  0.00     0.014 A 
HETATM   20  C   UNL     1      40.973 -15.899  -2.926  1.00  0.00     0.049 C 
HETATM   21  C   UNL     1      37.621 -14.248  -3.621  1.00  0.00    -0.061 A 
HETATM   22  C   UNL     1      36.509 -14.400  -4.619  1.00  0.00     0.048 C 
HETATM   23  C   UNL     1      37.543 -13.303  -2.598  1.00  0.00     0.007 A 
HETATM   24  C   UNL     1      38.577 -13.183  -1.666  1.00  0.00     0.010 A 
ENDBRANCH  16  17
ENDBRANCH  12  16
ENDBRANCH   1   9
BRANCH   1  25
HETATM   25  C   UNL     1      43.078 -15.348   5.075  1.00  0.00     0.072 A 
HETATM   26  N   UNL     1      43.302 -14.052   5.406  1.00  0.00    -0.262 NA
HETATM   27  C   UNL     1      44.015 -13.792   6.528  1.00  0.00     0.117 A 
HETATM   28  C   UNL     1      44.554 -14.771   7.341  1.00  0.00     0.019 A 
HETATM   29  C   UNL     1      44.346 -16.095   6.990  1.00  0.00     0.003 A 
HETATM   30  C   UNL     1      43.603 -16.391   5.849  1.00  0.00     0.030 A 
ENDBRANCH   1  25
BRANCH   5  31
HETATM   31  C   UNL     1      42.376 -19.018   2.084  1.00  0.00     0.168 C 
BRANCH  31  32
HETATM   32  C   UNL     1      43.667 -19.826   2.259  1.00  0.00     0.140 C 
HETATM   33  O   UNL     1      44.006 -19.968   3.658  1.00  0.00    -0.384 OA
HETATM   34  C   UNL     1      44.722 -21.212   3.803  1.00  0.00     0.168 C 
HETATM   35  C   UNL     1      44.735 -21.895   2.448  1.00  0.00     0.029 C 
HETATM   36  C   UNL     1      43.570 -21.248   1.739  1.00  0.00     0.036 C 
ENDBRANCH  31  32
ENDBRANCH   5  31
TORSDOF 6
ENDMDL
MODEL 7
REMARK VINA RESULT:      -8.2      2.495      4.484
REMARK  6 active torsions:
REMARK  status: ('A' for Active; 'I' for Inactive)
REMARK    1  A    between atoms: C_6  and  C_7 
REMARK    2  A    between atoms: C_7  and  N_8 
REMARK    3  A    between atoms: C_12  and  C_13 
REMARK    4  A    between atoms: C_13  and  C_14 
REMARK    5  A    between atoms: N_23  and  C_24 
REMARK    6  A    between atoms: C_24  and  C_25 
ROOT
HETATM    1  C   UNL     1      40.885 -14.127   0.498  1.00  0.00     0.164 C 
HETATM    2  N   UNL     1      41.843 -13.699   1.502  1.00  0.00    -0.319 N 
HETATM    3  C   UNL     1      41.269 -12.861   2.435  1.00  0.00     0.326 C 
HETATM    4  O   UNL     1      41.925 -12.298   3.293  1.00  0.00    -0.247 OA
HETATM    5  N   UNL     1      39.933 -12.793   2.209  1.00  0.00    -0.265 N 
HETATM    6  C   UNL     1      39.626 -13.386   1.013  1.00  0.00     0.263 C 
HETATM    7  O   UNL     1      38.535 -13.368   0.462  1.00  0.00    -0.270 OA
HETATM    8  H   UNL     1      42.828 -13.556   1.311  1.00  0.00     0.166 HD
ENDROOT
BRANCH   1   9
HETATM    9  C   UNL     1      40.607 -15.683   0.576  1.00  0.00     0.033 C 
HETATM   10  C   UNL     1      40.161 -16.211   1.962  1.00  0.00     0.036 C 
HETATM   11  C   UNL     1      41.277 -16.313   3.000  1.00  0.00     0.235 C 
HETATM   12  N   UNL     1      42.405 -17.166   2.464  1.00  0.00    -0.067 N 
HETATM   13  H   UNL     1      42.035 -18.120   2.390  1.00  0.00     0.280 HD
HETATM   14  C   UNL     1      42.891 -16.746   1.099  1.00  0.00     0.235 C 
HETATM   15  C   UNL     1      41.747 -16.615   0.112  1.00  0.00     0.036 C 
BRANCH  12  16
HETATM   16  C   UNL     1      43.604 -17.247   3.406  1.00  0.00     0.273 C 
BRANCH  16  17
HETATM   17  C   UNL     1      44.001 -18.621   3.879  1.00  0.00    -0.027 A 
HETATM   18  C   UNL     1      44.167 -18.913   5.253  1.00  0.00    -0.054 A 
HETATM   19  C   UNL     1      44.547 -20.209   5.640  1.00  0.00     0.014 A 
HETATM   20  C   UNL     1      43.969 -17.881   6.334  1.00  0.00     0.049 C 
HETATM   21  C   UNL     1      44.781 -21.212   4.694  1.00  0.00    -0.061 A 
HETATM   22  C   UNL     1      45.166 -22.591   5.145  1.00  0.00     0.048 C 
HETATM   23  C   UNL     1      44.616 -20.918   3.340  1.00  0.00     0.007 A 
HETATM   24  C   UNL     1      44.242 -19.635   2.935  1.00  0.00     0.010 A 
ENDBRANCH  16  17
ENDBRANCH  12  16
ENDBRANCH   1   9
BRANCH   1  25
HETATM   25  C   UNL     1      41.277 -13.583  -0.881  1.00  0.00     0.072 A 
HETATM   26  N   UNL     1      40.652 -14.098  -1.968  1.00  0.00    -0.262 NA
HETATM   27  C   UNL     1      41.017 -13.643  -3.191  1.00  0.00     0.117 A 
HETATM   28  C   UNL     1      42.011 -12.707  -3.398  1.00  0.00     0.019 A 
HETATM   29  C   UNL     1      42.668 -12.199  -2.287  1.00  0.00     0.003 A 
HETATM   30  C   UNL     1      42.301 -12.638  -1.017  1.00  0.00     0.030 A 
ENDBRANCH   1  25
BRANCH   5  31
HETATM   31  C   UNL     1      38.990 -12.055   3.036  1.00  0.00     0.168 C 
BRANCH  31  32
HETATM   32  C   UNL     1      38.754 -10.633   2.515  1.00  0.00     0.140 C 
HETATM   33  O   UNL     1      37.349 -10.292   2.549  1.00  0.00    -0.384 OA
HETATM   34  C   UNL     1      37.257  -8.865   2.736  1.00  0.00     0.168 C 
HETATM   35  C   UNL     1      38.667  -8.333   2.912  1.00  0.00     0.029 C 
HETATM   36  C   UNL     1      39.433  -9.559   3.345  1.00  0.00     0.036 C 
ENDBRANCH  31  32
ENDBRANCH   5  31
TORSDOF 6
ENDMDL
MODEL 8
REMARK VINA RESULT:      -8.2      3.228      4.493
REMARK  6 active torsions:
REMARK  status: ('A' for Active; 'I' for Inactive)
REMARK    1  A    between atoms: C_6  and  C_7 
REMARK    2  A    between atoms: C_7  and  N_8 
REMARK    3  A    between atoms: C_12  and  C_13 
REMARK    4  A    between atoms: C_13  and  C_14 
REMARK    5  A    between atoms: N_23  and  C_24 
REMARK    6  A    between atoms: C_24  and  C_25 
ROOT
HETATM    1  C   UNL     1      40.699 -11.985   4.505  1.00  0.00     0.164 C 
HETATM    2  N   UNL     1      41.718 -10.953   4.427  1.00  0.00    -0.319 N 
HETATM    3  C   UNL     1      41.252  -9.736   4.875  1.00  0.00     0.326 C 
HETATM    4  O   UNL     1      41.909  -8.714   4.783  1.00  0.00    -0.247 OA
HETATM    5  N   UNL     1      40.006  -9.898   5.386  1.00  0.00    -0.265 N 
HETATM    6  C   UNL     1      39.534 -11.149   5.091  1.00  0.00     0.263 C 
HETATM    7  O   UNL     1      38.398 -11.553   5.290  1.00  0.00    -0.270 OA
HETATM    8  H   UNL     1      42.434 -10.928   3.709  1.00  0.00     0.166 HD
ENDROOT
BRANCH   1   9
HETATM    9  C   UNL     1      41.078 -13.106   5.557  1.00  0.00     0.033 C 
HETATM   10  C   UNL     1      42.594 -13.302   5.804  1.00  0.00     0.036 C 
HETATM   11  C   UNL     1      43.338 -14.033   4.690  1.00  0.00     0.235 C 
HETATM   12  N   UNL     1      42.685 -15.370   4.422  1.00  0.00    -0.067 N 
HETATM   13  H   UNL     1      42.847 -15.943   5.258  1.00  0.00     0.280 HD
HETATM   14  C   UNL     1      41.195 -15.287   4.195  1.00  0.00     0.235 C 
HETATM   15  C   UNL     1      40.502 -14.516   5.303  1.00  0.00     0.036 C 
BRANCH  12  16
HETATM   16  C   UNL     1      43.314 -16.130   3.257  1.00  0.00     0.273 C 
BRANCH  16  17
HETATM   17  C   UNL     1      43.725 -17.555   3.521  1.00  0.00    -0.027 A 
HETATM   18  C   UNL     1      43.891 -18.487   2.471  1.00  0.00    -0.054 A 
HETATM   19  C   UNL     1      44.267 -19.806   2.773  1.00  0.00     0.014 A 
HETATM   20  C   UNL     1      43.665 -18.129   1.023  1.00  0.00     0.049 C 
HETATM   21  C   UNL     1      44.464 -20.222   4.093  1.00  0.00    -0.061 A 
HETATM   22  C   UNL     1      44.886 -21.635   4.378  1.00  0.00     0.048 C 
HETATM   23  C   UNL     1      44.299 -19.299   5.126  1.00  0.00     0.007 A 
HETATM   24  C   UNL     1      43.922 -17.984   4.847  1.00  0.00     0.010 A 
ENDBRANCH  16  17
ENDBRANCH  12  16
ENDBRANCH   1   9
BRANCH   1  25
HETATM   25  C   UNL     1      40.327 -12.478   3.102  1.00  0.00     0.072 A 
HETATM   26  N   UNL     1      41.319 -12.603   2.188  1.00  0.00    -0.262 NA
HETATM   27  C   UNL     1      40.990 -13.008   0.938  1.00  0.00     0.117 A 
HETATM   28  C   UNL     1      39.697 -13.273   0.531  1.00  0.00     0.019 A 
HETATM   29  C   UNL     1      38.679 -13.122   1.459  1.00  0.00     0.003 A 
HETATM   30  C   UNL     1      38.992 -12.721   2.756  1.00  0.00     0.030 A 
ENDBRANCH   1  25
BRANCH   5  31
HETATM   31  C   UNL     1      39.224  -8.841   6.013  1.00  0.00     0.168 C 
BRANCH  31  32
HETATM   32  C   UNL     1      39.356  -8.854   7.539  1.00  0.00     0.140 C 
HETATM   33  O   UNL     1      38.401  -9.762   8.136  1.00  0.00    -0.384 OA
HETATM   34  C   UNL     1      38.983 -10.253   9.362  1.00  0.00     0.168 C 
HETATM   35  C   UNL     1      40.387  -9.686   9.463  1.00  0.00     0.029 C 
HETATM   36  C   UNL     1      40.708  -9.337   8.031  1.00  0.00     0.036 C 
ENDBRANCH  31  32
ENDBRANCH   5  31
TORSDOF 6
ENDMDL
MODEL 9
REMARK VINA RESULT:      -8.1      3.326      8.129
REMARK  6 active torsions:
REMARK  status: ('A' for Active; 'I' for Inactive)
REMARK    1  A    between atoms: C_6  and  C_7 
REMARK    2  A    between atoms: C_7  and  N_8 
REMARK    3  A    between atoms: C_12  and  C_13 
REMARK    4  A    between atoms: C_13  and  C_14 
REMARK    5  A    between atoms: N_23  and  C_24 
REMARK    6  A    between atoms: C_24  and  C_25 
ROOT
HETATM    1  C   UNL     1      41.860 -15.520   3.371  1.00  0.00     0.164 C 
HETATM    2  N   UNL     1      42.628 -14.317   3.106  1.00  0.00    -0.319 N 
HETATM    3  C   UNL     1      41.990 -13.487   2.209  1.00  0.00     0.326 C 
HETATM    4  O   UNL     1      42.518 -12.484   1.762  1.00  0.00    -0.247 OA
HETATM    5  N   UNL     1      40.757 -13.986   1.941  1.00  0.00    -0.265 N 
HETATM    6  C   UNL     1      40.636 -15.247   2.462  1.00  0.00     0.263 C 
HETATM    7  O   UNL     1      39.703 -16.015   2.274  1.00  0.00    -0.270 OA
HETATM    8  H   UNL     1      43.642 -14.289   3.106  1.00  0.00     0.166 HD
ENDROOT
BRANCH   1   9
HETATM    9  C   UNL     1      41.356 -15.576   4.871  1.00  0.00     0.033 C 
HETATM   10  C   UNL     1      40.385 -14.445   5.290  1.00  0.00     0.036 C 
HETATM   11  C   UNL     1      41.042 -13.085   5.516  1.00  0.00     0.235 C 
HETATM   12  N   UNL     1      42.154 -13.210   6.532  1.00  0.00    -0.067 N 
HETATM   13  H   UNL     1      41.704 -13.429   7.428  1.00  0.00     0.280 HD
HETATM   14  C   UNL     1      43.140 -14.310   6.225  1.00  0.00     0.235 C 
HETATM   15  C   UNL     1      42.443 -15.632   5.966  1.00  0.00     0.036 C 
BRANCH  12  16
HETATM   16  C   UNL     1      42.925 -11.910   6.751  1.00  0.00     0.273 C 
BRANCH  16  17
HETATM   17  C   UNL     1      43.103 -11.461   8.178  1.00  0.00    -0.027 A 
HETATM   18  C   UNL     1      44.242 -11.822   8.933  1.00  0.00    -0.054 A 
HETATM   19  C   UNL     1      44.355 -11.384  10.262  1.00  0.00     0.014 A 
HETATM   20  C   UNL     1      45.349 -12.681   8.374  1.00  0.00     0.049 C 
HETATM   21  C   UNL     1      43.355 -10.611  10.861  1.00  0.00    -0.061 A 
HETATM   22  C   UNL     1      43.519 -10.142  12.278  1.00  0.00     0.048 C 
HETATM   23  C   UNL     1      42.233 -10.258  10.112  1.00  0.00     0.007 A 
HETATM   24  C   UNL     1      42.100 -10.687   8.790  1.00  0.00     0.010 A 
ENDBRANCH  16  17
ENDBRANCH  12  16
ENDBRANCH   1   9
BRANCH   1  25
HETATM   25  C   UNL     1      42.612 -16.757   2.869  1.00  0.00     0.072 A 
HETATM   26  N   UNL     1      42.411 -17.930   3.518  1.00  0.00    -0.262 NA
HETATM   27  C   UNL     1      43.097 -19.020   3.096  1.00  0.00     0.117 A 
HETATM   28  C   UNL     1      44.014 -18.999   2.063  1.00  0.00     0.019 A 
HETATM   29  C   UNL     1      44.237 -17.795   1.415  1.00  0.00     0.003 A 
HETATM   30  C   UNL     1      43.533 -16.662   1.818  1.00  0.00     0.030 A 
ENDBRANCH   1  25
BRANCH   5  31
HETATM   31  C   UNL     1      39.771 -13.342   1.086  1.00  0.00     0.168 C 
BRANCH  31  32
HETATM   32  C   UNL     1      39.713 -13.977  -0.308  1.00  0.00     0.140 C 
HETATM   33  O   UNL     1      38.358 -14.001  -0.813  1.00  0.00    -0.384 OA
HETATM   34  C   UNL     1      38.433 -13.927  -2.251  1.00  0.00     0.168 C 
HETATM   35  C   UNL     1      39.894 -13.759  -2.626  1.00  0.00     0.029 C 
HETATM   36  C   UNL     1      40.503 -13.217  -1.357  1.00  0.00     0.036 C 
ENDBRANCH  31  32
ENDBRANCH   5  31
TORSDOF 6
ENDMDL
MODEL 10
REMARK VINA RESULT:      -8.1      2.987      7.271
REMARK  6 active torsions:
REMARK  status: ('A' for Active; 'I' for Inactive)
REMARK    1  A    between atoms: C_6  and  C_7 
REMARK    2  A    between atoms: C_7  and  N_8 
REMARK    3  A    between atoms: C_12  and  C_13 
REMARK    4  A    between atoms: C_13  and  C_14 
REMARK    5  A    between atoms: N_23  and  C_24 
REMARK    6  A    between atoms: C_24  and  C_25 
ROOT
HETATM    1  C   UNL     1      41.813 -16.017   2.993  1.00  0.00     0.164 C 
HETATM    2  N   UNL     1      42.880 -15.889   2.017  1.00  0.00    -0.319 N 
HETATM    3  C   UNL     1      43.900 -16.787   2.250  1.00  0.00     0.326 C 
HETATM    4  O   UNL     1      44.941 -16.766   1.619  1.00  0.00    -0.247 OA
HETATM    5  N   UNL     1      43.536 -17.622   3.256  1.00  0.00    -0.265 N 
HETATM    6  C   UNL     1      42.390 -17.169   3.854  1.00  0.00     0.263 C 
HETATM    7  O   UNL     1      41.886 -17.618   4.873  1.00  0.00    -0.270 OA
HETATM    8  H   UNL     1      43.140 -15.009   1.586  1.00  0.00     0.166 HD
ENDROOT
BRANCH   1   9
HETATM    9  C   UNL     1      40.467 -16.525   2.331  1.00  0.00     0.033 C 
HETATM   10  C   UNL     1      40.631 -17.284   0.991  1.00  0.00     0.036 C 
HETATM   11  C   UNL     1      40.942 -16.400  -0.214  1.00  0.00     0.235 C 
HETATM   12  N   UNL     1      39.886 -15.328  -0.357  1.00  0.00    -0.067 N 
HETATM   13  H   UNL     1      39.017 -15.811  -0.610  1.00  0.00     0.280 HD
HETATM   14  C   UNL     1      39.633 -14.548   0.910  1.00  0.00     0.235 C 
HETATM   15  C   UNL     1      39.371 -15.465   2.090  1.00  0.00     0.036 C 
BRANCH  12  16
HETATM   16  C   UNL     1      40.171 -14.343  -1.488  1.00  0.00     0.273 C 
BRANCH  16  17
HETATM   17  C   UNL     1      39.001 -13.946  -2.350  1.00  0.00    -0.027 A 
HETATM   18  C   UNL     1      38.577 -14.744  -3.437  1.00  0.00    -0.054 A 
HETATM   19  C   UNL     1      37.485 -14.324  -4.215  1.00  0.00     0.014 A 
HETATM   20  C   UNL     1      39.260 -16.035  -3.815  1.00  0.00     0.049 C 
HETATM   21  C   UNL     1      36.820 -13.123  -3.948  1.00  0.00    -0.061 A 
HETATM   22  C   UNL     1      35.644 -12.715  -4.788  1.00  0.00     0.048 C 
HETATM   23  C   UNL     1      37.243 -12.339  -2.874  1.00  0.00     0.007 A 
HETATM   24  C   UNL     1      38.328 -12.738  -2.091  1.00  0.00     0.010 A 
ENDBRANCH  16  17
ENDBRANCH  12  16
ENDBRANCH   1   9
BRANCH   1  25
HETATM   25  C   UNL     1      41.705 -14.744   3.840  1.00  0.00     0.072 A 
HETATM   26  N   UNL     1      40.914 -14.776   4.940  1.00  0.00    -0.262 NA
HETATM   27  C   UNL     1      40.791 -13.644   5.673  1.00  0.00     0.117 A 
HETATM   28  C   UNL     1      41.400 -12.447   5.349  1.00  0.00     0.019 A 
HETATM   29  C   UNL     1      42.190 -12.407   4.210  1.00  0.00     0.003 A 
HETATM   30  C   UNL     1      42.346 -13.562   3.446  1.00  0.00     0.030 A 
ENDBRANCH   1  25
BRANCH   5  31
HETATM   31  C   UNL     1      44.335 -18.741   3.732  1.00  0.00     0.168 C 
BRANCH  31  32
HETATM   32  C   UNL     1      44.452 -19.854   2.684  1.00  0.00     0.140 C 
HETATM   33  O   UNL     1      44.977 -21.067   3.271  1.00  0.00    -0.384 OA
HETATM   34  C   UNL     1      44.436 -22.175   2.522  1.00  0.00     0.168 C 
HETATM   35  C   UNL     1      43.472 -21.609   1.496  1.00  0.00     0.029 C 
HETATM   36  C   UNL     1      43.123 -20.261   2.076  1.00  0.00     0.036 C 
ENDBRANCH  31  32
ENDBRANCH   5  31
TORSDOF 6
ENDMDL
