MODEL 1
REMARK VINA RESULT:      -9.4      0.000      0.000
REMARK  7 active torsions:
REMARK  status: ('A' for Active; 'I' for Inactive)
REMARK    1  A    between atoms: C_7  and  C_8 
REMARK    2  A    between atoms: C_11  and  N_12 
REMARK       I    between atoms: N_12  and  C_13 
REMARK    3  A    between atoms: C_13  and  C_14 
REMARK    4  A    between atoms: C_14  and  N_15 
REMARK    5  A    between atoms: N_15  and  C_16 
REMARK    6  A    between atoms: C_17  and  O_18 
REMARK    7  A    between atoms: C_22  and  N_23 
REMARK       I    between atoms: N_23  and  C_24 
ROOT
HETATM    1  N   UNL     1      40.893 -11.820   6.677  1.00  0.00    -0.326 N 
HETATM    2  C   UNL     1      39.840 -11.433   7.483  1.00  0.00     0.239 C 
HETATM    3  O   UNL     1      39.009 -12.195   7.977  1.00  0.00    -0.271 OA
HETATM    4  H   UNL     1      41.585 -11.110   6.503  1.00  0.00     0.169 HD
ENDROOT
BRANCH   2   5
HETATM    5  C   UNL     1      39.732  -9.897   7.685  1.00  0.00     0.148 C 
HETATM    6  C   UNL     1      40.279  -9.104   6.504  1.00  0.00     0.036 C 
BRANCH   5   7
HETATM    7  N   UNL     1      40.216  -9.384   8.992  1.00  0.00    -0.278 NA
HETATM    8  H   UNL     1      39.407  -9.267   9.616  1.00  0.00     0.128 HD
BRANCH   7   9
HETATM    9  C   UNL     1      41.215  -9.999   9.761  1.00  0.00     0.044 C 
HETATM   10  C   UNL     1      40.886 -10.469  11.053  1.00  0.00     0.089 C 
HETATM   11  C   UNL     1      41.828 -11.156  11.816  1.00  0.00     0.041 C 
HETATM   12  C   UNL     1      43.116 -11.368  11.315  1.00  0.00     0.032 C 
HETATM   13  C   UNL     1      43.484 -10.858  10.073  1.00  0.00     0.036 C 
HETATM   14  C   UNL     1      42.542 -10.126   9.333  1.00  0.00     0.055 C 
BRANCH  10  15
HETATM   15  O   UNL     1      39.586 -10.245  11.449  1.00  0.00    -0.354 OA
HETATM   16  C   UNL     1      39.422  -9.295  12.497  1.00  0.00     0.210 C 
ENDBRANCH  10  15
BRANCH  13  17
HETATM   17  N   UNL     1      44.745 -11.075   9.475  1.00  0.00    -0.327 N 
HETATM   18  C   UNL     1      45.217 -12.255   8.924  1.00  0.00     0.218 C 
HETATM   19  C   UNL     1      46.552 -12.079   8.245  1.00  0.00     0.117 C 
HETATM   20  O   UNL     1      44.642 -13.337   8.898  1.00  0.00    -0.274 OA
HETATM   21  H   UNL     1      45.344 -10.265   9.387  1.00  0.00     0.169 HD
ENDBRANCH  13  17
ENDBRANCH   7   9
ENDBRANCH   5   7
ENDBRANCH   2   5
BRANCH   1  22
HETATM   22  C   UNL     1      41.187 -13.079   6.134  1.00  0.00     0.034 A 
HETATM   23  C   UNL     1      40.238 -13.963   5.626  1.00  0.00     0.030 A 
HETATM   24  C   UNL     1      40.641 -15.176   5.040  1.00  0.00     0.016 A 
HETATM   25  C   UNL     1      41.997 -15.528   4.953  1.00  0.00    -0.000 A 
HETATM   26  C   UNL     1      42.937 -14.631   5.482  1.00  0.00     0.016 A 
HETATM   27  C   UNL     1      42.539 -13.426   6.064  1.00  0.00     0.030 A 
BRANCH  25  28
HETATM   28  C   UNL     1      42.497 -16.769   4.326  1.00  0.00     0.109 A 
HETATM   29  N   UNL     1      43.415 -17.536   4.883  1.00  0.00    -0.240 NA
HETATM   30  C   UNL     1      43.673 -18.642   4.097  1.00  0.00     0.075 A 
HETATM   31  C   UNL     1      42.936 -18.719   2.918  1.00  0.00     0.036 A 
HETATM   32  C   UNL     1      44.593 -19.666   4.393  1.00  0.00     0.033 A 
HETATM   33  C   UNL     1      43.083 -19.790   2.019  1.00  0.00     0.028 A 
HETATM   34  S   UNL     1      41.902 -17.346   2.818  1.00  0.00    -0.067 SA
HETATM   35  C   UNL     1      44.000 -20.807   2.329  1.00  0.00    -0.061 A 
HETATM   36  C   UNL     1      44.188 -21.974   1.401  1.00  0.00     0.048 C 
HETATM   37  C   UNL     1      44.747 -20.739   3.507  1.00  0.00     0.009 A 
ENDBRANCH  25  28
ENDBRANCH   1  22
TORSDOF 7
ENDMDL
MODEL 2
REMARK VINA RESULT:      -9.0      1.255      3.325
REMARK  7 active torsions:
REMARK  status: ('A' for Active; 'I' for Inactive)
REMARK    1  A    between atoms: C_7  and  C_8 
REMARK    2  A    between atoms: C_11  and  N_12 
REMARK       I    between atoms: N_12  and  C_13 
REMARK    3  A    between atoms: C_13  and  C_14 
REMARK    4  A    between atoms: C_14  and  N_15 
REMARK    5  A    between atoms: N_15  and  C_16 
REMARK    6  A    between atoms: C_17  and  O_18 
REMARK    7  A    between atoms: C_22  and  N_23 
REMARK       I    between atoms: N_23  and  C_24 
ROOT
HETATM    1  N   UNL     1      41.503 -11.889   6.747  1.00  0.00    -0.326 N 
HETATM    2  C   UNL     1      40.325 -11.292   7.151  1.00  0.00     0.239 C 
HETATM    3  O   UNL     1      39.228 -11.847   7.195  1.00  0.00    -0.271 OA
HETATM    4  H   UNL     1      42.340 -11.364   6.938  1.00  0.00     0.169 HD
ENDROOT
BRANCH   2   5
HETATM    5  C   UNL     1      40.471  -9.786   7.506  1.00  0.00     0.148 C 
HETATM    6  C   UNL     1      40.034  -8.866   6.373  1.00  0.00     0.036 C 
BRANCH   5   7
HETATM    7  N   UNL     1      41.774  -9.388   8.098  1.00  0.00    -0.278 NA
HETATM    8  H   UNL     1      41.946  -8.400   7.871  1.00  0.00     0.128 HD
BRANCH   7   9
HETATM    9  C   UNL     1      42.106  -9.539   9.453  1.00  0.00     0.044 C 
HETATM   10  C   UNL     1      43.151 -10.424   9.801  1.00  0.00     0.089 C 
HETATM   11  C   UNL     1      43.563 -10.543  11.128  1.00  0.00     0.041 C 
HETATM   12  C   UNL     1      42.930  -9.799  12.128  1.00  0.00     0.032 C 
HETATM   13  C   UNL     1      41.855  -8.970  11.818  1.00  0.00     0.036 C 
HETATM   14  C   UNL     1      41.416  -8.895  10.487  1.00  0.00     0.055 C 
BRANCH  10  15
HETATM   15  O   UNL     1      43.738 -11.088   8.747  1.00  0.00    -0.354 OA
HETATM   16  C   UNL     1      44.630 -12.139   9.108  1.00  0.00     0.210 C 
ENDBRANCH  10  15
BRANCH  13  17
HETATM   17  N   UNL     1      41.198  -8.148  12.761  1.00  0.00    -0.327 N 
HETATM   18  C   UNL     1      39.871  -8.218  13.149  1.00  0.00     0.218 C 
HETATM   19  C   UNL     1      39.554  -7.277  14.284  1.00  0.00     0.117 C 
HETATM   20  O   UNL     1      39.014  -8.976  12.710  1.00  0.00    -0.274 OA
HETATM   21  H   UNL     1      41.776  -7.475  13.247  1.00  0.00     0.169 HD
ENDBRANCH  13  17
ENDBRANCH   7   9
ENDBRANCH   5   7
ENDBRANCH   2   5
BRANCH   1  22
HETATM   22  C   UNL     1      41.715 -13.156   6.184  1.00  0.00     0.034 A 
HETATM   23  C   UNL     1      40.708 -13.980   5.687  1.00  0.00     0.030 A 
HETATM   24  C   UNL     1      41.030 -15.206   5.080  1.00  0.00     0.016 A 
HETATM   25  C   UNL     1      42.363 -15.632   4.961  1.00  0.00    -0.000 A 
HETATM   26  C   UNL     1      43.362 -14.795   5.479  1.00  0.00     0.016 A 
HETATM   27  C   UNL     1      43.044 -13.577   6.082  1.00  0.00     0.030 A 
BRANCH  25  28
HETATM   28  C   UNL     1      42.780 -16.892   4.310  1.00  0.00     0.109 A 
HETATM   29  N   UNL     1      43.662 -17.716   4.841  1.00  0.00    -0.240 NA
HETATM   30  C   UNL     1      43.843 -18.825   4.037  1.00  0.00     0.075 A 
HETATM   31  C   UNL     1      43.082 -18.845   2.872  1.00  0.00     0.036 A 
HETATM   32  C   UNL     1      44.708 -19.904   4.305  1.00  0.00     0.033 A 
HETATM   33  C   UNL     1      43.151 -19.911   1.958  1.00  0.00     0.028 A 
HETATM   34  S   UNL     1      42.126 -17.415   2.807  1.00  0.00    -0.067 SA
HETATM   35  C   UNL     1      44.014 -20.983   2.239  1.00  0.00    -0.061 A 
HETATM   36  C   UNL     1      44.118 -22.147   1.294  1.00  0.00     0.048 C 
HETATM   37  C   UNL     1      44.785 -20.972   3.403  1.00  0.00     0.009 A 
ENDBRANCH  25  28
ENDBRANCH   1  22
TORSDOF 7
ENDMDL
MODEL 3
REMARK VINA RESULT:      -8.5      1.579      2.101
REMARK  7 active torsions:
REMARK  status: ('A' for Active; 'I' for Inactive)
REMARK    1  A    between atoms: C_7  and  C_8 
REMARK    2  A    between atoms: C_11  and  N_12 
REMARK       I    between atoms: N_12  and  C_13 
REMARK    3  A    between atoms: C_13  and  C_14 
REMARK    4  A    between atoms: C_14  and  N_15 
REMARK    5  A    between atoms: N_15  and  C_16 
REMARK    6  A    between atoms: C_17  and  O_18 
REMARK    7  A    between atoms: C_22  and  N_23 
REMARK       I    between atoms: N_23  and  C_24 
ROOT
HETATM    1  N   UNL     1      40.121 -11.839   6.395  1.00  0.00    -0.326 N 
HETATM    2  C   UNL     1      40.255 -10.506   6.059  1.00  0.00     0.239 C 
HETATM    3  O   UNL     1      40.918 -10.076   5.116  1.00  0.00    -0.271 OA
HETATM    4  H   UNL     1      39.407 -12.043   7.073  1.00  0.00     0.169 HD
ENDROOT
BRANCH   2   5
HETATM    5  C   UNL     1      39.529  -9.536   7.031  1.00  0.00     0.148 C 
HETATM    6  C   UNL     1      40.283  -8.227   7.233  1.00  0.00     0.036 C 
BRANCH   5   7
HETATM    7  N   UNL     1      39.065 -10.133   8.310  1.00  0.00    -0.278 NA
HETATM    8  H   UNL     1      38.783 -11.105   8.131  1.00  0.00     0.128 HD
BRANCH   7   9
HETATM    9  C   UNL     1      39.822 -10.157   9.491  1.00  0.00     0.044 C 
HETATM   10  C   UNL     1      39.333  -9.472  10.626  1.00  0.00     0.089 C 
HETATM   11  C   UNL     1      40.016  -9.538  11.839  1.00  0.00     0.041 C 
HETATM   12  C   UNL     1      41.203 -10.268  11.937  1.00  0.00     0.032 C 
HETATM   13  C   UNL     1      41.740 -10.897  10.816  1.00  0.00     0.036 C 
HETATM   14  C   UNL     1      41.071 -10.784   9.588  1.00  0.00     0.055 C 
BRANCH  10  15
HETATM   15  O   UNL     1      38.140  -8.809  10.446  1.00  0.00    -0.354 OA
HETATM   16  C   UNL     1      37.745  -7.959  11.518  1.00  0.00     0.210 C 
ENDBRANCH  10  15
BRANCH  13  17
HETATM   17  N   UNL     1      42.905 -11.696  10.844  1.00  0.00    -0.327 N 
HETATM   18  C   UNL     1      44.168 -11.348  10.394  1.00  0.00     0.218 C 
HETATM   19  C   UNL     1      45.202 -12.398  10.718  1.00  0.00     0.117 C 
HETATM   20  O   UNL     1      44.492 -10.301   9.847  1.00  0.00    -0.274 OA
HETATM   21  H   UNL     1      42.819 -12.597  11.296  1.00  0.00     0.169 HD
ENDBRANCH  13  17
ENDBRANCH   7   9
ENDBRANCH   5   7
ENDBRANCH   2   5
BRANCH   1  22
HETATM   22  C   UNL     1      40.777 -12.963   5.870  1.00  0.00     0.034 A 
HETATM   23  C   UNL     1      42.152 -13.056   5.670  1.00  0.00     0.030 A 
HETATM   24  C   UNL     1      42.722 -14.252   5.200  1.00  0.00     0.016 A 
HETATM   25  C   UNL     1      41.928 -15.375   4.918  1.00  0.00    -0.000 A 
HETATM   26  C   UNL     1      40.543 -15.258   5.113  1.00  0.00     0.016 A 
HETATM   27  C   UNL     1      39.976 -14.071   5.580  1.00  0.00     0.030 A 
BRANCH  25  28
HETATM   28  C   UNL     1      42.457 -16.673   4.451  1.00  0.00     0.109 A 
HETATM   29  N   UNL     1      42.234 -17.144   3.239  1.00  0.00    -0.240 NA
HETATM   30  C   UNL     1      42.868 -18.359   3.061  1.00  0.00     0.075 A 
HETATM   31  C   UNL     1      43.588 -18.821   4.160  1.00  0.00     0.036 A 
HETATM   32  C   UNL     1      42.844 -19.136   1.887  1.00  0.00     0.033 A 
HETATM   33  C   UNL     1      44.292 -20.037   4.128  1.00  0.00     0.028 A 
HETATM   34  S   UNL     1      43.442 -17.679   5.439  1.00  0.00    -0.067 SA
HETATM   35  C   UNL     1      44.264 -20.800   2.949  1.00  0.00    -0.061 A 
HETATM   36  C   UNL     1      45.006 -22.104   2.866  1.00  0.00     0.048 C 
HETATM   37  C   UNL     1      43.542 -20.348   1.842  1.00  0.00     0.009 A 
ENDBRANCH  25  28
ENDBRANCH   1  22
TORSDOF 7
ENDMDL
MODEL 4
REMARK VINA RESULT:      -8.3      4.101      9.841
REMARK  7 active torsions:
REMARK  status: ('A' for Active; 'I' for Inactive)
REMARK    1  A    between atoms: C_7  and  C_8 
REMARK    2  A    between atoms: C_11  and  N_12 
REMARK       I    between atoms: N_12  and  C_13 
REMARK    3  A    between atoms: C_13  and  C_14 
REMARK    4  A    between atoms: C_14  and  N_15 
REMARK    5  A    between atoms: N_15  and  C_16 
REMARK    6  A    between atoms: C_17  and  O_18 
REMARK    7  A    between atoms: C_22  and  N_23 
REMARK       I    between atoms: N_23  and  C_24 
ROOT
HETATM    1  N   UNL     1      41.031 -11.349   2.804  1.00  0.00    -0.326 N 
HETATM    2  C   UNL     1      39.861 -11.738   2.181  1.00  0.00     0.239 C 
HETATM    3  O   UNL     1      38.755 -11.786   2.717  1.00  0.00    -0.271 OA
HETATM    4  H   UNL     1      41.812 -11.189   2.191  1.00  0.00     0.169 HD
ENDROOT
BRANCH   2   5
HETATM    5  C   UNL     1      40.052 -12.190   0.707  1.00  0.00     0.148 C 
HETATM    6  C   UNL     1      39.568 -11.151  -0.298  1.00  0.00     0.036 C 
BRANCH   5   7
HETATM    7  N   UNL     1      39.577 -13.561   0.388  1.00  0.00    -0.278 NA
HETATM    8  H   UNL     1      39.482 -13.643  -0.633  1.00  0.00     0.128 HD
BRANCH   7   9
HETATM    9  C   UNL     1      40.210 -14.737   0.817  1.00  0.00     0.044 C 
HETATM   10  C   UNL     1      41.071 -15.410  -0.078  1.00  0.00     0.089 C 
HETATM   11  C   UNL     1      41.780 -16.537   0.336  1.00  0.00     0.041 C 
HETATM   12  C   UNL     1      41.628 -17.021   1.638  1.00  0.00     0.032 C 
HETATM   13  C   UNL     1      40.736 -16.413   2.519  1.00  0.00     0.036 C 
HETATM   14  C   UNL     1      39.991 -15.310   2.076  1.00  0.00     0.055 C 
BRANCH  10  15
HETATM   15  O   UNL     1      41.184 -14.842  -1.328  1.00  0.00    -0.354 OA
HETATM   16  C   UNL     1      40.823 -15.685  -2.417  1.00  0.00     0.210 C 
ENDBRANCH  10  15
BRANCH  13  17
HETATM   17  N   UNL     1      40.566 -16.809   3.863  1.00  0.00    -0.327 N 
HETATM   18  C   UNL     1      41.296 -16.379   4.960  1.00  0.00     0.218 C 
HETATM   19  C   UNL     1      40.740 -16.902   6.260  1.00  0.00     0.117 C 
HETATM   20  O   UNL     1      42.253 -15.614   4.952  1.00  0.00    -0.274 OA
HETATM   21  H   UNL     1      39.787 -17.426   4.053  1.00  0.00     0.169 HD
ENDBRANCH  13  17
ENDBRANCH   7   9
ENDBRANCH   5   7
ENDBRANCH   2   5
BRANCH   1  22
HETATM   22  C   UNL     1      41.270 -11.063   4.156  1.00  0.00     0.034 A 
HETATM   23  C   UNL     1      41.170  -9.797   4.728  1.00  0.00     0.030 A 
HETATM   24  C   UNL     1      41.365  -9.625   6.109  1.00  0.00     0.016 A 
HETATM   25  C   UNL     1      41.667 -10.713   6.943  1.00  0.00    -0.000 A 
HETATM   26  C   UNL     1      41.777 -11.978   6.347  1.00  0.00     0.016 A 
HETATM   27  C   UNL     1      41.584 -12.151   4.976  1.00  0.00     0.030 A 
BRANCH  25  28
HETATM   28  C   UNL     1      41.857 -10.615   8.406  1.00  0.00     0.109 A 
HETATM   29  N   UNL     1      43.042 -10.474   8.968  1.00  0.00    -0.240 NA
HETATM   30  C   UNL     1      42.924 -10.379  10.342  1.00  0.00     0.075 A 
HETATM   31  C   UNL     1      41.623 -10.450  10.834  1.00  0.00     0.036 A 
HETATM   32  C   UNL     1      43.988 -10.218  11.250  1.00  0.00     0.033 A 
HETATM   33  C   UNL     1      41.344 -10.361  12.209  1.00  0.00     0.028 A 
HETATM   34  S   UNL     1      40.539 -10.645   9.511  1.00  0.00    -0.067 SA
HETATM   35  C   UNL     1      42.414 -10.195  13.103  1.00  0.00    -0.061 A 
HETATM   36  C   UNL     1      42.163 -10.090  14.581  1.00  0.00     0.048 C 
HETATM   37  C   UNL     1      43.723 -10.127  12.621  1.00  0.00     0.009 A 
ENDBRANCH  25  28
ENDBRANCH   1  22
TORSDOF 7
ENDMDL
MODEL 5
REMARK VINA RESULT:      -8.3      6.801      9.387
REMARK  7 active torsions:
REMARK  status: ('A' for Active; 'I' for Inactive)
REMARK    1  A    between atoms: C_7  and  C_8 
REMARK    2  A    between atoms: C_11  and  N_12 
REMARK       I    between atoms: N_12  and  C_13 
REMARK    3  A    between atoms: C_13  and  C_14 
REMARK    4  A    between atoms: C_14  and  N_15 
REMARK    5  A    between atoms: N_15  and  C_16 
REMARK    6  A    between atoms: C_17  and  O_18 
REMARK    7  A    between atoms: C_22  and  N_23 
REMARK       I    between atoms: N_23  and  C_24 
ROOT
HETATM    1  N   UNL     1      41.456 -11.983   1.028  1.00  0.00    -0.326 N 
HETATM    2  C   UNL     1      42.070 -10.964   0.326  1.00  0.00     0.239 C 
HETATM    3  O   UNL     1      43.211 -11.007  -0.132  1.00  0.00    -0.271 OA
HETATM    4  H   UNL     1      40.468 -11.869   1.177  1.00  0.00     0.169 HD
ENDROOT
BRANCH   2   5
HETATM    5  C   UNL     1      41.208  -9.678   0.198  1.00  0.00     0.148 C 
HETATM    6  C   UNL     1      40.127  -9.581   1.269  1.00  0.00     0.036 C 
BRANCH   5   7
HETATM    7  N   UNL     1      40.693  -9.381  -1.163  1.00  0.00    -0.278 NA
HETATM    8  H   UNL     1      40.943  -8.413  -1.401  1.00  0.00     0.128 HD
BRANCH   7   9
HETATM    9  C   UNL     1      40.982 -10.149  -2.302  1.00  0.00     0.044 C 
HETATM   10  C   UNL     1      42.039  -9.743  -3.146  1.00  0.00     0.089 C 
HETATM   11  C   UNL     1      42.407 -10.521  -4.242  1.00  0.00     0.041 C 
HETATM   12  C   UNL     1      41.718 -11.703  -4.525  1.00  0.00     0.032 C 
HETATM   13  C   UNL     1      40.630 -12.092  -3.747  1.00  0.00     0.036 C 
HETATM   14  C   UNL     1      40.237 -11.275  -2.675  1.00  0.00     0.055 C 
BRANCH  10  15
HETATM   15  O   UNL     1      42.682  -8.584  -2.770  1.00  0.00    -0.354 OA
HETATM   16  C   UNL     1      42.532  -7.485  -3.663  1.00  0.00     0.210 C 
ENDBRANCH  10  15
BRANCH  13  17
HETATM   17  N   UNL     1      39.917 -13.296  -3.935  1.00  0.00    -0.327 N 
HETATM   18  C   UNL     1      40.362 -14.581  -3.669  1.00  0.00     0.218 C 
HETATM   19  C   UNL     1      39.278 -15.613  -3.854  1.00  0.00     0.117 C 
HETATM   20  O   UNL     1      41.472 -14.907  -3.266  1.00  0.00    -0.274 OA
HETATM   21  H   UNL     1      38.958 -13.205  -4.241  1.00  0.00     0.169 HD
ENDBRANCH  13  17
ENDBRANCH   7   9
ENDBRANCH   5   7
ENDBRANCH   2   5
BRANCH   1  22
HETATM   22  C   UNL     1      41.989 -13.194   1.494  1.00  0.00     0.034 A 
HETATM   23  C   UNL     1      42.771 -13.327   2.639  1.00  0.00     0.030 A 
HETATM   24  C   UNL     1      43.203 -14.597   3.059  1.00  0.00     0.016 A 
HETATM   25  C   UNL     1      42.864 -15.756   2.343  1.00  0.00    -0.000 A 
HETATM   26  C   UNL     1      42.086 -15.600   1.185  1.00  0.00     0.016 A 
HETATM   27  C   UNL     1      41.657 -14.340   0.766  1.00  0.00     0.030 A 
BRANCH  25  28
HETATM   28  C   UNL     1      43.255 -17.125   2.739  1.00  0.00     0.109 A 
HETATM   29  N   UNL     1      43.322 -18.128   1.884  1.00  0.00    -0.240 NA
HETATM   30  C   UNL     1      43.740 -19.283   2.516  1.00  0.00     0.075 A 
HETATM   31  C   UNL     1      43.995 -19.157   3.879  1.00  0.00     0.036 A 
HETATM   32  C   UNL     1      43.924 -20.537   1.902  1.00  0.00     0.033 A 
HETATM   33  C   UNL     1      44.434 -20.243   4.657  1.00  0.00     0.028 A 
HETATM   34  S   UNL     1      43.688 -17.531   4.353  1.00  0.00    -0.067 SA
HETATM   35  C   UNL     1      44.619 -21.487   4.031  1.00  0.00    -0.061 A 
HETATM   36  C   UNL     1      45.091 -22.675   4.819  1.00  0.00     0.048 C 
HETATM   37  C   UNL     1      44.362 -21.626   2.665  1.00  0.00     0.009 A 
ENDBRANCH  25  28
ENDBRANCH   1  22
TORSDOF 7
ENDMDL
MODEL 6
REMARK VINA RESULT:      -8.3      3.264      9.943
REMARK  7 active torsions:
REMARK  status: ('A' for Active; 'I' for Inactive)
REMARK    1  A    between atoms: C_7  and  C_8 
REMARK    2  A    between atoms: C_11  and  N_12 
REMARK       I    between atoms: N_12  and  C_13 
REMARK    3  A    between atoms: C_13  and  C_14 
REMARK    4  A    between atoms: C_14  and  N_15 
REMARK    5  A    between atoms: N_15  and  C_16 
REMARK    6  A    between atoms: C_17  and  O_18 
REMARK    7  A    between atoms: C_22  and  N_23 
REMARK       I    between atoms: N_23  and  C_24 
ROOT
HETATM    1  N   UNL     1      42.977 -15.015   3.283  1.00  0.00    -0.326 N 
HETATM    2  C   UNL     1      41.975 -15.830   2.792  1.00  0.00     0.239 C 
HETATM    3  O   UNL     1      40.814 -15.846   3.197  1.00  0.00    -0.271 OA
HETATM    4  H   UNL     1      43.819 -14.989   2.732  1.00  0.00     0.169 HD
ENDROOT
BRANCH   2   5
HETATM    5  C   UNL     1      42.447 -16.814   1.687  1.00  0.00     0.148 C 
HETATM    6  C   UNL     1      41.812 -16.529   0.331  1.00  0.00     0.036 C 
BRANCH   5   7
HETATM    7  N   UNL     1      42.406 -18.254   2.047  1.00  0.00    -0.278 NA
HETATM    8  H   UNL     1      42.596 -18.807   1.200  1.00  0.00     0.128 HD
BRANCH   7   9
HETATM    9  C   UNL     1      43.170 -18.835   3.070  1.00  0.00     0.044 C 
HETATM   10  C   UNL     1      43.926 -19.992   2.781  1.00  0.00     0.089 C 
HETATM   11  C   UNL     1      44.759 -20.552   3.749  1.00  0.00     0.041 C 
HETATM   12  C   UNL     1      44.836 -19.982   5.023  1.00  0.00     0.032 C 
HETATM   13  C   UNL     1      44.052 -18.879   5.352  1.00  0.00     0.036 C 
HETATM   14  C   UNL     1      43.180 -18.353   4.386  1.00  0.00     0.055 C 
BRANCH  10  15
HETATM   15  O   UNL     1      43.813 -20.464   1.492  1.00  0.00    -0.354 OA
HETATM   16  C   UNL     1      43.855 -21.881   1.355  1.00  0.00     0.210 C 
ENDBRANCH  10  15
BRANCH  13  17
HETATM   17  N   UNL     1      44.112 -18.214   6.596  1.00  0.00    -0.327 N 
HETATM   18  C   UNL     1      43.079 -17.554   7.242  1.00  0.00     0.218 C 
HETATM   19  C   UNL     1      43.470 -17.087   8.621  1.00  0.00     0.117 C 
HETATM   20  O   UNL     1      41.939 -17.387   6.826  1.00  0.00    -0.274 OA
HETATM   21  H   UNL     1      44.988 -18.280   7.097  1.00  0.00     0.169 HD
ENDBRANCH  13  17
ENDBRANCH   7   9
ENDBRANCH   5   7
ENDBRANCH   2   5
BRANCH   1  22
HETATM   22  C   UNL     1      42.967 -14.154   4.390  1.00  0.00     0.034 A 
HETATM   23  C   UNL     1      42.107 -13.068   4.541  1.00  0.00     0.030 A 
HETATM   24  C   UNL     1      42.130 -12.304   5.720  1.00  0.00     0.016 A 
HETATM   25  C   UNL     1      43.013 -12.608   6.768  1.00  0.00    -0.000 A 
HETATM   26  C   UNL     1      43.880 -13.697   6.592  1.00  0.00     0.016 A 
HETATM   27  C   UNL     1      43.859 -14.457   5.422  1.00  0.00     0.030 A 
BRANCH  25  28
HETATM   28  C   UNL     1      43.074 -11.870   8.047  1.00  0.00     0.109 A 
HETATM   29  N   UNL     1      42.212 -10.925   8.372  1.00  0.00    -0.240 NA
HETATM   30  C   UNL     1      42.485 -10.425   9.631  1.00  0.00     0.075 A 
HETATM   31  C   UNL     1      43.576 -11.001  10.276  1.00  0.00     0.036 A 
HETATM   32  C   UNL     1      41.762  -9.412  10.289  1.00  0.00     0.033 A 
HETATM   33  C   UNL     1      43.972 -10.602  11.565  1.00  0.00     0.028 A 
HETATM   34  S   UNL     1      44.262 -12.198   9.247  1.00  0.00    -0.067 SA
HETATM   35  C   UNL     1      43.239  -9.595  12.212  1.00  0.00    -0.061 A 
HETATM   36  C   UNL     1      43.621  -9.139  13.592  1.00  0.00     0.048 C 
HETATM   37  C   UNL     1      42.145  -9.007  11.573  1.00  0.00     0.009 A 
ENDBRANCH  25  28
ENDBRANCH   1  22
TORSDOF 7
ENDMDL
MODEL 7
REMARK VINA RESULT:      -8.3      7.378     10.253
REMARK  7 active torsions:
REMARK  status: ('A' for Active; 'I' for Inactive)
REMARK    1  A    between atoms: C_7  and  C_8 
REMARK    2  A    between atoms: C_11  and  N_12 
REMARK       I    between atoms: N_12  and  C_13 
REMARK    3  A    between atoms: C_13  and  C_14 
REMARK    4  A    between atoms: C_14  and  N_15 
REMARK    5  A    between atoms: N_15  and  C_16 
REMARK    6  A    between atoms: C_17  and  O_18 
REMARK    7  A    between atoms: C_22  and  N_23 
REMARK       I    between atoms: N_23  and  C_24 
ROOT
HETATM    1  N   UNL     1      41.951 -15.693   0.177  1.00  0.00    -0.326 N 
HETATM    2  C   UNL     1      41.821 -16.758   1.047  1.00  0.00     0.239 C 
HETATM    3  O   UNL     1      40.889 -17.562   1.049  1.00  0.00    -0.271 OA
HETATM    4  H   UNL     1      42.849 -15.240   0.183  1.00  0.00     0.169 HD
ENDROOT
BRANCH   2   5
HETATM    5  C   UNL     1      42.950 -16.845   2.111  1.00  0.00     0.148 C 
HETATM    6  C   UNL     1      44.285 -17.285   1.522  1.00  0.00     0.036 C 
BRANCH   5   7
HETATM    7  N   UNL     1      42.605 -17.576   3.357  1.00  0.00    -0.278 NA
HETATM    8  H   UNL     1      42.515 -18.576   3.134  1.00  0.00     0.128 HD
BRANCH   7   9
HETATM    9  C   UNL     1      43.348 -17.507   4.545  1.00  0.00     0.044 C 
HETATM   10  C   UNL     1      44.217 -18.574   4.865  1.00  0.00     0.089 C 
HETATM   11  C   UNL     1      45.031 -18.507   5.995  1.00  0.00     0.041 C 
HETATM   12  C   UNL     1      44.978 -17.389   6.832  1.00  0.00     0.032 C 
HETATM   13  C   UNL     1      44.083 -16.354   6.574  1.00  0.00     0.036 C 
HETATM   14  C   UNL     1      43.233 -16.454   5.461  1.00  0.00     0.055 C 
BRANCH  10  15
HETATM   15  O   UNL     1      44.228 -19.617   3.966  1.00  0.00    -0.354 OA
HETATM   16  C   UNL     1      45.096 -20.698   4.294  1.00  0.00     0.210 C 
ENDBRANCH  10  15
BRANCH  13  17
HETATM   17  N   UNL     1      44.006 -15.170   7.339  1.00  0.00    -0.327 N 
HETATM   18  C   UNL     1      44.776 -14.028   7.191  1.00  0.00     0.218 C 
HETATM   19  C   UNL     1      44.318 -12.906   8.089  1.00  0.00     0.117 C 
HETATM   20  O   UNL     1      45.695 -13.857   6.399  1.00  0.00    -0.274 OA
HETATM   21  H   UNL     1      43.269 -15.131   8.030  1.00  0.00     0.169 HD
ENDBRANCH  13  17
ENDBRANCH   7   9
ENDBRANCH   5   7
ENDBRANCH   2   5
BRANCH   1  22
HETATM   22  C   UNL     1      41.044 -15.200  -0.772  1.00  0.00     0.034 A 
HETATM   23  C   UNL     1      41.023 -15.571  -2.115  1.00  0.00     0.030 A 
HETATM   24  C   UNL     1      40.030 -15.069  -2.974  1.00  0.00     0.016 A 
HETATM   25  C   UNL     1      39.043 -14.186  -2.509  1.00  0.00    -0.000 A 
HETATM   26  C   UNL     1      39.088 -13.814  -1.157  1.00  0.00     0.016 A 
HETATM   27  C   UNL     1      40.073 -14.311  -0.302  1.00  0.00     0.030 A 
BRANCH  25  28
HETATM   28  C   UNL     1      37.952 -13.642  -3.344  1.00  0.00     0.109 A 
HETATM   29  N   UNL     1      37.788 -12.350  -3.558  1.00  0.00    -0.240 NA
HETATM   30  C   UNL     1      36.712 -12.125  -4.395  1.00  0.00     0.075 A 
HETATM   31  C   UNL     1      36.044 -13.268  -4.826  1.00  0.00     0.036 A 
HETATM   32  C   UNL     1      36.259 -10.866  -4.832  1.00  0.00     0.033 A 
HETATM   33  C   UNL     1      34.935 -13.200  -5.687  1.00  0.00     0.028 A 
HETATM   34  S   UNL     1      36.808 -14.650  -4.141  1.00  0.00    -0.067 SA
HETATM   35  C   UNL     1      34.496 -11.938  -6.121  1.00  0.00    -0.061 A 
HETATM   36  C   UNL     1      33.318 -11.815  -7.046  1.00  0.00     0.048 C 
HETATM   37  C   UNL     1      35.156 -10.784  -5.691  1.00  0.00     0.009 A 
ENDBRANCH  25  28
ENDBRANCH   1  22
TORSDOF 7
ENDMDL
MODEL 8
REMARK VINA RESULT:      -8.1      7.315     10.328
REMARK  7 active torsions:
REMARK  status: ('A' for Active; 'I' for Inactive)
REMARK    1  A    between atoms: C_7  and  C_8 
REMARK    2  A    between atoms: C_11  and  N_12 
REMARK       I    between atoms: N_12  and  C_13 
REMARK    3  A    between atoms: C_13  and  C_14 
REMARK    4  A    between atoms: C_14  and  N_15 
REMARK    5  A    between atoms: N_15  and  C_16 
REMARK    6  A    between atoms: C_17  and  O_18 
REMARK    7  A    between atoms: C_22  and  N_23 
REMARK       I    between atoms: N_23  and  C_24 
ROOT
HETATM    1  N   UNL     1      41.943 -15.975   0.061  1.00  0.00    -0.326 N 
HETATM    2  C   UNL     1      41.765 -17.020   0.946  1.00  0.00     0.239 C 
HETATM    3  O   UNL     1      40.773 -17.747   0.993  1.00  0.00    -0.271 OA
HETATM    4  H   UNL     1      42.873 -15.594   0.026  1.00  0.00     0.169 HD
ENDROOT
BRANCH   2   5
HETATM    5  C   UNL     1      42.925 -17.188   1.966  1.00  0.00     0.148 C 
HETATM    6  C   UNL     1      44.271 -17.438   1.295  1.00  0.00     0.036 C 
BRANCH   5   7
HETATM    7  N   UNL     1      42.663 -18.122   3.090  1.00  0.00    -0.278 NA
HETATM    8  H   UNL     1      43.449 -18.783   3.154  1.00  0.00     0.128 HD
BRANCH   7   9
HETATM    9  C   UNL     1      42.387 -17.718   4.405  1.00  0.00     0.044 C 
HETATM   10  C   UNL     1      43.078 -18.342   5.467  1.00  0.00     0.089 C 
HETATM   11  C   UNL     1      42.890 -17.914   6.781  1.00  0.00     0.041 C 
HETATM   12  C   UNL     1      41.998 -16.875   7.058  1.00  0.00     0.032 C 
HETATM   13  C   UNL     1      41.256 -16.288   6.036  1.00  0.00     0.036 C 
HETATM   14  C   UNL     1      41.417 -16.759   4.724  1.00  0.00     0.055 C 
BRANCH  10  15
HETATM   15  O   UNL     1      43.961 -19.332   5.096  1.00  0.00    -0.354 OA
HETATM   16  C   UNL     1      44.180 -20.350   6.067  1.00  0.00     0.210 C 
ENDBRANCH  10  15
BRANCH  13  17
HETATM   17  N   UNL     1      40.377 -15.200   6.227  1.00  0.00    -0.327 N 
HETATM   18  C   UNL     1      40.601 -13.875   5.890  1.00  0.00     0.218 C 
HETATM   19  C   UNL     1      39.382 -13.014   6.106  1.00  0.00     0.117 C 
HETATM   20  O   UNL     1      41.623 -13.401   5.408  1.00  0.00    -0.274 OA
HETATM   21  H   UNL     1      39.461 -15.424   6.594  1.00  0.00     0.169 HD
ENDBRANCH  13  17
ENDBRANCH   7   9
ENDBRANCH   5   7
ENDBRANCH   2   5
BRANCH   1  22
HETATM   22  C   UNL     1      41.041 -15.419  -0.857  1.00  0.00     0.034 A 
HETATM   23  C   UNL     1      40.954 -15.778  -2.200  1.00  0.00     0.030 A 
HETATM   24  C   UNL     1      39.969 -15.208  -3.025  1.00  0.00     0.016 A 
HETATM   25  C   UNL     1      39.055 -14.268  -2.525  1.00  0.00    -0.000 A 
HETATM   26  C   UNL     1      39.166 -13.909  -1.173  1.00  0.00     0.016 A 
HETATM   27  C   UNL     1      40.143 -14.473  -0.353  1.00  0.00     0.030 A 
BRANCH  25  28
HETATM   28  C   UNL     1      37.975 -13.650  -3.323  1.00  0.00     0.109 A 
HETATM   29  N   UNL     1      37.833 -12.344  -3.448  1.00  0.00    -0.240 NA
HETATM   30  C   UNL     1      36.763 -12.044  -4.269  1.00  0.00     0.075 A 
HETATM   31  C   UNL     1      36.078 -13.144  -4.779  1.00  0.00     0.036 A 
HETATM   32  C   UNL     1      36.333 -10.750  -4.621  1.00  0.00     0.033 A 
HETATM   33  C   UNL     1      34.973 -12.998  -5.636  1.00  0.00     0.028 A 
HETATM   34  S   UNL     1      36.818 -14.582  -4.189  1.00  0.00    -0.067 SA
HETATM   35  C   UNL     1      34.557 -11.702  -5.982  1.00  0.00    -0.061 A 
HETATM   36  C   UNL     1      33.383 -11.496  -6.899  1.00  0.00     0.048 C 
HETATM   37  C   UNL     1      35.234 -10.592  -5.473  1.00  0.00     0.009 A 
ENDBRANCH  25  28
ENDBRANCH   1  22
TORSDOF 7
ENDMDL
MODEL 9
REMARK VINA RESULT:      -8.0      4.993     10.560
REMARK  7 active torsions:
REMARK  status: ('A' for Active; 'I' for Inactive)
REMARK    1  A    between atoms: C_7  and  C_8 
REMARK    2  A    between atoms: C_11  and  N_12 
REMARK       I    between atoms: N_12  and  C_13 
REMARK    3  A    between atoms: C_13  and  C_14 
REMARK    4  A    between atoms: C_14  and  N_15 
REMARK    5  A    between atoms: N_15  and  C_16 
REMARK    6  A    between atoms: C_17  and  O_18 
REMARK    7  A    between atoms: C_22  and  N_23 
REMARK       I    between atoms: N_23  and  C_24 
ROOT
HETATM    1  N   UNL     1      41.323 -10.096   3.660  1.00  0.00    -0.326 N 
HETATM    2  C   UNL     1      40.526 -10.746   2.739  1.00  0.00     0.239 C 
HETATM    3  O   UNL     1      39.580 -11.482   3.016  1.00  0.00    -0.271 OA
HETATM    4  H   UNL     1      41.935  -9.393   3.280  1.00  0.00     0.169 HD
ENDROOT
BRANCH   2   5
HETATM    5  C   UNL     1      40.960 -10.528   1.263  1.00  0.00     0.148 C 
HETATM    6  C   UNL     1      39.777 -10.391   0.313  1.00  0.00     0.036 C 
BRANCH   5   7
HETATM    7  N   UNL     1      42.000 -11.459   0.754  1.00  0.00    -0.278 NA
HETATM    8  H   UNL     1      42.829 -11.383   1.357  1.00  0.00     0.128 HD
BRANCH   7   9
HETATM    9  C   UNL     1      41.796 -12.831   0.543  1.00  0.00     0.044 C 
HETATM   10  C   UNL     1      42.322 -13.748   1.480  1.00  0.00     0.089 C 
HETATM   11  C   UNL     1      42.074 -15.113   1.348  1.00  0.00     0.041 C 
HETATM   12  C   UNL     1      41.317 -15.588   0.273  1.00  0.00     0.032 C 
HETATM   13  C   UNL     1      40.843 -14.711  -0.699  1.00  0.00     0.036 C 
HETATM   14  C   UNL     1      41.140 -13.344  -0.583  1.00  0.00     0.055 C 
BRANCH  10  15
HETATM   15  O   UNL     1      43.025 -13.188   2.523  1.00  0.00    -0.354 OA
HETATM   16  C   UNL     1      43.065 -13.961   3.718  1.00  0.00     0.210 C 
ENDBRANCH  10  15
BRANCH  13  17
HETATM   17  N   UNL     1      40.028 -15.104  -1.783  1.00  0.00    -0.327 N 
HETATM   18  C   UNL     1      40.445 -15.468  -3.053  1.00  0.00     0.218 C 
HETATM   19  C   UNL     1      39.309 -15.969  -3.909  1.00  0.00     0.117 C 
HETATM   20  O   UNL     1      41.594 -15.469  -3.478  1.00  0.00    -0.274 OA
HETATM   21  H   UNL     1      39.038 -15.185  -1.593  1.00  0.00     0.169 HD
ENDBRANCH  13  17
ENDBRANCH   7   9
ENDBRANCH   5   7
ENDBRANCH   2   5
BRANCH   1  22
HETATM   22  C   UNL     1      41.348 -10.209   5.058  1.00  0.00     0.034 A 
HETATM   23  C   UNL     1      41.499 -11.406   5.753  1.00  0.00     0.030 A 
HETATM   24  C   UNL     1      41.579 -11.407   7.156  1.00  0.00     0.016 A 
HETATM   25  C   UNL     1      41.507 -10.213   7.891  1.00  0.00    -0.000 A 
HETATM   26  C   UNL     1      41.341  -9.018   7.174  1.00  0.00     0.016 A 
HETATM   27  C   UNL     1      41.262  -9.015   5.780  1.00  0.00     0.030 A 
BRANCH  25  28
HETATM   28  C   UNL     1      41.613 -10.131   9.362  1.00  0.00     0.109 A 
HETATM   29  N   UNL     1      42.768 -10.073   9.997  1.00  0.00    -0.240 NA
HETATM   30  C   UNL     1      42.574  -9.975  11.361  1.00  0.00     0.075 A 
HETATM   31  C   UNL     1      41.244  -9.958  11.773  1.00  0.00     0.036 A 
HETATM   32  C   UNL     1      43.589  -9.888  12.333  1.00  0.00     0.033 A 
HETATM   33  C   UNL     1      40.888  -9.854  13.129  1.00  0.00     0.028 A 
HETATM   34  S   UNL     1      40.231 -10.076  10.386  1.00  0.00    -0.067 SA
HETATM   35  C   UNL     1      41.910  -9.764  14.088  1.00  0.00    -0.061 A 
HETATM   36  C   UNL     1      41.578  -9.646  15.549  1.00  0.00     0.048 C 
HETATM   37  C   UNL     1      43.248  -9.783  13.686  1.00  0.00     0.009 A 
ENDBRANCH  25  28
ENDBRANCH   1  22
TORSDOF 7
ENDMDL
MODEL 10
REMARK VINA RESULT:      -8.0      6.881      9.952
REMARK  7 active torsions:
REMARK  status: ('A' for Active; 'I' for Inactive)
REMARK    1  A    between atoms: C_7  and  C_8 
REMARK    2  A    between atoms: C_11  and  N_12 
REMARK       I    between atoms: N_12  and  C_13 
REMARK    3  A    between atoms: C_13  and  C_14 
REMARK    4  A    between atoms: C_14  and  N_15 
REMARK    5  A    between atoms: N_15  and  C_16 
REMARK    6  A    between atoms: C_17  and  O_18 
REMARK    7  A    between atoms: C_22  and  N_23 
REMARK       I    between atoms: N_23  and  C_24 
ROOT
HETATM    1  N   UNL     1      40.108 -15.509   2.599  1.00  0.00    -0.326 N 
HETATM    2  C   UNL     1      40.441 -14.899   3.793  1.00  0.00     0.239 C 
HETATM    3  O   UNL     1      40.293 -13.704   4.043  1.00  0.00    -0.271 OA
HETATM    4  H   UNL     1      40.118 -16.515   2.612  1.00  0.00     0.169 HD
ENDROOT
BRANCH   2   5
HETATM    5  C   UNL     1      41.102 -15.854   4.825  1.00  0.00     0.148 C 
HETATM    6  C   UNL     1      40.557 -15.667   6.237  1.00  0.00     0.036 C 
BRANCH   5   7
HETATM    7  N   UNL     1      42.585 -15.915   4.787  1.00  0.00    -0.278 NA
HETATM    8  H   UNL     1      42.955 -15.309   5.531  1.00  0.00     0.128 HD
BRANCH   7   9
HETATM    9  C   UNL     1      43.329 -17.104   4.847  1.00  0.00     0.044 C 
HETATM   10  C   UNL     1      43.963 -17.448   6.062  1.00  0.00     0.089 C 
HETATM   11  C   UNL     1      44.644 -18.658   6.184  1.00  0.00     0.041 C 
HETATM   12  C   UNL     1      44.721 -19.533   5.097  1.00  0.00     0.032 C 
HETATM   13  C   UNL     1      44.160 -19.186   3.870  1.00  0.00     0.036 C 
HETATM   14  C   UNL     1      43.519 -17.944   3.743  1.00  0.00     0.055 C 
BRANCH  10  15
HETATM   15  O   UNL     1      43.805 -16.543   7.088  1.00  0.00    -0.354 OA
HETATM   16  C   UNL     1      43.430 -17.102   8.343  1.00  0.00     0.210 C 
ENDBRANCH  10  15
BRANCH  13  17
HETATM   17  N   UNL     1      44.149 -20.035   2.741  1.00  0.00    -0.327 N 
HETATM   18  C   UNL     1      44.364 -21.404   2.723  1.00  0.00     0.218 C 
HETATM   19  C   UNL     1      44.131 -22.003   1.359  1.00  0.00     0.117 C 
HETATM   20  O   UNL     1      44.650 -22.117   3.678  1.00  0.00    -0.274 OA
HETATM   21  H   UNL     1      43.898 -19.606   1.861  1.00  0.00     0.169 HD
ENDBRANCH  13  17
ENDBRANCH   7   9
ENDBRANCH   5   7
ENDBRANCH   2   5
BRANCH   1  22
HETATM   22  C   UNL     1      39.675 -14.936   1.394  1.00  0.00     0.034 A 
HETATM   23  C   UNL     1      40.453 -14.831   0.243  1.00  0.00     0.030 A 
HETATM   24  C   UNL     1      39.906 -14.300  -0.937  1.00  0.00     0.016 A 
HETATM   25  C   UNL     1      38.573 -13.863  -0.989  1.00  0.00    -0.000 A 
HETATM   26  C   UNL     1      37.809 -13.965   0.183  1.00  0.00     0.016 A 
HETATM   27  C   UNL     1      38.351 -14.491   1.356  1.00  0.00     0.030 A 
BRANCH  25  28
HETATM   28  C   UNL     1      37.920 -13.323  -2.200  1.00  0.00     0.109 A 
HETATM   29  N   UNL     1      37.252 -14.076  -3.053  1.00  0.00    -0.240 NA
HETATM   30  C   UNL     1      36.723 -13.311  -4.074  1.00  0.00     0.075 A 
HETATM   31  C   UNL     1      36.994 -11.947  -3.996  1.00  0.00     0.036 A 
HETATM   32  C   UNL     1      35.952 -13.792  -5.149  1.00  0.00     0.033 A 
HETATM   33  C   UNL     1      36.516 -11.040  -4.958  1.00  0.00     0.028 A 
HETATM   34  S   UNL     1      37.945 -11.648  -2.594  1.00  0.00    -0.067 SA
HETATM   35  C   UNL     1      35.744 -11.532  -6.023  1.00  0.00    -0.061 A 
HETATM   36  C   UNL     1      35.208 -10.600  -7.073  1.00  0.00     0.048 C 
HETATM   37  C   UNL     1      35.470 -12.899  -6.113  1.00  0.00     0.009 A 
ENDBRANCH  25  28
ENDBRANCH   1  22
TORSDOF 7
ENDMDL
