MODEL 1
REMARK VINA RESULT:      -8.8      0.000      0.000
REMARK  6 active torsions:
REMARK  status: ('A' for Active; 'I' for Inactive)
REMARK    1  A    between atoms: C_4  and  C_5 
REMARK    2  A    between atoms: C_9  and  C_10 
REMARK       I    between atoms: C_10  and  N_11 
REMARK    3  A    between atoms: N_11  and  C_12 
REMARK    4  A    between atoms: C_12  and  C_13 
REMARK    5  A    between atoms: C_13  and  N_14 
REMARK    6  A    between atoms: C_13  and  C_18 
ROOT
HETATM    1  C   UNL     1      43.576 -17.964   4.818  1.00  0.00     0.092 A 
HETATM    2  N   UNL     1      44.194 -19.162   4.830  1.00  0.00    -0.246 NA
HETATM    3  C   UNL     1      44.104 -19.958   3.756  1.00  0.00     0.069 A 
HETATM    4  C   UNL     1      43.396 -19.610   2.584  1.00  0.00     0.008 A 
HETATM    5  C   UNL     1      42.810 -18.316   2.577  1.00  0.00     0.046 A 
HETATM    6  C   UNL     1      42.892 -17.502   3.712  1.00  0.00     0.052 A 
HETATM    7  C   UNL     1      44.734 -21.193   3.833  1.00  0.00     0.032 A 
HETATM    8  C   UNL     1      44.673 -22.121   2.794  1.00  0.00     0.002 A 
HETATM    9  C   UNL     1      43.950 -21.819   1.653  1.00  0.00     0.001 A 
HETATM   10  C   UNL     1      43.311 -20.584   1.552  1.00  0.00     0.015 A 
ENDROOT
BRANCH   5  11
HETATM   11  C   UNL     1      42.055 -17.701   1.447  1.00  0.00     0.252 C 
HETATM   12  N   UNL     1      42.651 -16.691   0.719  1.00  0.00    -0.355 N 
HETATM   13  H   UNL     1      43.480 -16.285   1.147  1.00  0.00     0.162 HD
HETATM   14  O   UNL     1      40.902 -18.055   1.228  1.00  0.00    -0.268 OA
BRANCH  12  15
HETATM   15  C   UNL     1      41.872 -15.770  -0.109  1.00  0.00     0.161 C 
BRANCH  15  16
HETATM   16  C   UNL     1      41.099 -14.545   0.509  1.00  0.00     0.237 C 
BRANCH  16  17
HETATM   17  N   UNL     1      41.131 -13.238  -0.277  1.00  0.00    -0.069 N 
HETATM   18  H   UNL     1      41.576 -12.578   0.370  1.00  0.00     0.279 HD
HETATM   19  C   UNL     1      42.043 -13.210  -1.473  1.00  0.00     0.270 C 
HETATM   20  C   UNL     1      39.780 -12.635  -0.535  1.00  0.00     0.270 C 
ENDBRANCH  16  17
BRANCH  16  21
HETATM   21  C   UNL     1      41.268 -14.294   2.000  1.00  0.00    -0.026 A 
HETATM   22  C   UNL     1      42.442 -13.666   2.462  1.00  0.00     0.009 A 
HETATM   23  C   UNL     1      42.669 -13.480   3.827  1.00  0.00     0.001 A 
HETATM   24  C   UNL     1      41.732 -13.921   4.754  1.00  0.00     0.000 A 
HETATM   25  C   UNL     1      40.568 -14.548   4.320  1.00  0.00     0.001 A 
HETATM   26  C   UNL     1      40.340 -14.737   2.954  1.00  0.00     0.009 A 
ENDBRANCH  16  21
ENDBRANCH  15  16
ENDBRANCH  12  15
ENDBRANCH   5  11
BRANCH   1  27
HETATM   27  C   UNL     1      43.658 -17.210   6.061  1.00  0.00     0.104 A 
HETATM   28  O   UNL     1      44.187 -15.950   5.981  1.00  0.00    -0.313 OA
HETATM   29  C   UNL     1      44.147 -15.413   7.232  1.00  0.00     0.050 A 
HETATM   30  C   UNL     1      44.662 -14.036   7.379  1.00  0.00     0.076 C 
HETATM   31  C   UNL     1      43.601 -16.315   8.118  1.00  0.00     0.035 A 
HETATM   32  C   UNL     1      43.288 -17.472   7.365  1.00  0.00     0.042 A 
ENDBRANCH   1  27
TORSDOF 6
ENDMDL
MODEL 2
REMARK VINA RESULT:      -8.6      2.304      4.437
REMARK  6 active torsions:
REMARK  status: ('A' for Active; 'I' for Inactive)
REMARK    1  A    between atoms: C_4  and  C_5 
REMARK    2  A    between atoms: C_9  and  C_10 
REMARK       I    between atoms: C_10  and  N_11 
REMARK    3  A    between atoms: N_11  and  C_12 
REMARK    4  A    between atoms: C_12  and  C_13 
REMARK    5  A    between atoms: C_13  and  N_14 
REMARK    6  A    between atoms: C_13  and  C_18 
ROOT
HETATM    1  C   UNL     1      44.488 -14.076   7.105  1.00  0.00     0.092 A 
HETATM    2  N   UNL     1      44.594 -15.371   7.465  1.00  0.00    -0.246 NA
HETATM    3  C   UNL     1      44.025 -16.314   6.702  1.00  0.00     0.069 A 
HETATM    4  C   UNL     1      43.315 -16.031   5.513  1.00  0.00     0.008 A 
HETATM    5  C   UNL     1      43.275 -14.665   5.127  1.00  0.00     0.046 A 
HETATM    6  C   UNL     1      43.854 -13.687   5.943  1.00  0.00     0.052 A 
HETATM    7  C   UNL     1      44.140 -17.629   7.133  1.00  0.00     0.032 A 
HETATM    8  C   UNL     1      43.553 -18.688   6.443  1.00  0.00     0.002 A 
HETATM    9  C   UNL     1      42.816 -18.431   5.299  1.00  0.00     0.001 A 
HETATM   10  C   UNL     1      42.689 -17.119   4.844  1.00  0.00     0.015 A 
ENDROOT
BRANCH   5  11
HETATM   11  C   UNL     1      42.631 -14.119   3.896  1.00  0.00     0.252 C 
HETATM   12  N   UNL     1      41.327 -14.473   3.613  1.00  0.00    -0.355 N 
HETATM   13  H   UNL     1      40.971 -15.261   4.149  1.00  0.00     0.162 HD
HETATM   14  O   UNL     1      43.288 -13.422   3.131  1.00  0.00    -0.268 OA
BRANCH  12  15
HETATM   15  C   UNL     1      40.762 -14.335   2.271  1.00  0.00     0.161 C 
BRANCH  15  16
HETATM   16  C   UNL     1      41.344 -15.123   1.037  1.00  0.00     0.237 C 
BRANCH  16  17
HETATM   17  N   UNL     1      40.452 -15.236  -0.195  1.00  0.00    -0.069 N 
HETATM   18  H   UNL     1      39.924 -16.101  -0.032  1.00  0.00     0.279 HD
HETATM   19  C   UNL     1      39.372 -14.198  -0.325  1.00  0.00     0.270 C 
HETATM   20  C   UNL     1      41.191 -15.500  -1.475  1.00  0.00     0.270 C 
ENDBRANCH  16  17
BRANCH  16  21
HETATM   21  C   UNL     1      42.058 -16.436   1.322  1.00  0.00    -0.026 A 
HETATM   22  C   UNL     1      43.467 -16.462   1.332  1.00  0.00     0.009 A 
HETATM   23  C   UNL     1      44.163 -17.658   1.519  1.00  0.00     0.001 A 
HETATM   24  C   UNL     1      43.465 -18.848   1.694  1.00  0.00     0.000 A 
HETATM   25  C   UNL     1      42.074 -18.845   1.682  1.00  0.00     0.001 A 
HETATM   26  C   UNL     1      41.376 -17.649   1.493  1.00  0.00     0.009 A 
ENDBRANCH  16  21
ENDBRANCH  15  16
ENDBRANCH  12  15
ENDBRANCH   5  11
BRANCH   1  27
HETATM   27  C   UNL     1      45.062 -13.122   8.043  1.00  0.00     0.104 A 
HETATM   28  O   UNL     1      44.369 -12.907   9.204  1.00  0.00    -0.313 OA
HETATM   29  C   UNL     1      45.082 -12.015   9.945  1.00  0.00     0.050 A 
HETATM   30  C   UNL     1      44.519 -11.645  11.259  1.00  0.00     0.076 C 
HETATM   31  C   UNL     1      46.227 -11.649   9.272  1.00  0.00     0.035 A 
HETATM   32  C   UNL     1      46.213 -12.359   8.048  1.00  0.00     0.042 A 
ENDBRANCH   1  27
TORSDOF 6
ENDMDL
MODEL 3
REMARK VINA RESULT:      -8.2      1.048      1.391
REMARK  6 active torsions:
REMARK  status: ('A' for Active; 'I' for Inactive)
REMARK    1  A    between atoms: C_4  and  C_5 
REMARK    2  A    between atoms: C_9  and  C_10 
REMARK       I    between atoms: C_10  and  N_11 
REMARK    3  A    between atoms: N_11  and  C_12 
REMARK    4  A    between atoms: C_12  and  C_13 
REMARK    5  A    between atoms: C_13  and  N_14 
REMARK    6  A    between atoms: C_13  and  C_18 
ROOT
HETATM    1  C   UNL     1      43.658 -17.404   4.376  1.00  0.00     0.092 A 
HETATM    2  N   UNL     1      44.270 -18.598   4.516  1.00  0.00    -0.246 NA
HETATM    3  C   UNL     1      44.082 -19.545   3.588  1.00  0.00     0.069 A 
HETATM    4  C   UNL     1      43.273 -19.365   2.442  1.00  0.00     0.008 A 
HETATM    5  C   UNL     1      42.693 -18.077   2.291  1.00  0.00     0.046 A 
HETATM    6  C   UNL     1      42.880 -17.103   3.278  1.00  0.00     0.052 A 
HETATM    7  C   UNL     1      44.712 -20.765   3.795  1.00  0.00     0.032 A 
HETATM    8  C   UNL     1      44.554 -21.837   2.919  1.00  0.00     0.002 A 
HETATM    9  C   UNL     1      43.733 -21.699   1.813  1.00  0.00     0.001 A 
HETATM   10  C   UNL     1      43.092 -20.482   1.582  1.00  0.00     0.015 A 
ENDROOT
BRANCH   5  11
HETATM   11  C   UNL     1      41.843 -17.626   1.151  1.00  0.00     0.252 C 
HETATM   12  N   UNL     1      42.302 -16.610   0.338  1.00  0.00    -0.355 N 
HETATM   13  H   UNL     1      43.093 -16.088   0.709  1.00  0.00     0.162 HD
HETATM   14  O   UNL     1      40.731 -18.119   0.997  1.00  0.00    -0.268 OA
BRANCH  12  15
HETATM   15  C   UNL     1      41.403 -15.838  -0.520  1.00  0.00     0.161 C 
BRANCH  15  16
HETATM   16  C   UNL     1      40.285 -14.901   0.075  1.00  0.00     0.237 C 
BRANCH  16  17
HETATM   17  N   UNL     1      39.676 -13.866  -0.866  1.00  0.00    -0.069 N 
HETATM   18  H   UNL     1      40.079 -12.979  -0.543  1.00  0.00     0.279 HD
HETATM   19  C   UNL     1      40.120 -13.939  -2.301  1.00  0.00     0.270 C 
HETATM   20  C   UNL     1      38.197 -13.672  -0.702  1.00  0.00     0.270 C 
ENDBRANCH  16  17
BRANCH  16  21
HETATM   21  C   UNL     1      40.532 -14.311   1.456  1.00  0.00    -0.026 A 
HETATM   22  C   UNL     1      39.851 -14.853   2.565  1.00  0.00     0.009 A 
HETATM   23  C   UNL     1      39.993 -14.297   3.838  1.00  0.00     0.001 A 
HETATM   24  C   UNL     1      40.814 -13.190   4.026  1.00  0.00     0.000 A 
HETATM   25  C   UNL     1      41.491 -12.638   2.943  1.00  0.00     0.001 A 
HETATM   26  C   UNL     1      41.348 -13.191   1.668  1.00  0.00     0.009 A 
ENDBRANCH  16  21
ENDBRANCH  15  16
ENDBRANCH  12  15
ENDBRANCH   5  11
BRANCH   1  27
HETATM   27  C   UNL     1      43.853 -16.473   5.478  1.00  0.00     0.104 A 
HETATM   28  O   UNL     1      43.410 -15.192   5.287  1.00  0.00    -0.313 OA
HETATM   29  C   UNL     1      43.658 -14.500   6.433  1.00  0.00     0.050 A 
HETATM   30  C   UNL     1      43.243 -13.082   6.454  1.00  0.00     0.076 C 
HETATM   31  C   UNL     1      44.262 -15.320   7.361  1.00  0.00     0.035 A 
HETATM   32  C   UNL     1      44.389 -16.589   6.745  1.00  0.00     0.042 A 
ENDBRANCH   1  27
TORSDOF 6
ENDMDL
MODEL 4
REMARK VINA RESULT:      -8.2      1.038      3.193
REMARK  6 active torsions:
REMARK  status: ('A' for Active; 'I' for Inactive)
REMARK    1  A    between atoms: C_4  and  C_5 
REMARK    2  A    between atoms: C_9  and  C_10 
REMARK       I    between atoms: C_10  and  N_11 
REMARK    3  A    between atoms: N_11  and  C_12 
REMARK    4  A    between atoms: C_12  and  C_13 
REMARK    5  A    between atoms: C_13  and  N_14 
REMARK    6  A    between atoms: C_13  and  C_18 
ROOT
HETATM    1  C   UNL     1      43.565 -17.861   4.721  1.00  0.00     0.092 A 
HETATM    2  N   UNL     1      44.206 -19.048   4.733  1.00  0.00    -0.246 NA
HETATM    3  C   UNL     1      44.092 -19.867   3.680  1.00  0.00     0.069 A 
HETATM    4  C   UNL     1      43.335 -19.555   2.528  1.00  0.00     0.008 A 
HETATM    5  C   UNL     1      42.723 -18.273   2.518  1.00  0.00     0.046 A 
HETATM    6  C   UNL     1      42.832 -17.435   3.633  1.00  0.00     0.052 A 
HETATM    7  C   UNL     1      44.748 -21.088   3.757  1.00  0.00     0.032 A 
HETATM    8  C   UNL     1      44.666 -22.038   2.740  1.00  0.00     0.002 A 
HETATM    9  C   UNL     1      43.896 -21.773   1.621  1.00  0.00     0.001 A 
HETATM   10  C   UNL     1      43.230 -20.552   1.519  1.00  0.00     0.015 A 
ENDROOT
BRANCH   5  11
HETATM   11  C   UNL     1      41.915 -17.695   1.405  1.00  0.00     0.252 C 
HETATM   12  N   UNL     1      42.473 -16.705   0.621  1.00  0.00    -0.355 N 
HETATM   13  H   UNL     1      43.318 -16.284   0.999  1.00  0.00     0.162 HD
HETATM   14  O   UNL     1      40.755 -18.060   1.249  1.00  0.00    -0.268 OA
BRANCH  12  15
HETATM   15  C   UNL     1      41.653 -15.812  -0.198  1.00  0.00     0.161 C 
BRANCH  15  16
HETATM   16  C   UNL     1      41.808 -14.246  -0.133  1.00  0.00     0.237 C 
BRANCH  16  17
HETATM   17  N   UNL     1      41.121 -13.530   1.026  1.00  0.00    -0.069 N 
HETATM   18  H   UNL     1      40.664 -12.728   0.577  1.00  0.00     0.279 HD
HETATM   19  C   UNL     1      39.973 -14.262   1.664  1.00  0.00     0.270 C 
HETATM   20  C   UNL     1      42.061 -12.905   2.015  1.00  0.00     0.270 C 
ENDBRANCH  16  17
BRANCH  16  21
HETATM   21  C   UNL     1      41.641 -13.474  -1.434  1.00  0.00    -0.026 A 
HETATM   22  C   UNL     1      40.417 -13.557  -2.129  1.00  0.00     0.009 A 
HETATM   23  C   UNL     1      40.245 -12.922  -3.360  1.00  0.00     0.001 A 
HETATM   24  C   UNL     1      41.291 -12.197  -3.921  1.00  0.00     0.000 A 
HETATM   25  C   UNL     1      42.509 -12.107  -3.253  1.00  0.00     0.001 A 
HETATM   26  C   UNL     1      42.683 -12.744  -2.022  1.00  0.00     0.009 A 
ENDBRANCH  16  21
ENDBRANCH  15  16
ENDBRANCH  12  15
ENDBRANCH   5  11
BRANCH   1  27
HETATM   27  C   UNL     1      43.679 -17.081   5.945  1.00  0.00     0.104 A 
HETATM   28  O   UNL     1      44.122 -15.793   5.814  1.00  0.00    -0.313 OA
HETATM   29  C   UNL     1      44.128 -15.236   7.057  1.00  0.00     0.050 A 
HETATM   30  C   UNL     1      44.564 -13.828   7.150  1.00  0.00     0.076 C 
HETATM   31  C   UNL     1      43.697 -16.154   7.989  1.00  0.00     0.035 A 
HETATM   32  C   UNL     1      43.410 -17.342   7.274  1.00  0.00     0.042 A 
ENDBRANCH   1  27
TORSDOF 6
ENDMDL
MODEL 5
REMARK VINA RESULT:      -8.1      2.210      5.489
REMARK  6 active torsions:
REMARK  status: ('A' for Active; 'I' for Inactive)
REMARK    1  A    between atoms: C_4  and  C_5 
REMARK    2  A    between atoms: C_9  and  C_10 
REMARK       I    between atoms: C_10  and  N_11 
REMARK    3  A    between atoms: N_11  and  C_12 
REMARK    4  A    between atoms: C_12  and  C_13 
REMARK    5  A    between atoms: C_13  and  N_14 
REMARK    6  A    between atoms: C_13  and  C_18 
ROOT
HETATM    1  C   UNL     1      43.460 -18.258   3.889  1.00  0.00     0.092 A 
HETATM    2  N   UNL     1      43.991 -17.706   4.999  1.00  0.00    -0.246 NA
HETATM    3  C   UNL     1      43.683 -16.441   5.314  1.00  0.00     0.069 A 
HETATM    4  C   UNL     1      42.811 -15.636   4.548  1.00  0.00     0.008 A 
HETATM    5  C   UNL     1      42.219 -16.265   3.421  1.00  0.00     0.046 A 
HETATM    6  C   UNL     1      42.564 -17.581   3.089  1.00  0.00     0.052 A 
HETATM    7  C   UNL     1      44.281 -15.912   6.451  1.00  0.00     0.032 A 
HETATM    8  C   UNL     1      44.068 -14.594   6.853  1.00  0.00     0.002 A 
HETATM    9  C   UNL     1      43.252 -13.774   6.094  1.00  0.00     0.001 A 
HETATM   10  C   UNL     1      42.638 -14.283   4.950  1.00  0.00     0.015 A 
ENDROOT
BRANCH   5  11
HETATM   11  C   UNL     1      41.234 -15.646   2.486  1.00  0.00     0.252 C 
HETATM   12  N   UNL     1      41.643 -15.318   1.209  1.00  0.00    -0.355 N 
HETATM   13  H   UNL     1      42.651 -15.319   1.068  1.00  0.00     0.162 HD
HETATM   14  O   UNL     1      40.106 -15.381   2.887  1.00  0.00    -0.268 OA
BRANCH  12  15
HETATM   15  C   UNL     1      40.906 -14.363   0.381  1.00  0.00     0.161 C 
BRANCH  15  16
HETATM   16  C   UNL     1      41.228 -14.165  -1.148  1.00  0.00     0.237 C 
BRANCH  16  17
HETATM   17  N   UNL     1      41.810 -12.818  -1.564  1.00  0.00    -0.069 N 
HETATM   18  H   UNL     1      41.009 -12.324  -1.973  1.00  0.00     0.279 HD
HETATM   19  C   UNL     1      42.233 -11.908  -0.443  1.00  0.00     0.270 C 
HETATM   20  C   UNL     1      42.803 -12.890  -2.688  1.00  0.00     0.270 C 
ENDBRANCH  16  17
BRANCH  16  21
HETATM   21  C   UNL     1      40.187 -14.647  -2.148  1.00  0.00    -0.026 A 
HETATM   22  C   UNL     1      38.907 -14.058  -2.144  1.00  0.00     0.009 A 
HETATM   23  C   UNL     1      37.901 -14.517  -2.996  1.00  0.00     0.001 A 
HETATM   24  C   UNL     1      38.153 -15.574  -3.863  1.00  0.00     0.000 A 
HETATM   25  C   UNL     1      39.409 -16.172  -3.880  1.00  0.00     0.001 A 
HETATM   26  C   UNL     1      40.417 -15.716  -3.026  1.00  0.00     0.009 A 
ENDBRANCH  16  21
ENDBRANCH  15  16
ENDBRANCH  12  15
ENDBRANCH   5  11
BRANCH   1  27
HETATM   27  C   UNL     1      43.922 -19.605   3.583  1.00  0.00     0.104 A 
HETATM   28  O   UNL     1      44.367 -20.356   4.638  1.00  0.00    -0.313 OA
HETATM   29  C   UNL     1      44.721 -21.576   4.147  1.00  0.00     0.050 A 
HETATM   30  C   UNL     1      45.224 -22.563   5.125  1.00  0.00     0.076 C 
HETATM   31  C   UNL     1      44.512 -21.618   2.786  1.00  0.00     0.035 A 
HETATM   32  C   UNL     1      44.000 -20.349   2.423  1.00  0.00     0.042 A 
ENDBRANCH   1  27
TORSDOF 6
ENDMDL
MODEL 6
REMARK VINA RESULT:      -7.7      2.469      5.930
REMARK  6 active torsions:
REMARK  status: ('A' for Active; 'I' for Inactive)
REMARK    1  A    between atoms: C_4  and  C_5 
REMARK    2  A    between atoms: C_9  and  C_10 
REMARK       I    between atoms: C_10  and  N_11 
REMARK    3  A    between atoms: N_11  and  C_12 
REMARK    4  A    between atoms: C_12  and  C_13 
REMARK    5  A    between atoms: C_13  and  N_14 
REMARK    6  A    between atoms: C_13  and  C_18 
ROOT
HETATM    1  C   UNL     1      42.475 -17.601   2.946  1.00  0.00     0.092 A 
HETATM    2  N   UNL     1      41.964 -17.166   4.116  1.00  0.00    -0.246 NA
HETATM    3  C   UNL     1      41.263 -16.024   4.142  1.00  0.00     0.069 A 
HETATM    4  C   UNL     1      41.011 -15.237   2.996  1.00  0.00     0.008 A 
HETATM    5  C   UNL     1      41.508 -15.754   1.770  1.00  0.00     0.046 A 
HETATM    6  C   UNL     1      42.256 -16.936   1.758  1.00  0.00     0.052 A 
HETATM    7  C   UNL     1      40.785 -15.607   5.377  1.00  0.00     0.032 A 
HETATM    8  C   UNL     1      40.080 -14.414   5.533  1.00  0.00     0.002 A 
HETATM    9  C   UNL     1      39.858 -13.605   4.432  1.00  0.00     0.001 A 
HETATM   10  C   UNL     1      40.326 -14.005   3.181  1.00  0.00     0.015 A 
ENDROOT
BRANCH   5  11
HETATM   11  C   UNL     1      41.333 -15.136   0.423  1.00  0.00     0.252 C 
HETATM   12  N   UNL     1      40.635 -15.831  -0.544  1.00  0.00    -0.355 N 
HETATM   13  H   UNL     1      40.479 -16.815  -0.336  1.00  0.00     0.162 HD
HETATM   14  O   UNL     1      41.866 -14.059   0.180  1.00  0.00    -0.268 OA
BRANCH  12  15
HETATM   15  C   UNL     1      40.759 -15.515  -1.967  1.00  0.00     0.161 C 
BRANCH  15  16
HETATM   16  C   UNL     1      39.849 -14.433  -2.661  1.00  0.00     0.237 C 
BRANCH  16  17
HETATM   17  N   UNL     1      38.830 -14.936  -3.679  1.00  0.00    -0.069 N 
HETATM   18  H   UNL     1      38.961 -14.311  -4.482  1.00  0.00     0.279 HD
HETATM   19  C   UNL     1      39.096 -16.297  -4.261  1.00  0.00     0.270 C 
HETATM   20  C   UNL     1      37.398 -14.720  -3.283  1.00  0.00     0.270 C 
ENDBRANCH  16  17
BRANCH  16  21
HETATM   21  C   UNL     1      40.524 -13.158  -3.143  1.00  0.00    -0.026 A 
HETATM   22  C   UNL     1      41.931 -13.085  -3.146  1.00  0.00     0.009 A 
HETATM   23  C   UNL     1      42.591 -11.911  -3.513  1.00  0.00     0.001 A 
HETATM   24  C   UNL     1      41.858 -10.788  -3.880  1.00  0.00     0.000 A 
HETATM   25  C   UNL     1      40.467 -10.837  -3.880  1.00  0.00     0.001 A 
HETATM   26  C   UNL     1      39.805 -12.011  -3.510  1.00  0.00     0.009 A 
ENDBRANCH  16  21
ENDBRANCH  15  16
ENDBRANCH  12  15
ENDBRANCH   5  11
BRANCH   1  27
HETATM   27  C   UNL     1      43.293 -18.802   3.034  1.00  0.00     0.104 A 
HETATM   28  O   UNL     1      43.106 -19.746   2.061  1.00  0.00    -0.313 OA
HETATM   29  C   UNL     1      43.978 -20.763   2.308  1.00  0.00     0.050 A 
HETATM   30  C   UNL     1      43.958 -21.897   1.361  1.00  0.00     0.076 C 
HETATM   31  C   UNL     1      44.723 -20.486   3.433  1.00  0.00     0.035 A 
HETATM   32  C   UNL     1      44.281 -19.225   3.901  1.00  0.00     0.042 A 
ENDBRANCH   1  27
TORSDOF 6
ENDMDL
MODEL 7
REMARK VINA RESULT:      -7.7      1.903      5.377
REMARK  6 active torsions:
REMARK  status: ('A' for Active; 'I' for Inactive)
REMARK    1  A    between atoms: C_4  and  C_5 
REMARK    2  A    between atoms: C_9  and  C_10 
REMARK       I    between atoms: C_10  and  N_11 
REMARK    3  A    between atoms: N_11  and  C_12 
REMARK    4  A    between atoms: C_12  and  C_13 
REMARK    5  A    between atoms: C_13  and  N_14 
REMARK    6  A    between atoms: C_13  and  C_18 
ROOT
HETATM    1  C   UNL     1      43.328 -18.474   3.249  1.00  0.00     0.092 A 
HETATM    2  N   UNL     1      43.665 -17.844   4.393  1.00  0.00    -0.246 NA
HETATM    3  C   UNL     1      43.327 -16.559   4.558  1.00  0.00     0.069 A 
HETATM    4  C   UNL     1      42.616 -15.808   3.595  1.00  0.00     0.008 A 
HETATM    5  C   UNL     1      42.220 -16.517   2.429  1.00  0.00     0.046 A 
HETATM    6  C   UNL     1      42.597 -17.854   2.258  1.00  0.00     0.052 A 
HETATM    7  C   UNL     1      43.724 -15.950   5.742  1.00  0.00     0.032 A 
HETATM    8  C   UNL     1      43.466 -14.606   6.005  1.00  0.00     0.002 A 
HETATM    9  C   UNL     1      42.808 -13.840   5.058  1.00  0.00     0.001 A 
HETATM   10  C   UNL     1      42.396 -14.430   3.863  1.00  0.00     0.015 A 
ENDROOT
BRANCH   5  11
HETATM   11  C   UNL     1      41.425 -15.964   1.293  1.00  0.00     0.252 C 
HETATM   12  N   UNL     1      42.086 -15.561   0.151  1.00  0.00    -0.355 N 
HETATM   13  H   UNL     1      43.094 -15.463   0.251  1.00  0.00     0.162 HD
HETATM   14  O   UNL     1      40.214 -15.819   1.420  1.00  0.00    -0.268 OA
BRANCH  12  15
HETATM   15  C   UNL     1      41.472 -14.654  -0.820  1.00  0.00     0.161 C 
BRANCH  15  16
HETATM   16  C   UNL     1      41.447 -13.095  -0.602  1.00  0.00     0.237 C 
BRANCH  16  17
HETATM   17  N   UNL     1      40.206 -12.509   0.065  1.00  0.00    -0.069 N 
HETATM   18  H   UNL     1      40.146 -11.562  -0.326  1.00  0.00     0.279 HD
HETATM   19  C   UNL     1      38.892 -13.124  -0.331  1.00  0.00     0.270 C 
HETATM   20  C   UNL     1      40.343 -12.281   1.542  1.00  0.00     0.270 C 
ENDBRANCH  16  17
BRANCH  16  21
HETATM   21  C   UNL     1      41.915 -12.221  -1.757  1.00  0.00    -0.026 A 
HETATM   22  C   UNL     1      42.531 -10.985  -1.476  1.00  0.00     0.009 A 
HETATM   23  C   UNL     1      42.911 -10.122  -2.505  1.00  0.00     0.001 A 
HETATM   24  C   UNL     1      42.681 -10.474  -3.830  1.00  0.00     0.000 A 
HETATM   25  C   UNL     1      42.069 -11.688  -4.128  1.00  0.00     0.001 A 
HETATM   26  C   UNL     1      41.686 -12.553  -3.100  1.00  0.00     0.009 A 
ENDBRANCH  16  21
ENDBRANCH  15  16
ENDBRANCH  12  15
ENDBRANCH   5  11
BRANCH   1  27
HETATM   27  C   UNL     1      43.815 -19.841   3.126  1.00  0.00     0.104 A 
HETATM   28  O   UNL     1      44.302 -20.424   4.265  1.00  0.00    -0.313 OA
HETATM   29  C   UNL     1      44.674 -21.694   3.944  1.00  0.00     0.050 A 
HETATM   30  C   UNL     1      45.222 -22.521   5.039  1.00  0.00     0.076 C 
HETATM   31  C   UNL     1      44.436 -21.935   2.609  1.00  0.00     0.035 A 
HETATM   32  C   UNL     1      43.885 -20.741   2.082  1.00  0.00     0.042 A 
ENDBRANCH   1  27
TORSDOF 6
ENDMDL
MODEL 8
REMARK VINA RESULT:      -7.6      1.906      7.459
REMARK  6 active torsions:
REMARK  status: ('A' for Active; 'I' for Inactive)
REMARK    1  A    between atoms: C_4  and  C_5 
REMARK    2  A    between atoms: C_9  and  C_10 
REMARK       I    between atoms: C_10  and  N_11 
REMARK    3  A    between atoms: N_11  and  C_12 
REMARK    4  A    between atoms: C_12  and  C_13 
REMARK    5  A    between atoms: C_13  and  N_14 
REMARK    6  A    between atoms: C_13  and  C_18 
ROOT
HETATM    1  C   UNL     1      40.838 -14.603   0.945  1.00  0.00     0.092 A 
HETATM    2  N   UNL     1      40.962 -13.698   1.937  1.00  0.00    -0.246 NA
HETATM    3  C   UNL     1      41.812 -13.940   2.944  1.00  0.00     0.069 A 
HETATM    4  C   UNL     1      42.610 -15.104   3.029  1.00  0.00     0.008 A 
HETATM    5  C   UNL     1      42.503 -16.007   1.938  1.00  0.00     0.046 A 
HETATM    6  C   UNL     1      41.597 -15.754   0.902  1.00  0.00     0.052 A 
HETATM    7  C   UNL     1      41.880 -12.990   3.954  1.00  0.00     0.032 A 
HETATM    8  C   UNL     1      42.697 -13.155   5.072  1.00  0.00     0.002 A 
HETATM    9  C   UNL     1      43.455 -14.306   5.197  1.00  0.00     0.001 A 
HETATM   10  C   UNL     1      43.406 -15.274   4.194  1.00  0.00     0.015 A 
ENDROOT
BRANCH   5  11
HETATM   11  C   UNL     1      43.271 -17.276   1.771  1.00  0.00     0.252 C 
HETATM   12  N   UNL     1      42.685 -18.465   2.155  1.00  0.00    -0.355 N 
HETATM   13  H   UNL     1      41.853 -18.366   2.732  1.00  0.00     0.162 HD
HETATM   14  O   UNL     1      44.425 -17.233   1.359  1.00  0.00    -0.268 OA
BRANCH  12  15
HETATM   15  C   UNL     1      43.474 -19.670   2.412  1.00  0.00     0.161 C 
BRANCH  15  16
HETATM   16  C   UNL     1      44.422 -19.792   3.665  1.00  0.00     0.237 C 
BRANCH  16  17
HETATM   17  N   UNL     1      44.843 -21.199   4.079  1.00  0.00    -0.069 N 
HETATM   18  H   UNL     1      45.868 -21.155   4.074  1.00  0.00     0.279 HD
HETATM   19  C   UNL     1      44.527 -21.590   5.497  1.00  0.00     0.270 C 
HETATM   20  C   UNL     1      44.521 -22.266   3.074  1.00  0.00     0.270 C 
ENDBRANCH  16  17
BRANCH  16  21
HETATM   21  C   UNL     1      44.088 -18.938   4.878  1.00  0.00    -0.026 A 
HETATM   22  C   UNL     1      45.137 -18.434   5.673  1.00  0.00     0.009 A 
HETATM   23  C   UNL     1      44.874 -17.706   6.834  1.00  0.00     0.001 A 
HETATM   24  C   UNL     1      43.561 -17.470   7.225  1.00  0.00     0.000 A 
HETATM   25  C   UNL     1      42.510 -17.963   6.457  1.00  0.00     0.001 A 
HETATM   26  C   UNL     1      42.771 -18.694   5.296  1.00  0.00     0.009 A 
ENDBRANCH  16  21
ENDBRANCH  15  16
ENDBRANCH  12  15
ENDBRANCH   5  11
BRANCH   1  27
HETATM   27  C   UNL     1      39.828 -14.292  -0.056  1.00  0.00     0.104 A 
HETATM   28  O   UNL     1      40.142 -14.579  -1.357  1.00  0.00    -0.313 OA
HETATM   29  C   UNL     1      39.065 -14.244  -2.119  1.00  0.00     0.050 A 
HETATM   30  C   UNL     1      39.181 -14.485  -3.572  1.00  0.00     0.076 C 
HETATM   31  C   UNL     1      38.060 -13.739  -1.324  1.00  0.00     0.035 A 
HETATM   32  C   UNL     1      38.551 -13.768   0.003  1.00  0.00     0.042 A 
ENDBRANCH   1  27
TORSDOF 6
ENDMDL
MODEL 9
REMARK VINA RESULT:      -7.5      2.201      4.961
REMARK  6 active torsions:
REMARK  status: ('A' for Active; 'I' for Inactive)
REMARK    1  A    between atoms: C_4  and  C_5 
REMARK    2  A    between atoms: C_9  and  C_10 
REMARK       I    between atoms: C_10  and  N_11 
REMARK    3  A    between atoms: N_11  and  C_12 
REMARK    4  A    between atoms: C_12  and  C_13 
REMARK    5  A    between atoms: C_13  and  N_14 
REMARK    6  A    between atoms: C_13  and  C_18 
ROOT
HETATM    1  C   UNL     1      42.698 -18.508   3.068  1.00  0.00     0.092 A 
HETATM    2  N   UNL     1      42.213 -18.298   4.309  1.00  0.00    -0.246 NA
HETATM    3  C   UNL     1      41.572 -17.152   4.578  1.00  0.00     0.069 A 
HETATM    4  C   UNL     1      41.359 -16.134   3.621  1.00  0.00     0.008 A 
HETATM    5  C   UNL     1      41.826 -16.412   2.309  1.00  0.00     0.046 A 
HETATM    6  C   UNL     1      42.512 -17.603   2.045  1.00  0.00     0.052 A 
HETATM    7  C   UNL     1      41.118 -16.974   5.878  1.00  0.00     0.032 A 
HETATM    8  C   UNL     1      40.477 -15.805   6.285  1.00  0.00     0.002 A 
HETATM    9  C   UNL     1      40.295 -14.777   5.376  1.00  0.00     0.001 A 
HETATM   10  C   UNL     1      40.739 -14.934   4.063  1.00  0.00     0.015 A 
ENDROOT
BRANCH   5  11
HETATM   11  C   UNL     1      41.681 -15.523   1.119  1.00  0.00     0.252 C 
HETATM   12  N   UNL     1      40.815 -15.894   0.110  1.00  0.00    -0.355 N 
HETATM   13  H   UNL     1      40.502 -16.862   0.149  1.00  0.00     0.162 HD
HETATM   14  O   UNL     1      42.377 -14.518   1.030  1.00  0.00    -0.268 OA
BRANCH  12  15
HETATM   15  C   UNL     1      40.906 -15.329  -1.236  1.00  0.00     0.161 C 
BRANCH  15  16
HETATM   16  C   UNL     1      40.158 -14.001  -1.633  1.00  0.00     0.237 C 
BRANCH  16  17
HETATM   17  N   UNL     1      40.945 -12.981  -2.449  1.00  0.00    -0.069 N 
HETATM   18  H   UNL     1      40.933 -12.140  -1.861  1.00  0.00     0.279 HD
HETATM   19  C   UNL     1      42.413 -13.260  -2.614  1.00  0.00     0.270 C 
HETATM   20  C   UNL     1      40.269 -12.544  -3.716  1.00  0.00     0.270 C 
ENDBRANCH  16  17
BRANCH  16  21
HETATM   21  C   UNL     1      39.325 -13.321  -0.557  1.00  0.00    -0.026 A 
HETATM   22  C   UNL     1      37.995 -13.739  -0.352  1.00  0.00     0.009 A 
HETATM   23  C   UNL     1      37.174 -13.095   0.576  1.00  0.00     0.001 A 
HETATM   24  C   UNL     1      37.663 -12.022   1.311  1.00  0.00     0.000 A 
HETATM   25  C   UNL     1      38.972 -11.590   1.121  1.00  0.00     0.001 A 
HETATM   26  C   UNL     1      39.795 -12.232   0.191  1.00  0.00     0.009 A 
ENDBRANCH  16  21
ENDBRANCH  15  16
ENDBRANCH  12  15
ENDBRANCH   5  11
BRANCH   1  27
HETATM   27  C   UNL     1      43.453 -19.741   2.898  1.00  0.00     0.104 A 
HETATM   28  O   UNL     1      43.984 -20.298   4.030  1.00  0.00    -0.313 OA
HETATM   29  C   UNL     1      44.618 -21.445   3.661  1.00  0.00     0.050 A 
HETATM   30  C   UNL     1      45.259 -22.225   4.739  1.00  0.00     0.076 C 
HETATM   31  C   UNL     1      44.505 -21.632   2.301  1.00  0.00     0.035 A 
HETATM   32  C   UNL     1      43.758 -20.534   1.810  1.00  0.00     0.042 A 
ENDBRANCH   1  27
TORSDOF 6
ENDMDL
MODEL 10
REMARK VINA RESULT:      -7.4      2.128      4.826
REMARK  6 active torsions:
REMARK  status: ('A' for Active; 'I' for Inactive)
REMARK    1  A    between atoms: C_4  and  C_5 
REMARK    2  A    between atoms: C_9  and  C_10 
REMARK       I    between atoms: C_10  and  N_11 
REMARK    3  A    between atoms: N_11  and  C_12 
REMARK    4  A    between atoms: C_12  and  C_13 
REMARK    5  A    between atoms: C_13  and  N_14 
REMARK    6  A    between atoms: C_13  and  C_18 
ROOT
HETATM    1  C   UNL     1      43.642 -18.162   3.726  1.00  0.00     0.092 A 
HETATM    2  N   UNL     1      44.002 -17.825   4.982  1.00  0.00    -0.246 NA
HETATM    3  C   UNL     1      43.837 -16.562   5.396  1.00  0.00     0.069 A 
HETATM    4  C   UNL     1      43.289 -15.541   4.587  1.00  0.00     0.008 A 
HETATM    5  C   UNL     1      42.862 -15.940   3.292  1.00  0.00     0.046 A 
HETATM    6  C   UNL     1      43.059 -17.258   2.863  1.00  0.00     0.052 A 
HETATM    7  C   UNL     1      44.250 -16.263   6.688  1.00  0.00     0.032 A 
HETATM    8  C   UNL     1      44.167 -14.974   7.211  1.00  0.00     0.002 A 
HETATM    9  C   UNL     1      43.674 -13.949   6.423  1.00  0.00     0.001 A 
HETATM   10  C   UNL     1      43.249 -14.225   5.123  1.00  0.00     0.015 A 
ENDROOT
BRANCH   5  11
HETATM   11  C   UNL     1      42.214 -15.064   2.273  1.00  0.00     0.252 C 
HETATM   12  N   UNL     1      42.680 -13.776   2.108  1.00  0.00    -0.355 N 
HETATM   13  H   UNL     1      43.290 -13.442   2.851  1.00  0.00     0.162 HD
HETATM   14  O   UNL     1      41.243 -15.481   1.650  1.00  0.00    -0.268 OA
BRANCH  12  15
HETATM   15  C   UNL     1      41.878 -12.740   1.457  1.00  0.00     0.161 C 
BRANCH  15  16
HETATM   16  C   UNL     1      40.628 -12.090   2.161  1.00  0.00     0.237 C 
BRANCH  16  17
HETATM   17  N   UNL     1      40.166 -10.734   1.637  1.00  0.00    -0.069 N 
HETATM   18  H   UNL     1      40.043 -10.175   2.489  1.00  0.00     0.279 HD
HETATM   19  C   UNL     1      41.184  -9.946   0.858  1.00  0.00     0.270 C 
HETATM   20  C   UNL     1      38.802 -10.741   1.010  1.00  0.00     0.270 C 
ENDBRANCH  16  17
BRANCH  16  21
HETATM   21  C   UNL     1      40.579 -12.139   3.681  1.00  0.00    -0.026 A 
HETATM   22  C   UNL     1      39.791 -13.123   4.311  1.00  0.00     0.009 A 
HETATM   23  C   UNL     1      39.662 -13.160   5.700  1.00  0.00     0.001 A 
HETATM   24  C   UNL     1      40.313 -12.214   6.485  1.00  0.00     0.000 A 
HETATM   25  C   UNL     1      41.092 -11.231   5.882  1.00  0.00     0.001 A 
HETATM   26  C   UNL     1      41.221 -11.191   4.491  1.00  0.00     0.009 A 
ENDBRANCH  16  21
ENDBRANCH  15  16
ENDBRANCH  12  15
ENDBRANCH   5  11
BRANCH   1  27
HETATM   27  C   UNL     1      43.941 -19.534   3.342  1.00  0.00     0.104 A 
HETATM   28  O   UNL     1      44.342 -20.379   4.341  1.00  0.00    -0.313 OA
HETATM   29  C   UNL     1      44.540 -21.605   3.782  1.00  0.00     0.050 A 
HETATM   30  C   UNL     1      44.968 -22.687   4.692  1.00  0.00     0.076 C 
HETATM   31  C   UNL     1      44.274 -21.558   2.431  1.00  0.00     0.035 A 
HETATM   32  C   UNL     1      43.891 -20.225   2.147  1.00  0.00     0.042 A 
ENDBRANCH   1  27
TORSDOF 6
ENDMDL
