MODEL 1
REMARK VINA RESULT:      -8.6      0.000      0.000
REMARK  6 active torsions:
REMARK  status: ('A' for Active; 'I' for Inactive)
REMARK    1  A    between atoms: O_2  and  C_3 
REMARK    2  A    between atoms: C_6  and  C_7 
REMARK    3  A    between atoms: C_7  and  N_8 
REMARK       I    between atoms: N_8  and  C_9 
REMARK    4  A    between atoms: C_9  and  C_10 
REMARK    5  A    between atoms: C_10  and  O_11 
REMARK    6  A    between atoms: N_12  and  C_13 
ROOT
HETATM    1  C   UNL     1      42.064 -13.824   2.914  1.00  0.00     0.256 C 
HETATM    2  N   UNL     1      41.424 -15.143   2.740  1.00  0.00    -0.254 N 
HETATM    3  C   UNL     1      40.080 -15.222   2.399  1.00  0.00     0.330 C 
HETATM    4  O   UNL     1      39.502 -16.227   1.982  1.00  0.00    -0.246 OA
HETATM    5  N   UNL     1      39.313 -14.112   2.581  1.00  0.00    -0.308 N 
HETATM    6  C   UNL     1      39.748 -12.904   3.097  1.00  0.00     0.048 A 
HETATM    7  C   UNL     1      41.105 -12.722   3.327  1.00  0.00     0.034 A 
HETATM    8  C   UNL     1      38.819 -11.898   3.370  1.00  0.00     0.030 A 
HETATM    9  C   UNL     1      39.250 -10.686   3.906  1.00  0.00     0.002 A 
HETATM   10  C   UNL     1      40.605 -10.481   4.146  1.00  0.00     0.001 A 
HETATM   11  C   UNL     1      41.530 -11.485   3.847  1.00  0.00     0.015 A 
HETATM   12  H   UNL     1      38.337 -14.242   2.350  1.00  0.00     0.170 HD
ENDROOT
BRANCH   1  13
HETATM   13  C   UNL     1      43.234 -13.913   3.984  1.00  0.00     0.279 C 
HETATM   14  N   UNL     1      42.876 -14.227   5.278  1.00  0.00    -0.352 N 
HETATM   15  H   UNL     1      41.899 -14.401   5.487  1.00  0.00     0.162 HD
HETATM   16  O   UNL     1      44.398 -13.668   3.647  1.00  0.00    -0.268 OA
BRANCH  14  17
HETATM   17  C   UNL     1      43.859 -14.548   6.287  1.00  0.00     0.161 C 
BRANCH  17  18
HETATM   18  C   UNL     1      43.884 -16.009   6.655  1.00  0.00    -0.040 A 
HETATM   19  C   UNL     1      42.759 -16.626   7.215  1.00  0.00     0.011 A 
HETATM   20  C   UNL     1      42.756 -18.000   7.468  1.00  0.00     0.037 A 
HETATM   21  C   UNL     1      43.871 -18.783   7.164  1.00  0.00     0.068 A 
HETATM   22  C   UNL     1      45.007 -18.173   6.639  1.00  0.00     0.037 A 
HETATM   23  C   UNL     1      45.010 -16.797   6.383  1.00  0.00     0.011 A 
BRANCH  21  24
HETATM   24  O   UNL     1      43.729 -20.119   7.426  1.00  0.00    -0.356 OA
HETATM   25  C   UNL     1      43.968 -21.003   6.336  1.00  0.00     0.210 C 
ENDBRANCH  21  24
ENDBRANCH  17  18
ENDBRANCH  14  17
ENDBRANCH   1  13
BRANCH   1  26
HETATM   26  O   UNL     1      42.585 -13.419   1.646  1.00  0.00    -0.359 OA
HETATM   27  H   UNL     1      43.340 -14.015   1.482  1.00  0.00     0.213 HD
ENDBRANCH   1  26
BRANCH   2  28
HETATM   28  C   UNL     1      42.232 -16.341   2.682  1.00  0.00     0.043 A 
HETATM   29  C   UNL     1      43.229 -16.534   1.713  1.00  0.00     0.031 A 
HETATM   30  C   UNL     1      44.045 -17.673   1.724  1.00  0.00     0.026 A 
HETATM   31  C   UNL     1      43.870 -18.643   2.704  1.00  0.00     0.034 A 
HETATM   32 CL   UNL     1      44.880 -20.034   2.726  1.00  0.00    -0.084 Cl
HETATM   33  C   UNL     1      42.883 -18.487   3.667  1.00  0.00     0.026 A 
HETATM   34  C   UNL     1      42.073 -17.346   3.654  1.00  0.00     0.031 A 
ENDBRANCH   2  28
TORSDOF 6
ENDMDL
MODEL 2
REMARK VINA RESULT:      -8.5      2.420      4.139
REMARK  6 active torsions:
REMARK  status: ('A' for Active; 'I' for Inactive)
REMARK    1  A    between atoms: O_2  and  C_3 
REMARK    2  A    between atoms: C_6  and  C_7 
REMARK    3  A    between atoms: C_7  and  N_8 
REMARK       I    between atoms: N_8  and  C_9 
REMARK    4  A    between atoms: C_9  and  C_10 
REMARK    5  A    between atoms: C_10  and  O_11 
REMARK    6  A    between atoms: N_12  and  C_13 
ROOT
HETATM    1  C   UNL     1      40.141 -14.891   2.352  1.00  0.00     0.256 C 
HETATM    2  N   UNL     1      40.292 -14.277   3.686  1.00  0.00    -0.254 N 
HETATM    3  C   UNL     1      39.576 -13.131   4.007  1.00  0.00     0.330 C 
HETATM    4  O   UNL     1      39.417 -12.677   5.142  1.00  0.00    -0.246 OA
HETATM    5  N   UNL     1      39.039 -12.411   2.984  1.00  0.00    -0.308 N 
HETATM    6  C   UNL     1      39.155 -12.709   1.637  1.00  0.00     0.048 A 
HETATM    7  C   UNL     1      39.739 -13.912   1.264  1.00  0.00     0.034 A 
HETATM    8  C   UNL     1      38.681 -11.801   0.688  1.00  0.00     0.030 A 
HETATM    9  C   UNL     1      38.811 -12.089  -0.668  1.00  0.00     0.002 A 
HETATM   10  C   UNL     1      39.395 -13.288  -1.067  1.00  0.00     0.001 A 
HETATM   11  C   UNL     1      39.844 -14.201  -0.109  1.00  0.00     0.015 A 
HETATM   12  H   UNL     1      38.562 -11.570   3.277  1.00  0.00     0.170 HD
ENDROOT
BRANCH   1  13
HETATM   13  C   UNL     1      41.487 -15.614   1.921  1.00  0.00     0.279 C 
HETATM   14  N   UNL     1      41.472 -16.993   1.883  1.00  0.00    -0.352 N 
HETATM   15  H   UNL     1      40.613 -17.479   2.113  1.00  0.00     0.162 HD
HETATM   16  O   UNL     1      42.495 -14.945   1.673  1.00  0.00    -0.268 OA
BRANCH  14  17
HETATM   17  C   UNL     1      42.556 -17.754   1.303  1.00  0.00     0.161 C 
BRANCH  17  18
HETATM   18  C   UNL     1      43.222 -18.686   2.281  1.00  0.00    -0.040 A 
HETATM   19  C   UNL     1      43.657 -19.955   1.879  1.00  0.00     0.011 A 
HETATM   20  C   UNL     1      44.357 -20.778   2.765  1.00  0.00     0.037 A 
HETATM   21  C   UNL     1      44.639 -20.350   4.064  1.00  0.00     0.068 A 
HETATM   22  C   UNL     1      44.181 -19.105   4.484  1.00  0.00     0.037 A 
HETATM   23  C   UNL     1      43.482 -18.278   3.597  1.00  0.00     0.011 A 
BRANCH  21  24
HETATM   24  O   UNL     1      45.362 -21.234   4.820  1.00  0.00    -0.356 OA
HETATM   25  C   UNL     1      44.843 -22.556   4.911  1.00  0.00     0.210 C 
ENDBRANCH  21  24
ENDBRANCH  17  18
ENDBRANCH  14  17
ENDBRANCH   1  13
BRANCH   1  26
HETATM   26  O   UNL     1      39.073 -15.839   2.424  1.00  0.00    -0.359 OA
HETATM   27  H   UNL     1      39.495 -16.706   2.273  1.00  0.00     0.213 HD
ENDBRANCH   1  26
BRANCH   2  28
HETATM   28  C   UNL     1      40.984 -14.987   4.740  1.00  0.00     0.043 A 
HETATM   29  C   UNL     1      40.419 -16.084   5.409  1.00  0.00     0.031 A 
HETATM   30  C   UNL     1      41.140 -16.797   6.375  1.00  0.00     0.026 A 
HETATM   31  C   UNL     1      42.439 -16.419   6.694  1.00  0.00     0.034 A 
HETATM   32 CL   UNL     1      43.329 -17.302   7.869  1.00  0.00    -0.084 Cl
HETATM   33  C   UNL     1      43.019 -15.329   6.058  1.00  0.00     0.026 A 
HETATM   34  C   UNL     1      42.296 -14.621   5.091  1.00  0.00     0.031 A 
ENDBRANCH   2  28
TORSDOF 6
ENDMDL
MODEL 3
REMARK VINA RESULT:      -8.1      2.926      7.613
REMARK  6 active torsions:
REMARK  status: ('A' for Active; 'I' for Inactive)
REMARK    1  A    between atoms: O_2  and  C_3 
REMARK    2  A    between atoms: C_6  and  C_7 
REMARK    3  A    between atoms: C_7  and  N_8 
REMARK       I    between atoms: N_8  and  C_9 
REMARK    4  A    between atoms: C_9  and  C_10 
REMARK    5  A    between atoms: C_10  and  O_11 
REMARK    6  A    between atoms: N_12  and  C_13 
ROOT
HETATM    1  C   UNL     1      43.269 -17.439   3.226  1.00  0.00     0.256 C 
HETATM    2  N   UNL     1      43.380 -16.970   4.621  1.00  0.00    -0.254 N 
HETATM    3  C   UNL     1      44.225 -17.626   5.508  1.00  0.00     0.330 C 
HETATM    4  O   UNL     1      44.597 -17.192   6.600  1.00  0.00    -0.246 OA
HETATM    5  N   UNL     1      44.646 -18.876   5.175  1.00  0.00    -0.308 N 
HETATM    6  C   UNL     1      44.296 -19.571   4.030  1.00  0.00     0.048 A 
HETATM    7  C   UNL     1      43.568 -18.916   3.046  1.00  0.00     0.034 A 
HETATM    8  C   UNL     1      44.681 -20.905   3.890  1.00  0.00     0.030 A 
HETATM    9  C   UNL     1      44.315 -21.613   2.747  1.00  0.00     0.002 A 
HETATM   10  C   UNL     1      43.585 -20.979   1.747  1.00  0.00     0.001 A 
HETATM   11  C   UNL     1      43.224 -19.636   1.886  1.00  0.00     0.015 A 
HETATM   12  H   UNL     1      45.228 -19.316   5.876  1.00  0.00     0.170 HD
ENDROOT
BRANCH   1  13
HETATM   13  C   UNL     1      41.820 -17.135   2.653  1.00  0.00     0.279 C 
HETATM   14  N   UNL     1      41.720 -16.146   1.698  1.00  0.00    -0.352 N 
HETATM   15  H   UNL     1      42.563 -15.673   1.393  1.00  0.00     0.162 HD
HETATM   16  O   UNL     1      40.841 -17.748   3.094  1.00  0.00    -0.268 OA
BRANCH  14  17
HETATM   17  C   UNL     1      40.503 -15.926   0.949  1.00  0.00     0.161 C 
BRANCH  17  18
HETATM   18  C   UNL     1      39.755 -14.689   1.373  1.00  0.00    -0.040 A 
HETATM   19  C   UNL     1      40.330 -13.773   2.263  1.00  0.00     0.011 A 
HETATM   20  C   UNL     1      39.671 -12.583   2.580  1.00  0.00     0.037 A 
HETATM   21  C   UNL     1      38.429 -12.283   2.015  1.00  0.00     0.068 A 
HETATM   22  C   UNL     1      37.833 -13.203   1.157  1.00  0.00     0.037 A 
HETATM   23  C   UNL     1      38.494 -14.394   0.836  1.00  0.00     0.011 A 
BRANCH  21  24
HETATM   24  O   UNL     1      37.905 -11.072   2.378  1.00  0.00    -0.356 OA
HETATM   25  C   UNL     1      38.220 -10.618   3.690  1.00  0.00     0.210 C 
ENDBRANCH  21  24
ENDBRANCH  17  18
ENDBRANCH  14  17
ENDBRANCH   1  13
BRANCH   1  26
HETATM   26  O   UNL     1      44.258 -16.754   2.453  1.00  0.00    -0.359 OA
HETATM   27  H   UNL     1      44.315 -17.254   1.617  1.00  0.00     0.213 HD
ENDBRANCH   1  26
BRANCH   2  28
HETATM   28  C   UNL     1      42.812 -15.698   5.008  1.00  0.00     0.043 A 
HETATM   29  C   UNL     1      43.417 -14.472   4.690  1.00  0.00     0.031 A 
HETATM   30  C   UNL     1      42.807 -13.253   5.015  1.00  0.00     0.026 A 
HETATM   31  C   UNL     1      41.582 -13.242   5.672  1.00  0.00     0.034 A 
HETATM   32 CL   UNL     1      40.827 -11.747   6.059  1.00  0.00    -0.084 Cl
HETATM   33  C   UNL     1      40.967 -14.439   6.012  1.00  0.00     0.026 A 
HETATM   34  C   UNL     1      41.578 -15.654   5.682  1.00  0.00     0.031 A 
ENDBRANCH   2  28
TORSDOF 6
ENDMDL
MODEL 4
REMARK VINA RESULT:      -8.1      3.794      8.216
REMARK  6 active torsions:
REMARK  status: ('A' for Active; 'I' for Inactive)
REMARK    1  A    between atoms: O_2  and  C_3 
REMARK    2  A    between atoms: C_6  and  C_7 
REMARK    3  A    between atoms: C_7  and  N_8 
REMARK       I    between atoms: N_8  and  C_9 
REMARK    4  A    between atoms: C_9  and  C_10 
REMARK    5  A    between atoms: C_10  and  O_11 
REMARK    6  A    between atoms: N_12  and  C_13 
ROOT
HETATM    1  C   UNL     1      43.487 -17.722   2.808  1.00  0.00     0.256 C 
HETATM    2  N   UNL     1      43.511 -17.105   4.149  1.00  0.00    -0.254 N 
HETATM    3  C   UNL     1      44.241 -17.697   5.172  1.00  0.00     0.330 C 
HETATM    4  O   UNL     1      44.547 -17.161   6.239  1.00  0.00    -0.246 OA
HETATM    5  N   UNL     1      44.615 -18.996   5.015  1.00  0.00    -0.308 N 
HETATM    6  C   UNL     1      44.319 -19.797   3.926  1.00  0.00     0.048 A 
HETATM    7  C   UNL     1      43.713 -19.224   2.816  1.00  0.00     0.034 A 
HETATM    8  C   UNL     1      44.636 -21.157   3.965  1.00  0.00     0.030 A 
HETATM    9  C   UNL     1      44.324 -21.970   2.878  1.00  0.00     0.002 A 
HETATM   10  C   UNL     1      43.715 -21.418   1.755  1.00  0.00     0.001 A 
HETATM   11  C   UNL     1      43.423 -20.052   1.716  1.00  0.00     0.015 A 
HETATM   12  H   UNL     1      45.111 -19.382   5.807  1.00  0.00     0.170 HD
ENDROOT
BRANCH   1  13
HETATM   13  C   UNL     1      42.110 -17.415   2.082  1.00  0.00     0.279 C 
HETATM   14  N   UNL     1      42.170 -16.710   0.898  1.00  0.00    -0.352 N 
HETATM   15  H   UNL     1      43.078 -16.436   0.538  1.00  0.00     0.162 HD
HETATM   16  O   UNL     1      41.046 -17.770   2.600  1.00  0.00    -0.268 OA
BRANCH  14  17
HETATM   17  C   UNL     1      41.018 -16.556   0.039  1.00  0.00     0.161 C 
BRANCH  17  18
HETATM   18  C   UNL     1      41.187 -15.480  -1.002  1.00  0.00    -0.040 A 
HETATM   19  C   UNL     1      40.925 -15.742  -2.352  1.00  0.00     0.011 A 
HETATM   20  C   UNL     1      40.992 -14.717  -3.299  1.00  0.00     0.037 A 
HETATM   21  C   UNL     1      41.320 -13.414  -2.917  1.00  0.00     0.068 A 
HETATM   22  C   UNL     1      41.616 -13.151  -1.583  1.00  0.00     0.037 A 
HETATM   23  C   UNL     1      41.545 -14.176  -0.633  1.00  0.00     0.011 A 
BRANCH  21  24
HETATM   24  O   UNL     1      41.318 -12.496  -3.932  1.00  0.00    -0.356 OA
HETATM   25  C   UNL     1      42.350 -11.516  -3.898  1.00  0.00     0.210 C 
ENDBRANCH  21  24
ENDBRANCH  17  18
ENDBRANCH  14  17
ENDBRANCH   1  13
BRANCH   1  26
HETATM   26  O   UNL     1      44.574 -17.178   2.056  1.00  0.00    -0.359 OA
HETATM   27  H   UNL     1      44.546 -17.644   1.199  1.00  0.00     0.213 HD
ENDBRANCH   1  26
BRANCH   2  28
HETATM   28  C   UNL     1      42.988 -15.771   4.345  1.00  0.00     0.043 A 
HETATM   29  C   UNL     1      43.523 -14.647   3.696  1.00  0.00     0.031 A 
HETATM   30  C   UNL     1      42.950 -13.377   3.848  1.00  0.00     0.026 A 
HETATM   31  C   UNL     1      41.834 -13.211   4.661  1.00  0.00     0.034 A 
HETATM   32 CL   UNL     1      41.124 -11.656   4.838  1.00  0.00    -0.084 Cl
HETATM   33  C   UNL     1      41.292 -14.302   5.327  1.00  0.00     0.026 A 
HETATM   34  C   UNL     1      41.866 -15.569   5.168  1.00  0.00     0.031 A 
ENDBRANCH   2  28
TORSDOF 6
ENDMDL
MODEL 5
REMARK VINA RESULT:      -8.1      1.812      2.212
REMARK  6 active torsions:
REMARK  status: ('A' for Active; 'I' for Inactive)
REMARK    1  A    between atoms: O_2  and  C_3 
REMARK    2  A    between atoms: C_6  and  C_7 
REMARK    3  A    between atoms: C_7  and  N_8 
REMARK       I    between atoms: N_8  and  C_9 
REMARK    4  A    between atoms: C_9  and  C_10 
REMARK    5  A    between atoms: C_10  and  O_11 
REMARK    6  A    between atoms: N_12  and  C_13 
ROOT
HETATM    1  C   UNL     1      42.332 -13.541   4.987  1.00  0.00     0.256 C 
HETATM    2  N   UNL     1      41.489 -14.492   4.235  1.00  0.00    -0.254 N 
HETATM    3  C   UNL     1      40.194 -14.139   3.877  1.00  0.00     0.330 C 
HETATM    4  O   UNL     1      39.494 -14.722   3.048  1.00  0.00    -0.246 OA
HETATM    5  N   UNL     1      39.622 -13.088   4.525  1.00  0.00    -0.308 N 
HETATM    6  C   UNL     1      40.209 -12.340   5.531  1.00  0.00     0.048 A 
HETATM    7  C   UNL     1      41.546 -12.557   5.835  1.00  0.00     0.034 A 
HETATM    8  C   UNL     1      39.449 -11.386   6.212  1.00  0.00     0.030 A 
HETATM    9  C   UNL     1      40.031 -10.644   7.237  1.00  0.00     0.002 A 
HETATM   10  C   UNL     1      41.369 -10.845   7.561  1.00  0.00     0.001 A 
HETATM   11  C   UNL     1      42.128 -11.785   6.858  1.00  0.00     0.015 A 
HETATM   12  H   UNL     1      38.667 -12.902   4.247  1.00  0.00     0.170 HD
ENDROOT
BRANCH   1  13
HETATM   13  C   UNL     1      43.352 -14.322   5.919  1.00  0.00     0.279 C 
HETATM   14  N   UNL     1      42.813 -15.178   6.857  1.00  0.00    -0.352 N 
HETATM   15  H   UNL     1      41.805 -15.284   6.900  1.00  0.00     0.162 HD
HETATM   16  O   UNL     1      44.566 -14.121   5.811  1.00  0.00    -0.268 OA
BRANCH  14  17
HETATM   17  C   UNL     1      43.631 -16.100   7.611  1.00  0.00     0.161 C 
BRANCH  17  18
HETATM   18  C   UNL     1      43.905 -17.390   6.882  1.00  0.00    -0.040 A 
HETATM   19  C   UNL     1      44.997 -17.504   6.013  1.00  0.00     0.011 A 
HETATM   20  C   UNL     1      45.301 -18.728   5.412  1.00  0.00     0.037 A 
HETATM   21  C   UNL     1      44.524 -19.860   5.670  1.00  0.00     0.068 A 
HETATM   22  C   UNL     1      43.416 -19.749   6.505  1.00  0.00     0.037 A 
HETATM   23  C   UNL     1      43.114 -18.524   7.110  1.00  0.00     0.011 A 
BRANCH  21  24
HETATM   24  O   UNL     1      44.947 -21.005   5.049  1.00  0.00    -0.356 OA
HETATM   25  C   UNL     1      44.647 -22.228   5.712  1.00  0.00     0.210 C 
ENDBRANCH  21  24
ENDBRANCH  17  18
ENDBRANCH  14  17
ENDBRANCH   1  13
BRANCH   1  26
HETATM   26  O   UNL     1      43.043 -12.741   4.039  1.00  0.00    -0.359 OA
HETATM   27  H   UNL     1      43.924 -13.156   3.970  1.00  0.00     0.213 HD
ENDBRANCH   1  26
BRANCH   2  28
HETATM   28  C   UNL     1      42.074 -15.683   3.659  1.00  0.00     0.043 A 
HETATM   29  C   UNL     1      43.195 -15.642   2.815  1.00  0.00     0.031 A 
HETATM   30  C   UNL     1      43.784 -16.817   2.330  1.00  0.00     0.026 A 
HETATM   31  C   UNL     1      43.254 -18.055   2.675  1.00  0.00     0.034 A 
HETATM   32 CL   UNL     1      43.984 -19.497   2.091  1.00  0.00    -0.084 Cl
HETATM   33  C   UNL     1      42.136 -18.126   3.496  1.00  0.00     0.026 A 
HETATM   34  C   UNL     1      41.554 -16.949   3.982  1.00  0.00     0.031 A 
ENDBRANCH   2  28
TORSDOF 6
ENDMDL
MODEL 6
REMARK VINA RESULT:      -7.8      3.706      7.623
REMARK  6 active torsions:
REMARK  status: ('A' for Active; 'I' for Inactive)
REMARK    1  A    between atoms: O_2  and  C_3 
REMARK    2  A    between atoms: C_6  and  C_7 
REMARK    3  A    between atoms: C_7  and  N_8 
REMARK       I    between atoms: N_8  and  C_9 
REMARK    4  A    between atoms: C_9  and  C_10 
REMARK    5  A    between atoms: C_10  and  O_11 
REMARK    6  A    between atoms: N_12  and  C_13 
ROOT
HETATM    1  C   UNL     1      42.836 -15.124   3.734  1.00  0.00     0.256 C 
HETATM    2  N   UNL     1      41.970 -15.209   4.927  1.00  0.00    -0.254 N 
HETATM    3  C   UNL     1      41.961 -16.364   5.698  1.00  0.00     0.330 C 
HETATM    4  O   UNL     1      41.492 -16.468   6.832  1.00  0.00    -0.246 OA
HETATM    5  N   UNL     1      42.470 -17.499   5.144  1.00  0.00    -0.308 N 
HETATM    6  C   UNL     1      42.986 -17.615   3.865  1.00  0.00     0.048 A 
HETATM    7  C   UNL     1      43.146 -16.468   3.100  1.00  0.00     0.034 A 
HETATM    8  C   UNL     1      43.334 -18.876   3.375  1.00  0.00     0.030 A 
HETATM    9  C   UNL     1      43.837 -18.998   2.081  1.00  0.00     0.002 A 
HETATM   10  C   UNL     1      44.005 -17.863   1.295  1.00  0.00     0.001 A 
HETATM   11  C   UNL     1      43.675 -16.603   1.803  1.00  0.00     0.015 A 
HETATM   12  H   UNL     1      42.403 -18.314   5.739  1.00  0.00     0.170 HD
ENDROOT
BRANCH   1  13
HETATM   13  C   UNL     1      42.182 -14.178   2.641  1.00  0.00     0.279 C 
HETATM   14  N   UNL     1      40.958 -14.561   2.134  1.00  0.00    -0.352 N 
HETATM   15  H   UNL     1      40.526 -15.408   2.486  1.00  0.00     0.162 HD
HETATM   16  O   UNL     1      42.785 -13.171   2.254  1.00  0.00    -0.268 OA
BRANCH  14  17
HETATM   17  C   UNL     1      40.166 -13.684   1.302  1.00  0.00     0.161 C 
BRANCH  17  18
HETATM   18  C   UNL     1      40.031 -14.167  -0.119  1.00  0.00    -0.040 A 
HETATM   19  C   UNL     1      39.021 -13.671  -0.952  1.00  0.00     0.011 A 
HETATM   20  C   UNL     1      38.958 -14.052  -2.295  1.00  0.00     0.037 A 
HETATM   21  C   UNL     1      39.901 -14.932  -2.831  1.00  0.00     0.068 A 
HETATM   22  C   UNL     1      40.888 -15.458  -2.002  1.00  0.00     0.037 A 
HETATM   23  C   UNL     1      40.954 -15.074  -0.658  1.00  0.00     0.011 A 
BRANCH  21  24
HETATM   24  O   UNL     1      39.751 -15.198  -4.165  1.00  0.00    -0.356 OA
HETATM   25  C   UNL     1      38.944 -16.324  -4.496  1.00  0.00     0.210 C 
ENDBRANCH  21  24
ENDBRANCH  17  18
ENDBRANCH  14  17
ENDBRANCH   1  13
BRANCH   1  26
HETATM   26  O   UNL     1      44.101 -14.599   4.148  1.00  0.00    -0.359 OA
HETATM   27  H   UNL     1      44.133 -13.697   3.776  1.00  0.00     0.213 HD
ENDBRANCH   1  26
BRANCH   2  28
HETATM   28  C   UNL     1      41.318 -14.023   5.438  1.00  0.00     0.043 A 
HETATM   29  C   UNL     1      39.922 -13.904   5.519  1.00  0.00     0.031 A 
HETATM   30  C   UNL     1      39.319 -12.774   6.085  1.00  0.00     0.026 A 
HETATM   31  C   UNL     1      40.106 -11.738   6.575  1.00  0.00     0.034 A 
HETATM   32 CL   UNL     1      39.367 -10.356   7.282  1.00  0.00    -0.084 Cl
HETATM   33  C   UNL     1      41.489 -11.821   6.496  1.00  0.00     0.026 A 
HETATM   34  C   UNL     1      42.087 -12.954   5.932  1.00  0.00     0.031 A 
ENDBRANCH   2  28
TORSDOF 6
ENDMDL
MODEL 7
REMARK VINA RESULT:      -7.7      4.198      8.418
REMARK  6 active torsions:
REMARK  status: ('A' for Active; 'I' for Inactive)
REMARK    1  A    between atoms: O_2  and  C_3 
REMARK    2  A    between atoms: C_6  and  C_7 
REMARK    3  A    between atoms: C_7  and  N_8 
REMARK       I    between atoms: N_8  and  C_9 
REMARK    4  A    between atoms: C_9  and  C_10 
REMARK    5  A    between atoms: C_10  and  O_11 
REMARK    6  A    between atoms: N_12  and  C_13 
ROOT
HETATM    1  C   UNL     1      41.931 -15.932   1.959  1.00  0.00     0.256 C 
HETATM    2  N   UNL     1      40.809 -15.468   2.799  1.00  0.00    -0.254 N 
HETATM    3  C   UNL     1      40.817 -15.714   4.166  1.00  0.00     0.330 C 
HETATM    4  O   UNL     1      40.089 -15.171   4.998  1.00  0.00    -0.246 OA
HETATM    5  N   UNL     1      41.667 -16.670   4.633  1.00  0.00    -0.308 N 
HETATM    6  C   UNL     1      42.520 -17.440   3.862  1.00  0.00     0.048 A 
HETATM    7  C   UNL     1      42.655 -17.146   2.512  1.00  0.00     0.034 A 
HETATM    8  C   UNL     1      43.226 -18.489   4.456  1.00  0.00     0.030 A 
HETATM    9  C   UNL     1      44.073 -19.278   3.681  1.00  0.00     0.002 A 
HETATM   10  C   UNL     1      44.223 -19.003   2.325  1.00  0.00     0.001 A 
HETATM   11  C   UNL     1      43.531 -17.937   1.745  1.00  0.00     0.015 A 
HETATM   12  H   UNL     1      41.601 -16.829   5.629  1.00  0.00     0.170 HD
ENDROOT
BRANCH   1  13
HETATM   13  C   UNL     1      41.425 -16.261   0.491  1.00  0.00     0.279 C 
HETATM   14  N   UNL     1      41.696 -15.328  -0.488  1.00  0.00    -0.352 N 
HETATM   15  H   UNL     1      42.213 -14.492  -0.238  1.00  0.00     0.162 HD
HETATM   16  O   UNL     1      40.786 -17.296   0.276  1.00  0.00    -0.268 OA
BRANCH  14  17
HETATM   17  C   UNL     1      41.482 -15.606  -1.890  1.00  0.00     0.161 C 
BRANCH  17  18
HETATM   18  C   UNL     1      40.167 -15.085  -2.409  1.00  0.00    -0.040 A 
HETATM   19  C   UNL     1      39.654 -13.861  -1.962  1.00  0.00     0.011 A 
HETATM   20  C   UNL     1      38.482 -13.339  -2.515  1.00  0.00     0.037 A 
HETATM   21  C   UNL     1      37.803 -14.025  -3.524  1.00  0.00     0.068 A 
HETATM   22  C   UNL     1      38.286 -15.258  -3.951  1.00  0.00     0.037 A 
HETATM   23  C   UNL     1      39.461 -15.781  -3.400  1.00  0.00     0.011 A 
BRANCH  21  24
HETATM   24  O   UNL     1      36.690 -13.391  -4.006  1.00  0.00    -0.356 OA
HETATM   25  C   UNL     1      35.913 -14.115  -4.954  1.00  0.00     0.210 C 
ENDBRANCH  21  24
ENDBRANCH  17  18
ENDBRANCH  14  17
ENDBRANCH   1  13
BRANCH   1  26
HETATM   26  O   UNL     1      42.910 -14.890   1.922  1.00  0.00    -0.359 OA
HETATM   27  H   UNL     1      43.737 -15.331   1.650  1.00  0.00     0.213 HD
ENDBRANCH   1  26
BRANCH   2  28
HETATM   28  C   UNL     1      39.826 -14.555   2.259  1.00  0.00     0.043 A 
HETATM   29  C   UNL     1      40.039 -13.169   2.192  1.00  0.00     0.031 A 
HETATM   30  C   UNL     1      39.100 -12.316   1.598  1.00  0.00     0.026 A 
HETATM   31  C   UNL     1      37.925 -12.836   1.067  1.00  0.00     0.034 A 
HETATM   32 CL   UNL     1      36.779 -11.791   0.327  1.00  0.00    -0.084 Cl
HETATM   33  C   UNL     1      37.681 -14.201   1.132  1.00  0.00     0.026 A 
HETATM   34  C   UNL     1      38.624 -15.050   1.723  1.00  0.00     0.031 A 
ENDBRANCH   2  28
TORSDOF 6
ENDMDL
MODEL 8
REMARK VINA RESULT:      -7.7      3.682      8.222
REMARK  6 active torsions:
REMARK  status: ('A' for Active; 'I' for Inactive)
REMARK    1  A    between atoms: O_2  and  C_3 
REMARK    2  A    between atoms: C_6  and  C_7 
REMARK    3  A    between atoms: C_7  and  N_8 
REMARK       I    between atoms: N_8  and  C_9 
REMARK    4  A    between atoms: C_9  and  C_10 
REMARK    5  A    between atoms: C_10  and  O_11 
REMARK    6  A    between atoms: N_12  and  C_13 
ROOT
HETATM    1  C   UNL     1      43.199 -17.063   2.411  1.00  0.00     0.256 C 
HETATM    2  N   UNL     1      42.829 -16.272   3.601  1.00  0.00    -0.254 N 
HETATM    3  C   UNL     1      43.347 -16.608   4.846  1.00  0.00     0.330 C 
HETATM    4  O   UNL     1      43.325 -15.895   5.850  1.00  0.00    -0.246 OA
HETATM    5  N   UNL     1      43.888 -17.849   4.994  1.00  0.00    -0.308 N 
HETATM    6  C   UNL     1      43.955 -18.824   4.014  1.00  0.00     0.048 A 
HETATM    7  C   UNL     1      43.579 -18.500   2.718  1.00  0.00     0.034 A 
HETATM    8  C   UNL     1      44.399 -20.105   4.348  1.00  0.00     0.030 A 
HETATM    9  C   UNL     1      44.452 -21.095   3.369  1.00  0.00     0.002 A 
HETATM   10  C   UNL     1      44.078 -20.795   2.063  1.00  0.00     0.001 A 
HETATM   11  C   UNL     1      43.657 -19.503   1.733  1.00  0.00     0.015 A 
HETATM   12  H   UNL     1      44.215 -18.047   5.930  1.00  0.00     0.170 HD
ENDROOT
BRANCH   1  13
HETATM   13  C   UNL     1      42.015 -17.059   1.354  1.00  0.00     0.279 C 
HETATM   14  N   UNL     1      42.175 -16.264   0.238  1.00  0.00    -0.352 N 
HETATM   15  H   UNL     1      43.034 -15.736   0.133  1.00  0.00     0.162 HD
HETATM   16  O   UNL     1      40.993 -17.720   1.569  1.00  0.00    -0.268 OA
BRANCH  14  17
HETATM   17  C   UNL     1      41.275 -16.339  -0.890  1.00  0.00     0.161 C 
BRANCH  17  18
HETATM   18  C   UNL     1      40.778 -14.994  -1.351  1.00  0.00    -0.040 A 
HETATM   19  C   UNL     1      40.691 -14.691  -2.715  1.00  0.00     0.011 A 
HETATM   20  C   UNL     1      40.143 -13.477  -3.138  1.00  0.00     0.037 A 
HETATM   21  C   UNL     1      39.670 -12.546  -2.210  1.00  0.00     0.068 A 
HETATM   22  C   UNL     1      39.784 -12.824  -0.851  1.00  0.00     0.037 A 
HETATM   23  C   UNL     1      40.330 -14.040  -0.426  1.00  0.00     0.011 A 
BRANCH  21  24
HETATM   24  O   UNL     1      39.125 -11.415  -2.753  1.00  0.00    -0.356 OA
HETATM   25  C   UNL     1      39.432 -11.159  -4.119  1.00  0.00     0.210 C 
ENDBRANCH  21  24
ENDBRANCH  17  18
ENDBRANCH  14  17
ENDBRANCH   1  13
BRANCH   1  26
HETATM   26  O   UNL     1      44.371 -16.474   1.841  1.00  0.00    -0.359 OA
HETATM   27  H   UNL     1      44.554 -15.692   2.395  1.00  0.00     0.213 HD
ENDBRANCH   1  26
BRANCH   2  28
HETATM   28  C   UNL     1      42.132 -15.014   3.451  1.00  0.00     0.043 A 
HETATM   29  C   UNL     1      42.762 -13.853   2.976  1.00  0.00     0.031 A 
HETATM   30  C   UNL     1      42.045 -12.667   2.772  1.00  0.00     0.026 A 
HETATM   31  C   UNL     1      40.683 -12.621   3.048  1.00  0.00     0.034 A 
HETATM   32 CL   UNL     1      39.801 -11.170   2.786  1.00  0.00    -0.084 Cl
HETATM   33  C   UNL     1      40.036 -13.750   3.533  1.00  0.00     0.026 A 
HETATM   34  C   UNL     1      40.756 -14.934   3.732  1.00  0.00     0.031 A 
ENDBRANCH   2  28
TORSDOF 6
ENDMDL
MODEL 9
REMARK VINA RESULT:      -7.5      3.430      7.162
REMARK  6 active torsions:
REMARK  status: ('A' for Active; 'I' for Inactive)
REMARK    1  A    between atoms: O_2  and  C_3 
REMARK    2  A    between atoms: C_6  and  C_7 
REMARK    3  A    between atoms: C_7  and  N_8 
REMARK       I    between atoms: N_8  and  C_9 
REMARK    4  A    between atoms: C_9  and  C_10 
REMARK    5  A    between atoms: C_10  and  O_11 
REMARK    6  A    between atoms: N_12  and  C_13 
ROOT
HETATM    1  C   UNL     1      40.921 -16.049   2.562  1.00  0.00     0.256 C 
HETATM    2  N   UNL     1      40.877 -15.281   1.303  1.00  0.00    -0.254 N 
HETATM    3  C   UNL     1      41.402 -15.826   0.138  1.00  0.00     0.330 C 
HETATM    4  O   UNL     1      41.203 -15.409  -1.004  1.00  0.00    -0.246 OA
HETATM    5  N   UNL     1      42.248 -16.886   0.260  1.00  0.00    -0.308 N 
HETATM    6  C   UNL     1      42.653 -17.466   1.450  1.00  0.00     0.048 A 
HETATM    7  C   UNL     1      42.057 -17.053   2.634  1.00  0.00     0.034 A 
HETATM    8  C   UNL     1      43.644 -18.450   1.433  1.00  0.00     0.030 A 
HETATM    9  C   UNL     1      44.066 -19.024   2.631  1.00  0.00     0.002 A 
HETATM   10  C   UNL     1      43.485 -18.625   3.830  1.00  0.00     0.001 A 
HETATM   11  C   UNL     1      42.478 -17.656   3.834  1.00  0.00     0.015 A 
HETATM   12  H   UNL     1      42.626 -17.215  -0.618  1.00  0.00     0.170 HD
ENDROOT
BRANCH   1  13
HETATM   13  C   UNL     1      41.023 -15.069   3.806  1.00  0.00     0.279 C 
HETATM   14  N   UNL     1      39.891 -14.920   4.581  1.00  0.00    -0.352 N 
HETATM   15  H   UNL     1      39.059 -15.447   4.337  1.00  0.00     0.162 HD
HETATM   16  O   UNL     1      42.071 -14.451   4.021  1.00  0.00    -0.268 OA
BRANCH  14  17
HETATM   17  C   UNL     1      39.918 -14.232   5.851  1.00  0.00     0.161 C 
BRANCH  17  18
HETATM   18  C   UNL     1      39.591 -12.766   5.745  1.00  0.00    -0.040 A 
HETATM   19  C   UNL     1      39.912 -11.883   6.784  1.00  0.00     0.011 A 
HETATM   20  C   UNL     1      39.691 -10.510   6.641  1.00  0.00     0.037 A 
HETATM   21  C   UNL     1      39.151  -9.994   5.461  1.00  0.00     0.068 A 
HETATM   22  C   UNL     1      38.796 -10.867   4.437  1.00  0.00     0.037 A 
HETATM   23  C   UNL     1      39.020 -12.241   4.577  1.00  0.00     0.011 A 
BRANCH  21  24
HETATM   24  O   UNL     1      39.018  -8.632   5.434  1.00  0.00    -0.356 OA
HETATM   25  C   UNL     1      38.947  -8.032   4.145  1.00  0.00     0.210 C 
ENDBRANCH  21  24
ENDBRANCH  17  18
ENDBRANCH  14  17
ENDBRANCH   1  13
BRANCH   1  26
HETATM   26  O   UNL     1      39.723 -16.826   2.643  1.00  0.00    -0.359 OA
HETATM   27  H   UNL     1      39.988 -17.652   3.090  1.00  0.00     0.213 HD
ENDBRANCH   1  26
BRANCH   2  28
HETATM   28  C   UNL     1      40.082 -14.076   1.213  1.00  0.00     0.043 A 
HETATM   29  C   UNL     1      40.655 -12.798   1.114  1.00  0.00     0.031 A 
HETATM   30  C   UNL     1      39.861 -11.655   0.955  1.00  0.00     0.026 A 
HETATM   31  C   UNL     1      38.477 -11.771   0.901  1.00  0.00     0.034 A 
HETATM   32 CL   UNL     1      37.504 -10.369   0.694  1.00  0.00    -0.084 Cl
HETATM   33  C   UNL     1      37.881 -13.020   1.011  1.00  0.00     0.026 A 
HETATM   34  C   UNL     1      38.679 -14.160   1.165  1.00  0.00     0.031 A 
ENDBRANCH   2  28
TORSDOF 6
ENDMDL
MODEL 10
REMARK VINA RESULT:      -7.5      2.746      5.114
REMARK  6 active torsions:
REMARK  status: ('A' for Active; 'I' for Inactive)
REMARK    1  A    between atoms: O_2  and  C_3 
REMARK    2  A    between atoms: C_6  and  C_7 
REMARK    3  A    between atoms: C_7  and  N_8 
REMARK       I    between atoms: N_8  and  C_9 
REMARK    4  A    between atoms: C_9  and  C_10 
REMARK    5  A    between atoms: C_10  and  O_11 
REMARK    6  A    between atoms: N_12  and  C_13 
ROOT
HETATM    1  C   UNL     1      42.462 -14.604   3.417  1.00  0.00     0.256 C 
HETATM    2  N   UNL     1      41.442 -13.561   3.191  1.00  0.00    -0.254 N 
HETATM    3  C   UNL     1      41.461 -12.396   3.947  1.00  0.00     0.330 C 
HETATM    4  O   UNL     1      40.841 -11.363   3.691  1.00  0.00    -0.246 OA
HETATM    5  N   UNL     1      42.187 -12.400   5.099  1.00  0.00    -0.308 N 
HETATM    6  C   UNL     1      42.902 -13.473   5.602  1.00  0.00     0.048 A 
HETATM    7  C   UNL     1      43.032 -14.616   4.824  1.00  0.00     0.034 A 
HETATM    8  C   UNL     1      43.476 -13.383   6.871  1.00  0.00     0.030 A 
HETATM    9  C   UNL     1      44.182 -14.468   7.388  1.00  0.00     0.002 A 
HETATM   10  C   UNL     1      44.324 -15.624   6.628  1.00  0.00     0.001 A 
HETATM   11  C   UNL     1      43.766 -15.696   5.349  1.00  0.00     0.015 A 
HETATM   12  H   UNL     1      42.133 -11.537   5.624  1.00  0.00     0.170 HD
ENDROOT
BRANCH   1  13
HETATM   13  C   UNL     1      41.869 -16.040   3.091  1.00  0.00     0.279 C 
HETATM   14  N   UNL     1      42.420 -16.717   2.023  1.00  0.00    -0.352 N 
HETATM   15  H   UNL     1      43.180 -16.285   1.510  1.00  0.00     0.162 HD
HETATM   16  O   UNL     1      40.929 -16.485   3.758  1.00  0.00    -0.268 OA
BRANCH  14  17
HETATM   17  C   UNL     1      42.119 -18.106   1.762  1.00  0.00     0.161 C 
BRANCH  17  18
HETATM   18  C   UNL     1      43.072 -19.061   2.432  1.00  0.00    -0.040 A 
HETATM   19  C   UNL     1      43.529 -18.822   3.734  1.00  0.00     0.011 A 
HETATM   20  C   UNL     1      44.338 -19.758   4.384  1.00  0.00     0.037 A 
HETATM   21  C   UNL     1      44.704 -20.947   3.750  1.00  0.00     0.068 A 
HETATM   22  C   UNL     1      44.284 -21.178   2.443  1.00  0.00     0.037 A 
HETATM   23  C   UNL     1      43.471 -20.243   1.792  1.00  0.00     0.011 A 
BRANCH  21  24
HETATM   24  O   UNL     1      45.468 -21.794   4.506  1.00  0.00    -0.356 OA
HETATM   25  C   UNL     1      44.847 -22.335   5.668  1.00  0.00     0.210 C 
ENDBRANCH  21  24
ENDBRANCH  17  18
ENDBRANCH  14  17
ENDBRANCH   1  13
BRANCH   1  26
HETATM   26  O   UNL     1      43.573 -14.323   2.561  1.00  0.00    -0.359 OA
HETATM   27  H   UNL     1      43.219 -14.403   1.655  1.00  0.00     0.213 HD
ENDBRANCH   1  26
BRANCH   2  28
HETATM   28  C   UNL     1      40.576 -13.629   2.035  1.00  0.00     0.043 A 
HETATM   29  C   UNL     1      39.222 -13.991   2.125  1.00  0.00     0.031 A 
HETATM   30  C   UNL     1      38.389 -13.978   0.999  1.00  0.00     0.026 A 
HETATM   31  C   UNL     1      38.900 -13.610  -0.241  1.00  0.00     0.034 A 
HETATM   32 CL   UNL     1      37.875 -13.583  -1.620  1.00  0.00    -0.084 Cl
HETATM   33  C   UNL     1      40.238 -13.262  -0.363  1.00  0.00     0.026 A 
HETATM   34  C   UNL     1      41.066 -13.272   0.766  1.00  0.00     0.031 A 
ENDBRANCH   2  28
TORSDOF 6
ENDMDL
