MODEL 1
REMARK VINA RESULT:      -8.8      0.000      0.000
REMARK  7 active torsions:
REMARK  status: ('A' for Active; 'I' for Inactive)
REMARK       I    between atoms: C_2  and  N_3 
REMARK    1  A    between atoms: N_3  and  C_4 
REMARK    2  A    between atoms: C_7  and  C_8 
REMARK    3  A    between atoms: C_8  and  C_9 
REMARK       I    between atoms: C_9  and  N_10 
REMARK    4  A    between atoms: N_10  and  C_11 
REMARK    5  A    between atoms: C_11  and  C_12 
REMARK    6  A    between atoms: C_14  and  O_15 
REMARK    7  A    between atoms: O_15  and  C_16 
ROOT
HETATM    1  C   UNL     1      43.965 -14.819   7.270  1.00  0.00     0.222 C 
HETATM    2  N   UNL     1      43.019 -14.829   6.268  1.00  0.00    -0.357 N 
HETATM    3  O   UNL     1      44.066 -15.709   8.109  1.00  0.00    -0.273 OA
HETATM    4  H   UNL     1      43.184 -14.256   5.450  1.00  0.00     0.162 HD
ENDROOT
BRANCH   2   5
HETATM    5  C   UNL     1      42.129 -15.960   6.120  1.00  0.00     0.161 C 
BRANCH   5   6
HETATM    6  C   UNL     1      42.183 -16.560   4.738  1.00  0.00    -0.038 A 
HETATM    7  C   UNL     1      43.310 -17.301   4.344  1.00  0.00     0.046 A 
HETATM    8  C   UNL     1      43.365 -17.893   3.078  1.00  0.00     0.078 A 
HETATM    9  C   UNL     1      42.276 -17.786   2.212  1.00  0.00     0.037 A 
HETATM   10  C   UNL     1      41.144 -17.070   2.598  1.00  0.00     0.003 A 
HETATM   11  C   UNL     1      41.095 -16.468   3.857  1.00  0.00     0.009 A 
BRANCH   8  12
HETATM   12  O   UNL     1      44.398 -18.700   2.660  1.00  0.00    -0.292 OA
BRANCH  12  13
HETATM   13  C   UNL     1      44.472 -19.995   3.155  1.00  0.00     0.169 A 
HETATM   14  N   UNL     1      44.838 -20.211   4.439  1.00  0.00    -0.237 NA
HETATM   15  C   UNL     1      44.932 -21.499   4.831  1.00  0.00     0.119 A 
HETATM   16  C   UNL     1      44.684 -22.580   4.000  1.00  0.00     0.019 A 
HETATM   17  C   UNL     1      44.326 -22.329   2.680  1.00  0.00     0.006 A 
HETATM   18  C   UNL     1      44.223 -21.012   2.243  1.00  0.00     0.058 A 
ENDBRANCH  12  13
ENDBRANCH   8  12
ENDBRANCH   5   6
ENDBRANCH   2   5
BRANCH   1  19
HETATM   19  C   UNL     1      44.868 -13.600   7.265  1.00  0.00     0.141 C 
BRANCH  19  20
HETATM   20  C   UNL     1      44.712 -12.644   8.425  1.00  0.00    -0.049 A 
HETATM   21  C   UNL     1      45.673 -12.486   9.430  1.00  0.00     0.010 A 
HETATM   22  C   UNL     1      45.461 -11.598  10.495  1.00  0.00     0.030 A 
HETATM   23  C   UNL     1      44.279 -10.865  10.587  1.00  0.00     0.034 A 
HETATM   24  C   UNL     1      43.309 -11.032   9.594  1.00  0.00     0.030 A 
HETATM   25  C   UNL     1      43.522 -11.910   8.527  1.00  0.00     0.010 A 
BRANCH  23  26
HETATM   26  N   UNL     1      43.983  -9.962  11.631  1.00  0.00    -0.328 N 
HETATM   27  C   UNL     1      43.270 -10.215  12.787  1.00  0.00     0.218 C 
HETATM   28  C   UNL     1      43.132  -9.001  13.673  1.00  0.00     0.117 C 
HETATM   29  O   UNL     1      42.774 -11.285  13.127  1.00  0.00    -0.274 OA
HETATM   30  H   UNL     1      44.346  -9.026  11.512  1.00  0.00     0.169 HD
ENDBRANCH  23  26
ENDBRANCH  19  20
ENDBRANCH   1  19
TORSDOF 7
ENDMDL
MODEL 2
REMARK VINA RESULT:      -8.7      1.876      2.663
REMARK  7 active torsions:
REMARK  status: ('A' for Active; 'I' for Inactive)
REMARK       I    between atoms: C_2  and  N_3 
REMARK    1  A    between atoms: N_3  and  C_4 
REMARK    2  A    between atoms: C_7  and  C_8 
REMARK    3  A    between atoms: C_8  and  C_9 
REMARK       I    between atoms: C_9  and  N_10 
REMARK    4  A    between atoms: N_10  and  C_11 
REMARK    5  A    between atoms: C_11  and  C_12 
REMARK    6  A    between atoms: C_14  and  O_15 
REMARK    7  A    between atoms: O_15  and  C_16 
ROOT
HETATM    1  C   UNL     1      45.033 -13.597   7.315  1.00  0.00     0.222 C 
HETATM    2  N   UNL     1      43.967 -14.412   7.628  1.00  0.00    -0.357 N 
HETATM    3  O   UNL     1      45.501 -13.505   6.184  1.00  0.00    -0.273 OA
HETATM    4  H   UNL     1      43.444 -14.211   8.471  1.00  0.00     0.162 HD
ENDROOT
BRANCH   2   5
HETATM    5  C   UNL     1      43.292 -15.157   6.588  1.00  0.00     0.161 C 
BRANCH   5   6
HETATM    6  C   UNL     1      43.569 -16.636   6.665  1.00  0.00    -0.038 A 
HETATM    7  C   UNL     1      44.311 -17.259   5.647  1.00  0.00     0.046 A 
HETATM    8  C   UNL     1      44.606 -18.625   5.716  1.00  0.00     0.078 A 
HETATM    9  C   UNL     1      44.202 -19.368   6.825  1.00  0.00     0.037 A 
HETATM   10  C   UNL     1      43.483 -18.758   7.852  1.00  0.00     0.003 A 
HETATM   11  C   UNL     1      43.176 -17.398   7.775  1.00  0.00     0.009 A 
BRANCH   8  12
HETATM   12  O   UNL     1      45.397 -19.280   4.799  1.00  0.00    -0.292 OA
BRANCH  12  13
HETATM   13  C   UNL     1      44.787 -20.118   3.875  1.00  0.00     0.169 A 
HETATM   14  N   UNL     1      44.911 -21.460   3.990  1.00  0.00    -0.237 NA
HETATM   15  C   UNL     1      44.329 -22.204   3.026  1.00  0.00     0.119 A 
HETATM   16  C   UNL     1      43.637 -21.671   1.950  1.00  0.00     0.019 A 
HETATM   17  C   UNL     1      43.540 -20.287   1.848  1.00  0.00     0.006 A 
HETATM   18  C   UNL     1      44.132 -19.491   2.824  1.00  0.00     0.058 A 
ENDBRANCH  12  13
ENDBRANCH   8  12
ENDBRANCH   5   6
ENDBRANCH   2   5
BRANCH   1  19
HETATM   19  C   UNL     1      45.602 -12.831   8.494  1.00  0.00     0.141 C 
BRANCH  19  20
HETATM   20  C   UNL     1      44.619 -12.013   9.301  1.00  0.00    -0.049 A 
HETATM   21  C   UNL     1      43.535 -11.331   8.736  1.00  0.00     0.010 A 
HETATM   22  C   UNL     1      42.669 -10.569   9.534  1.00  0.00     0.030 A 
HETATM   23  C   UNL     1      42.878 -10.461  10.908  1.00  0.00     0.034 A 
HETATM   24  C   UNL     1      43.968 -11.128  11.475  1.00  0.00     0.030 A 
HETATM   25  C   UNL     1      44.828 -11.894  10.682  1.00  0.00     0.010 A 
BRANCH  23  26
HETATM   26  N   UNL     1      42.062  -9.706  11.778  1.00  0.00    -0.328 N 
HETATM   27  C   UNL     1      41.124 -10.180  12.676  1.00  0.00     0.218 C 
HETATM   28  C   UNL     1      40.421  -9.078  13.430  1.00  0.00     0.117 C 
HETATM   29  O   UNL     1      40.841 -11.353  12.896  1.00  0.00    -0.274 OA
HETATM   30  H   UNL     1      42.191  -8.704  11.736  1.00  0.00     0.169 HD
ENDBRANCH  23  26
ENDBRANCH  19  20
ENDBRANCH   1  19
TORSDOF 7
ENDMDL
MODEL 3
REMARK VINA RESULT:      -8.7      2.928      5.756
REMARK  7 active torsions:
REMARK  status: ('A' for Active; 'I' for Inactive)
REMARK       I    between atoms: C_2  and  N_3 
REMARK    1  A    between atoms: N_3  and  C_4 
REMARK    2  A    between atoms: C_7  and  C_8 
REMARK    3  A    between atoms: C_8  and  C_9 
REMARK       I    between atoms: C_9  and  N_10 
REMARK    4  A    between atoms: N_10  and  C_11 
REMARK    5  A    between atoms: C_11  and  C_12 
REMARK    6  A    between atoms: C_14  and  O_15 
REMARK    7  A    between atoms: O_15  and  C_16 
ROOT
HETATM    1  C   UNL     1      41.666 -16.697   1.383  1.00  0.00     0.222 C 
HETATM    2  N   UNL     1      42.469 -17.599   2.048  1.00  0.00    -0.357 N 
HETATM    3  O   UNL     1      41.679 -16.556   0.163  1.00  0.00    -0.273 OA
HETATM    4  H   UNL     1      42.196 -17.885   2.979  1.00  0.00     0.162 HD
ENDROOT
BRANCH   2   5
HETATM    5  C   UNL     1      43.332 -18.490   1.304  1.00  0.00     0.161 C 
BRANCH   5   6
HETATM    6  C   UNL     1      43.803 -19.660   2.130  1.00  0.00    -0.038 A 
HETATM    7  C   UNL     1      44.178 -19.460   3.469  1.00  0.00     0.046 A 
HETATM    8  C   UNL     1      44.586 -20.538   4.262  1.00  0.00     0.078 A 
HETATM    9  C   UNL     1      44.582 -21.830   3.735  1.00  0.00     0.037 A 
HETATM   10  C   UNL     1      44.193 -22.044   2.414  1.00  0.00     0.003 A 
HETATM   11  C   UNL     1      43.798 -20.967   1.619  1.00  0.00     0.009 A 
BRANCH   8  12
HETATM   12  O   UNL     1      44.886 -20.428   5.600  1.00  0.00    -0.292 OA
BRANCH  12  13
HETATM   13  C   UNL     1      44.468 -19.293   6.283  1.00  0.00     0.169 A 
HETATM   14  N   UNL     1      43.272 -19.282   6.914  1.00  0.00    -0.237 NA
HETATM   15  C   UNL     1      42.917 -18.127   7.515  1.00  0.00     0.119 A 
HETATM   16  C   UNL     1      43.697 -16.981   7.508  1.00  0.00     0.019 A 
HETATM   17  C   UNL     1      44.915 -17.016   6.837  1.00  0.00     0.006 A 
HETATM   18  C   UNL     1      45.309 -18.191   6.205  1.00  0.00     0.058 A 
ENDBRANCH  12  13
ENDBRANCH   8  12
ENDBRANCH   5   6
ENDBRANCH   2   5
BRANCH   1  19
HETATM   19  C   UNL     1      40.770 -15.872   2.286  1.00  0.00     0.141 C 
BRANCH  19  20
HETATM   20  C   UNL     1      41.446 -15.169   3.441  1.00  0.00    -0.049 A 
HETATM   21  C   UNL     1      42.568 -14.346   3.294  1.00  0.00     0.010 A 
HETATM   22  C   UNL     1      43.166 -13.737   4.407  1.00  0.00     0.030 A 
HETATM   23  C   UNL     1      42.666 -13.953   5.691  1.00  0.00     0.034 A 
HETATM   24  C   UNL     1      41.555 -14.788   5.845  1.00  0.00     0.030 A 
HETATM   25  C   UNL     1      40.953 -15.388   4.735  1.00  0.00     0.010 A 
BRANCH  23  26
HETATM   26  N   UNL     1      43.215 -13.390   6.862  1.00  0.00    -0.328 N 
HETATM   27  C   UNL     1      44.545 -13.353   7.235  1.00  0.00     0.218 C 
HETATM   28  C   UNL     1      44.765 -12.685   8.571  1.00  0.00     0.117 C 
HETATM   29  O   UNL     1      45.501 -13.791   6.602  1.00  0.00    -0.274 OA
HETATM   30  H   UNL     1      42.551 -12.960   7.492  1.00  0.00     0.169 HD
ENDBRANCH  23  26
ENDBRANCH  19  20
ENDBRANCH   1  19
TORSDOF 7
ENDMDL
MODEL 4
REMARK VINA RESULT:      -8.6      4.169      6.059
REMARK  7 active torsions:
REMARK  status: ('A' for Active; 'I' for Inactive)
REMARK       I    between atoms: C_2  and  N_3 
REMARK    1  A    between atoms: N_3  and  C_4 
REMARK    2  A    between atoms: C_7  and  C_8 
REMARK    3  A    between atoms: C_8  and  C_9 
REMARK       I    between atoms: C_9  and  N_10 
REMARK    4  A    between atoms: N_10  and  C_11 
REMARK    5  A    between atoms: C_11  and  C_12 
REMARK    6  A    between atoms: C_14  and  O_15 
REMARK    7  A    between atoms: O_15  and  C_16 
ROOT
HETATM    1  C   UNL     1      43.974 -19.028   7.320  1.00  0.00     0.222 C 
HETATM    2  N   UNL     1      44.645 -18.918   6.121  1.00  0.00    -0.357 N 
HETATM    3  O   UNL     1      43.548 -20.093   7.758  1.00  0.00    -0.273 OA
HETATM    4  H   UNL     1      45.228 -18.104   5.973  1.00  0.00     0.162 HD
ENDROOT
BRANCH   2   5
HETATM    5  C   UNL     1      44.946 -20.101   5.345  1.00  0.00     0.161 C 
BRANCH   5   6
HETATM    6  C   UNL     1      44.430 -20.011   3.932  1.00  0.00    -0.038 A 
HETATM    7  C   UNL     1      44.246 -18.752   3.337  1.00  0.00     0.046 A 
HETATM    8  C   UNL     1      43.799 -18.648   2.015  1.00  0.00     0.078 A 
HETATM    9  C   UNL     1      43.574 -19.802   1.265  1.00  0.00     0.037 A 
HETATM   10  C   UNL     1      43.772 -21.058   1.837  1.00  0.00     0.003 A 
HETATM   11  C   UNL     1      44.205 -21.161   3.160  1.00  0.00     0.009 A 
BRANCH   8  12
HETATM   12  O   UNL     1      43.677 -17.452   1.345  1.00  0.00    -0.292 OA
BRANCH  12  13
HETATM   13  C   UNL     1      42.451 -16.801   1.364  1.00  0.00     0.169 A 
HETATM   14  N   UNL     1      42.110 -15.967   0.355  1.00  0.00    -0.237 NA
HETATM   15  C   UNL     1      40.922 -15.337   0.469  1.00  0.00     0.119 A 
HETATM   16  C   UNL     1      40.064 -15.494   1.547  1.00  0.00     0.019 A 
HETATM   17  C   UNL     1      40.449 -16.344   2.578  1.00  0.00     0.006 A 
HETATM   18  C   UNL     1      41.669 -17.008   2.491  1.00  0.00     0.058 A 
ENDBRANCH  12  13
ENDBRANCH   8  12
ENDBRANCH   5   6
ENDBRANCH   2   5
BRANCH   1  19
HETATM   19  C   UNL     1      43.784 -17.714   8.053  1.00  0.00     0.141 C 
BRANCH  19  20
HETATM   20  C   UNL     1      43.337 -16.537   7.217  1.00  0.00    -0.049 A 
HETATM   21  C   UNL     1      44.115 -15.390   7.019  1.00  0.00     0.010 A 
HETATM   22  C   UNL     1      43.638 -14.319   6.250  1.00  0.00     0.030 A 
HETATM   23  C   UNL     1      42.367 -14.365   5.678  1.00  0.00     0.034 A 
HETATM   24  C   UNL     1      41.579 -15.501   5.886  1.00  0.00     0.030 A 
HETATM   25  C   UNL     1      42.058 -16.573   6.645  1.00  0.00     0.010 A 
BRANCH  23  26
HETATM   26  N   UNL     1      41.808 -13.326   4.903  1.00  0.00    -0.328 N 
HETATM   27  C   UNL     1      42.164 -12.945   3.623  1.00  0.00     0.218 C 
HETATM   28  C   UNL     1      41.361 -11.774   3.112  1.00  0.00     0.117 C 
HETATM   29  O   UNL     1      43.026 -13.456   2.915  1.00  0.00    -0.274 OA
HETATM   30  H   UNL     1      41.056 -12.812   5.342  1.00  0.00     0.169 HD
ENDBRANCH  23  26
ENDBRANCH  19  20
ENDBRANCH   1  19
TORSDOF 7
ENDMDL
MODEL 5
REMARK VINA RESULT:      -8.5      4.115      5.841
REMARK  7 active torsions:
REMARK  status: ('A' for Active; 'I' for Inactive)
REMARK       I    between atoms: C_2  and  N_3 
REMARK    1  A    between atoms: N_3  and  C_4 
REMARK    2  A    between atoms: C_7  and  C_8 
REMARK    3  A    between atoms: C_8  and  C_9 
REMARK       I    between atoms: C_9  and  N_10 
REMARK    4  A    between atoms: N_10  and  C_11 
REMARK    5  A    between atoms: C_11  and  C_12 
REMARK    6  A    between atoms: C_14  and  O_15 
REMARK    7  A    between atoms: O_15  and  C_16 
ROOT
HETATM    1  C   UNL     1      43.952 -17.530   6.954  1.00  0.00     0.222 C 
HETATM    2  N   UNL     1      44.743 -18.093   5.976  1.00  0.00    -0.357 N 
HETATM    3  O   UNL     1      43.200 -18.185   7.670  1.00  0.00    -0.273 OA
HETATM    4  H   UNL     1      45.545 -17.568   5.650  1.00  0.00     0.162 HD
ENDROOT
BRANCH   2   5
HETATM    5  C   UNL     1      44.772 -19.529   5.801  1.00  0.00     0.161 C 
BRANCH   5   6
HETATM    6  C   UNL     1      44.448 -19.944   4.389  1.00  0.00    -0.038 A 
HETATM    7  C   UNL     1      44.037 -18.978   3.455  1.00  0.00     0.046 A 
HETATM    8  C   UNL     1      43.763 -19.339   2.132  1.00  0.00     0.078 A 
HETATM    9  C   UNL     1      43.940 -20.660   1.720  1.00  0.00     0.037 A 
HETATM   10  C   UNL     1      44.366 -21.625   2.631  1.00  0.00     0.003 A 
HETATM   11  C   UNL     1      44.626 -21.267   3.955  1.00  0.00     0.009 A 
BRANCH   8  12
HETATM   12  O   UNL     1      43.439 -18.432   1.148  1.00  0.00    -0.292 OA
BRANCH  12  13
HETATM   13  C   UNL     1      42.467 -17.479   1.417  1.00  0.00     0.169 A 
HETATM   14  N   UNL     1      41.171 -17.847   1.538  1.00  0.00    -0.237 NA
HETATM   15  C   UNL     1      40.281 -16.855   1.753  1.00  0.00     0.119 A 
HETATM   16  C   UNL     1      40.622 -15.515   1.845  1.00  0.00     0.019 A 
HETATM   17  C   UNL     1      41.961 -15.164   1.699  1.00  0.00     0.006 A 
HETATM   18  C   UNL     1      42.903 -16.162   1.473  1.00  0.00     0.058 A 
ENDBRANCH  12  13
ENDBRANCH   8  12
ENDBRANCH   5   6
ENDBRANCH   2   5
BRANCH   1  19
HETATM   19  C   UNL     1      44.070 -16.022   7.063  1.00  0.00     0.141 C 
BRANCH  19  20
HETATM   20  C   UNL     1      43.007 -15.212   6.358  1.00  0.00    -0.049 A 
HETATM   21  C   UNL     1      41.716 -15.689   6.102  1.00  0.00     0.010 A 
HETATM   22  C   UNL     1      40.778 -14.898   5.422  1.00  0.00     0.030 A 
HETATM   23  C   UNL     1      41.116 -13.623   4.970  1.00  0.00     0.034 A 
HETATM   24  C   UNL     1      42.410 -13.149   5.209  1.00  0.00     0.030 A 
HETATM   25  C   UNL     1      43.343 -13.933   5.894  1.00  0.00     0.010 A 
BRANCH  23  26
HETATM   26  N   UNL     1      40.237 -12.771   4.269  1.00  0.00    -0.328 N 
HETATM   27  C   UNL     1      39.188 -12.034   4.785  1.00  0.00     0.218 C 
HETATM   28  C   UNL     1      38.446 -11.246   3.732  1.00  0.00     0.117 C 
HETATM   29  O   UNL     1      38.839 -11.972   5.959  1.00  0.00    -0.274 OA
HETATM   30  H   UNL     1      40.407 -12.692   3.275  1.00  0.00     0.169 HD
ENDBRANCH  23  26
ENDBRANCH  19  20
ENDBRANCH   1  19
TORSDOF 7
ENDMDL
MODEL 6
REMARK VINA RESULT:      -8.5      2.440      3.641
REMARK  7 active torsions:
REMARK  status: ('A' for Active; 'I' for Inactive)
REMARK       I    between atoms: C_2  and  N_3 
REMARK    1  A    between atoms: N_3  and  C_4 
REMARK    2  A    between atoms: C_7  and  C_8 
REMARK    3  A    between atoms: C_8  and  C_9 
REMARK       I    between atoms: C_9  and  N_10 
REMARK    4  A    between atoms: N_10  and  C_11 
REMARK    5  A    between atoms: C_11  and  C_12 
REMARK    6  A    between atoms: C_14  and  O_15 
REMARK    7  A    between atoms: O_15  and  C_16 
ROOT
HETATM    1  C   UNL     1      45.625 -12.006   9.110  1.00  0.00     0.222 C 
HETATM    2  N   UNL     1      45.074 -13.171   8.622  1.00  0.00    -0.357 N 
HETATM    3  O   UNL     1      46.332 -11.263   8.436  1.00  0.00    -0.273 OA
HETATM    4  H   UNL     1      44.273 -13.559   9.105  1.00  0.00     0.162 HD
ENDROOT
BRANCH   2   5
HETATM    5  C   UNL     1      45.254 -13.536   7.235  1.00  0.00     0.161 C 
BRANCH   5   6
HETATM    6  C   UNL     1      44.049 -14.233   6.659  1.00  0.00    -0.038 A 
HETATM    7  C   UNL     1      43.928 -15.628   6.778  1.00  0.00     0.046 A 
HETATM    8  C   UNL     1      42.801 -16.289   6.280  1.00  0.00     0.078 A 
HETATM    9  C   UNL     1      41.766 -15.558   5.698  1.00  0.00     0.037 A 
HETATM   10  C   UNL     1      41.863 -14.172   5.591  1.00  0.00     0.003 A 
HETATM   11  C   UNL     1      42.994 -13.513   6.077  1.00  0.00     0.009 A 
BRANCH   8  12
HETATM   12  O   UNL     1      42.580 -17.639   6.436  1.00  0.00    -0.292 OA
BRANCH  12  13
HETATM   13  C   UNL     1      43.256 -18.524   5.608  1.00  0.00     0.169 A 
HETATM   14  N   UNL     1      43.997 -19.522   6.141  1.00  0.00    -0.237 NA
HETATM   15  C   UNL     1      44.661 -20.311   5.271  1.00  0.00     0.119 A 
HETATM   16  C   UNL     1      44.628 -20.145   3.895  1.00  0.00     0.019 A 
HETATM   17  C   UNL     1      43.873 -19.099   3.375  1.00  0.00     0.006 A 
HETATM   18  C   UNL     1      43.178 -18.266   4.246  1.00  0.00     0.058 A 
ENDBRANCH  12  13
ENDBRANCH   8  12
ENDBRANCH   5   6
ENDBRANCH   2   5
BRANCH   1  19
HETATM   19  C   UNL     1      45.301 -11.721  10.564  1.00  0.00     0.141 C 
BRANCH  19  20
HETATM   20  C   UNL     1      43.867 -11.357  10.874  1.00  0.00    -0.049 A 
HETATM   21  C   UNL     1      43.270 -11.567  12.122  1.00  0.00     0.010 A 
HETATM   22  C   UNL     1      41.927 -11.228  12.344  1.00  0.00     0.030 A 
HETATM   23  C   UNL     1      41.150 -10.689  11.319  1.00  0.00     0.034 A 
HETATM   24  C   UNL     1      41.738 -10.493  10.066  1.00  0.00     0.030 A 
HETATM   25  C   UNL     1      43.079 -10.822   9.846  1.00  0.00     0.010 A 
BRANCH  23  26
HETATM   26  N   UNL     1      39.791 -10.334  11.455  1.00  0.00    -0.328 N 
HETATM   27  C   UNL     1      39.259  -9.321  12.230  1.00  0.00     0.218 C 
HETATM   28  C   UNL     1      37.754  -9.244  12.148  1.00  0.00     0.117 C 
HETATM   29  O   UNL     1      39.878  -8.528  12.933  1.00  0.00    -0.274 OA
HETATM   30  H   UNL     1      39.140 -10.887  10.914  1.00  0.00     0.169 HD
ENDBRANCH  23  26
ENDBRANCH  19  20
ENDBRANCH   1  19
TORSDOF 7
ENDMDL
MODEL 7
REMARK VINA RESULT:      -8.4      3.628      8.120
REMARK  7 active torsions:
REMARK  status: ('A' for Active; 'I' for Inactive)
REMARK       I    between atoms: C_2  and  N_3 
REMARK    1  A    between atoms: N_3  and  C_4 
REMARK    2  A    between atoms: C_7  and  C_8 
REMARK    3  A    between atoms: C_8  and  C_9 
REMARK       I    between atoms: C_9  and  N_10 
REMARK    4  A    between atoms: N_10  and  C_11 
REMARK    5  A    between atoms: C_11  and  C_12 
REMARK    6  A    between atoms: C_14  and  O_15 
REMARK    7  A    between atoms: O_15  and  C_16 
ROOT
HETATM    1  C   UNL     1      43.982 -14.680   6.872  1.00  0.00     0.222 C 
HETATM    2  N   UNL     1      42.763 -14.183   6.461  1.00  0.00    -0.357 N 
HETATM    3  O   UNL     1      45.029 -14.045   6.788  1.00  0.00    -0.273 OA
HETATM    4  H   UNL     1      41.924 -14.609   6.835  1.00  0.00     0.162 HD
ENDROOT
BRANCH   2   5
HETATM    5  C   UNL     1      42.659 -12.828   5.969  1.00  0.00     0.161 C 
BRANCH   5   6
HETATM    6  C   UNL     1      41.449 -12.623   5.094  1.00  0.00    -0.038 A 
HETATM    7  C   UNL     1      40.991 -13.674   4.281  1.00  0.00     0.046 A 
HETATM    8  C   UNL     1      39.851 -13.514   3.487  1.00  0.00     0.078 A 
HETATM    9  C   UNL     1      39.134 -12.318   3.532  1.00  0.00     0.037 A 
HETATM   10  C   UNL     1      39.566 -11.274   4.349  1.00  0.00     0.003 A 
HETATM   11  C   UNL     1      40.712 -11.429   5.131  1.00  0.00     0.009 A 
BRANCH   8  12
HETATM   12  O   UNL     1      39.300 -14.526   2.734  1.00  0.00    -0.292 OA
BRANCH  12  13
HETATM   13  C   UNL     1      40.129 -15.253   1.890  1.00  0.00     0.169 A 
HETATM   14  N   UNL     1      40.684 -14.660   0.808  1.00  0.00    -0.237 NA
HETATM   15  C   UNL     1      41.440 -15.446   0.012  1.00  0.00     0.119 A 
HETATM   16  C   UNL     1      41.660 -16.795   0.241  1.00  0.00     0.019 A 
HETATM   17  C   UNL     1      41.063 -17.382   1.352  1.00  0.00     0.006 A 
HETATM   18  C   UNL     1      40.275 -16.600   2.191  1.00  0.00     0.058 A 
ENDBRANCH  12  13
ENDBRANCH   8  12
ENDBRANCH   5   6
ENDBRANCH   2   5
BRANCH   1  19
HETATM   19  C   UNL     1      43.929 -16.092   7.423  1.00  0.00     0.141 C 
BRANCH  19  20
HETATM   20  C   UNL     1      43.929 -17.210   6.405  1.00  0.00    -0.049 A 
HETATM   21  C   UNL     1      42.836 -17.506   5.583  1.00  0.00     0.010 A 
HETATM   22  C   UNL     1      42.888 -18.572   4.673  1.00  0.00     0.030 A 
HETATM   23  C   UNL     1      44.026 -19.373   4.578  1.00  0.00     0.034 A 
HETATM   24  C   UNL     1      45.114 -19.090   5.409  1.00  0.00     0.030 A 
HETATM   25  C   UNL     1      45.067 -18.023   6.311  1.00  0.00     0.010 A 
BRANCH  23  26
HETATM   26  N   UNL     1      44.154 -20.469   3.699  1.00  0.00    -0.328 N 
HETATM   27  C   UNL     1      44.004 -20.469   2.325  1.00  0.00     0.218 C 
HETATM   28  C   UNL     1      44.194 -21.835   1.711  1.00  0.00     0.117 C 
HETATM   29  O   UNL     1      43.747 -19.504   1.611  1.00  0.00    -0.274 OA
HETATM   30  H   UNL     1      44.389 -21.351   4.134  1.00  0.00     0.169 HD
ENDBRANCH  23  26
ENDBRANCH  19  20
ENDBRANCH   1  19
TORSDOF 7
ENDMDL
MODEL 8
REMARK VINA RESULT:      -8.3      3.697      5.820
REMARK  7 active torsions:
REMARK  status: ('A' for Active; 'I' for Inactive)
REMARK       I    between atoms: C_2  and  N_3 
REMARK    1  A    between atoms: N_3  and  C_4 
REMARK    2  A    between atoms: C_7  and  C_8 
REMARK    3  A    between atoms: C_8  and  C_9 
REMARK       I    between atoms: C_9  and  N_10 
REMARK    4  A    between atoms: N_10  and  C_11 
REMARK    5  A    between atoms: C_11  and  C_12 
REMARK    6  A    between atoms: C_14  and  O_15 
REMARK    7  A    between atoms: O_15  and  C_16 
ROOT
HETATM    1  C   UNL     1      41.998 -16.521   2.078  1.00  0.00     0.222 C 
HETATM    2  N   UNL     1      42.091 -17.818   1.620  1.00  0.00    -0.357 N 
HETATM    3  O   UNL     1      42.973 -15.793   2.241  1.00  0.00    -0.273 OA
HETATM    4  H   UNL     1      41.265 -18.242   1.217  1.00  0.00     0.162 HD
ENDROOT
BRANCH   2   5
HETATM    5  C   UNL     1      43.374 -18.361   1.233  1.00  0.00     0.161 C 
BRANCH   5   6
HETATM    6  C   UNL     1      43.837 -19.459   2.155  1.00  0.00    -0.038 A 
HETATM    7  C   UNL     1      44.221 -19.148   3.470  1.00  0.00     0.046 A 
HETATM    8  C   UNL     1      44.624 -20.158   4.351  1.00  0.00     0.078 A 
HETATM    9  C   UNL     1      44.603 -21.490   3.939  1.00  0.00     0.037 A 
HETATM   10  C   UNL     1      44.205 -21.814   2.643  1.00  0.00     0.003 A 
HETATM   11  C   UNL     1      43.817 -20.806   1.760  1.00  0.00     0.009 A 
BRANCH   8  12
HETATM   12  O   UNL     1      44.931 -19.934   5.674  1.00  0.00    -0.292 OA
BRANCH  12  13
HETATM   13  C   UNL     1      44.397 -18.816   6.301  1.00  0.00     0.169 A 
HETATM   14  N   UNL     1      43.121 -18.835   6.751  1.00  0.00    -0.237 NA
HETATM   15  C   UNL     1      42.662 -17.694   7.306  1.00  0.00     0.119 A 
HETATM   16  C   UNL     1      43.412 -16.535   7.426  1.00  0.00     0.019 A 
HETATM   17  C   UNL     1      44.715 -16.539   6.939  1.00  0.00     0.006 A 
HETATM   18  C   UNL     1      45.219 -17.699   6.358  1.00  0.00     0.058 A 
ENDBRANCH  12  13
ENDBRANCH   8  12
ENDBRANCH   5   6
ENDBRANCH   2   5
BRANCH   1  19
HETATM   19  C   UNL     1      40.584 -16.067   2.387  1.00  0.00     0.141 C 
BRANCH  19  20
HETATM   20  C   UNL     1      40.414 -15.177   3.597  1.00  0.00    -0.049 A 
HETATM   21  C   UNL     1      40.737 -15.575   4.899  1.00  0.00     0.010 A 
HETATM   22  C   UNL     1      40.536 -14.712   5.987  1.00  0.00     0.030 A 
HETATM   23  C   UNL     1      39.991 -13.443   5.797  1.00  0.00     0.034 A 
HETATM   24  C   UNL     1      39.651 -13.047   4.500  1.00  0.00     0.030 A 
HETATM   25  C   UNL     1      39.860 -13.903   3.414  1.00  0.00     0.010 A 
BRANCH  23  26
HETATM   26  N   UNL     1      39.745 -12.521   6.837  1.00  0.00    -0.328 N 
HETATM   27  C   UNL     1      40.516 -11.432   7.197  1.00  0.00     0.218 C 
HETATM   28  C   UNL     1      39.955 -10.676   8.377  1.00  0.00     0.117 C 
HETATM   29  O   UNL     1      41.553 -11.054   6.661  1.00  0.00    -0.274 OA
HETATM   30  H   UNL     1      38.901 -12.682   7.370  1.00  0.00     0.169 HD
ENDBRANCH  23  26
ENDBRANCH  19  20
ENDBRANCH   1  19
TORSDOF 7
ENDMDL
MODEL 9
REMARK VINA RESULT:      -8.3      3.815      6.969
REMARK  7 active torsions:
REMARK  status: ('A' for Active; 'I' for Inactive)
REMARK       I    between atoms: C_2  and  N_3 
REMARK    1  A    between atoms: N_3  and  C_4 
REMARK    2  A    between atoms: C_7  and  C_8 
REMARK    3  A    between atoms: C_8  and  C_9 
REMARK       I    between atoms: C_9  and  N_10 
REMARK    4  A    between atoms: N_10  and  C_11 
REMARK    5  A    between atoms: C_11  and  C_12 
REMARK    6  A    between atoms: C_14  and  O_15 
REMARK    7  A    between atoms: O_15  and  C_16 
ROOT
HETATM    1  C   UNL     1      43.609 -13.976   6.155  1.00  0.00     0.222 C 
HETATM    2  N   UNL     1      42.307 -13.522   6.182  1.00  0.00    -0.357 N 
HETATM    3  O   UNL     1      44.416 -13.652   5.289  1.00  0.00    -0.273 OA
HETATM    4  H   UNL     1      41.806 -13.566   7.061  1.00  0.00     0.162 HD
ENDROOT
BRANCH   2   5
HETATM    5  C   UNL     1      41.852 -12.562   5.202  1.00  0.00     0.161 C 
BRANCH   5   6
HETATM    6  C   UNL     1      40.989 -13.189   4.138  1.00  0.00    -0.038 A 
HETATM    7  C   UNL     1      41.149 -14.549   3.823  1.00  0.00     0.046 A 
HETATM    8  C   UNL     1      40.336 -15.157   2.861  1.00  0.00     0.078 A 
HETATM    9  C   UNL     1      39.328 -14.423   2.237  1.00  0.00     0.037 A 
HETATM   10  C   UNL     1      39.145 -13.078   2.554  1.00  0.00     0.003 A 
HETATM   11  C   UNL     1      39.965 -12.467   3.505  1.00  0.00     0.009 A 
BRANCH   8  12
HETATM   12  O   UNL     1      40.382 -16.501   2.565  1.00  0.00    -0.292 OA
BRANCH  12  13
HETATM   13  C   UNL     1      41.610 -17.071   2.256  1.00  0.00     0.169 A 
HETATM   14  N   UNL     1      42.261 -16.710   1.126  1.00  0.00    -0.237 NA
HETATM   15  C   UNL     1      43.425 -17.344   0.873  1.00  0.00     0.119 A 
HETATM   16  C   UNL     1      43.965 -18.325   1.690  1.00  0.00     0.019 A 
HETATM   17  C   UNL     1      43.266 -18.689   2.836  1.00  0.00     0.006 A 
HETATM   18  C   UNL     1      42.060 -18.056   3.124  1.00  0.00     0.058 A 
ENDBRANCH  12  13
ENDBRANCH   8  12
ENDBRANCH   5   6
ENDBRANCH   2   5
BRANCH   1  19
HETATM   19  C   UNL     1      43.963 -14.930   7.279  1.00  0.00     0.141 C 
BRANCH  19  20
HETATM   20  C   UNL     1      43.925 -16.404   6.946  1.00  0.00    -0.049 A 
HETATM   21  C   UNL     1      42.764 -17.183   7.018  1.00  0.00     0.010 A 
HETATM   22  C   UNL     1      42.796 -18.552   6.718  1.00  0.00     0.030 A 
HETATM   23  C   UNL     1      43.991 -19.174   6.357  1.00  0.00     0.034 A 
HETATM   24  C   UNL     1      45.156 -18.404   6.299  1.00  0.00     0.030 A 
HETATM   25  C   UNL     1      45.124 -17.037   6.590  1.00  0.00     0.010 A 
BRANCH  23  26
HETATM   26  N   UNL     1      44.111 -20.547   6.052  1.00  0.00    -0.328 N 
HETATM   27  C   UNL     1      44.842 -21.123   5.031  1.00  0.00     0.218 C 
HETATM   28  C   UNL     1      44.721 -22.627   4.993  1.00  0.00     0.117 C 
HETATM   29  O   UNL     1      45.541 -20.541   4.207  1.00  0.00    -0.274 OA
HETATM   30  H   UNL     1      43.603 -21.174   6.662  1.00  0.00     0.169 HD
ENDBRANCH  23  26
ENDBRANCH  19  20
ENDBRANCH   1  19
TORSDOF 7
ENDMDL
MODEL 10
REMARK VINA RESULT:      -8.3      2.025     10.912
REMARK  7 active torsions:
REMARK  status: ('A' for Active; 'I' for Inactive)
REMARK       I    between atoms: C_2  and  N_3 
REMARK    1  A    between atoms: N_3  and  C_4 
REMARK    2  A    between atoms: C_7  and  C_8 
REMARK    3  A    between atoms: C_8  and  C_9 
REMARK       I    between atoms: C_9  and  N_10 
REMARK    4  A    between atoms: N_10  and  C_11 
REMARK    5  A    between atoms: C_11  and  C_12 
REMARK    6  A    between atoms: C_14  and  O_15 
REMARK    7  A    between atoms: O_15  and  C_16 
ROOT
HETATM    1  C   UNL     1      43.686 -14.164   5.847  1.00  0.00     0.222 C 
HETATM    2  N   UNL     1      43.889 -14.123   7.210  1.00  0.00    -0.357 N 
HETATM    3  O   UNL     1      44.438 -13.630   5.038  1.00  0.00    -0.273 OA
HETATM    4  H   UNL     1      43.432 -14.823   7.782  1.00  0.00     0.162 HD
ENDROOT
BRANCH   2   5
HETATM    5  C   UNL     1      45.074 -13.492   7.749  1.00  0.00     0.161 C 
BRANCH   5   6
HETATM    6  C   UNL     1      44.747 -12.372   8.704  1.00  0.00    -0.038 A 
HETATM    7  C   UNL     1      43.568 -11.628   8.527  1.00  0.00     0.046 A 
HETATM    8  C   UNL     1      43.232 -10.606   9.421  1.00  0.00     0.078 A 
HETATM    9  C   UNL     1      44.048 -10.349  10.523  1.00  0.00     0.037 A 
HETATM   10  C   UNL     1      45.209 -11.094  10.721  1.00  0.00     0.003 A 
HETATM   11  C   UNL     1      45.552 -12.104   9.821  1.00  0.00     0.009 A 
BRANCH   8  12
HETATM   12  O   UNL     1      42.055  -9.896   9.356  1.00  0.00    -0.292 OA
BRANCH  12  13
HETATM   13  C   UNL     1      41.327  -9.707  10.524  1.00  0.00     0.169 A 
HETATM   14  N   UNL     1      41.329  -8.502  11.137  1.00  0.00    -0.237 NA
HETATM   15  C   UNL     1      40.636  -8.412  12.292  1.00  0.00     0.119 A 
HETATM   16  C   UNL     1      39.949  -9.470  12.866  1.00  0.00     0.019 A 
HETATM   17  C   UNL     1      39.978 -10.703  12.221  1.00  0.00     0.006 A 
HETATM   18  C   UNL     1      40.686 -10.829  11.030  1.00  0.00     0.058 A 
ENDBRANCH  12  13
ENDBRANCH   8  12
ENDBRANCH   5   6
ENDBRANCH   2   5
BRANCH   1  19
HETATM   19  C   UNL     1      42.435 -14.910   5.424  1.00  0.00     0.141 C 
BRANCH  19  20
HETATM   20  C   UNL     1      42.644 -16.138   4.566  1.00  0.00    -0.049 A 
HETATM   21  C   UNL     1      42.693 -16.103   3.168  1.00  0.00     0.010 A 
HETATM   22  C   UNL     1      42.867 -17.279   2.424  1.00  0.00     0.030 A 
HETATM   23  C   UNL     1      42.978 -18.514   3.061  1.00  0.00     0.034 A 
HETATM   24  C   UNL     1      42.913 -18.556   4.457  1.00  0.00     0.030 A 
HETATM   25  C   UNL     1      42.748 -17.383   5.200  1.00  0.00     0.010 A 
BRANCH  23  26
HETATM   26  N   UNL     1      43.142 -19.743   2.387  1.00  0.00    -0.328 N 
HETATM   27  C   UNL     1      44.178 -20.647   2.523  1.00  0.00     0.218 C 
HETATM   28  C   UNL     1      44.034 -21.851   1.623  1.00  0.00     0.117 C 
HETATM   29  O   UNL     1      45.144 -20.553   3.274  1.00  0.00    -0.274 OA
HETATM   30  H   UNL     1      42.406 -19.984   1.736  1.00  0.00     0.169 HD
ENDBRANCH  23  26
ENDBRANCH  19  20
ENDBRANCH   1  19
TORSDOF 7
ENDMDL
