MODEL 1
REMARK VINA RESULT:      -8.6      0.000      0.000
REMARK  3 active torsions:
REMARK  status: ('A' for Active; 'I' for Inactive)
REMARK    1  A    between atoms: C_5  and  C_6 
REMARK    2  A    between atoms: C_8  and  N_9 
REMARK       I    between atoms: N_9  and  C_10 
REMARK    3  A    between atoms: C_10  and  C_11 
ROOT
HETATM    1  C   UNL     1      44.818 -11.851   9.450  1.00  0.00     0.010 A 
HETATM    2  C   UNL     1      44.369 -12.913   8.655  1.00  0.00     0.044 A 
HETATM    3  C   UNL     1      45.157 -13.411   7.617  1.00  0.00     0.035 A 
HETATM    4  C   UNL     1      46.400 -12.817   7.372  1.00  0.00     0.029 A 
HETATM    5  C   UNL     1      46.846 -11.747   8.153  1.00  0.00     0.003 A 
HETATM    6  C   UNL     1      46.059 -11.264   9.198  1.00  0.00     0.015 A 
ENDROOT
BRANCH   3   7
HETATM    7  N   UNL     1      44.788 -14.509   6.813  1.00  0.00    -0.323 N 
HETATM    8  C   UNL     1      44.219 -15.699   7.217  1.00  0.00     0.259 C 
HETATM    9  O   UNL     1      43.846 -15.933   8.367  1.00  0.00    -0.267 OA
HETATM   10  H   UNL     1      45.023 -14.430   5.827  1.00  0.00     0.169 HD
BRANCH   8  11
HETATM   11  C   UNL     1      44.040 -16.734   6.138  1.00  0.00     0.070 A 
HETATM   12  C   UNL     1      43.135 -16.653   4.932  1.00  0.00     0.116 A 
HETATM   13  S   UNL     1      42.087 -15.406   4.518  1.00  0.00    -0.059 SA
HETATM   14  N   UNL     1      43.177 -17.730   4.065  1.00  0.00    -0.356 N 
HETATM   15  C   UNL     1      43.973 -18.831   4.237  1.00  0.00     0.089 A 
HETATM   16  H   UNL     1      42.579 -17.684   3.244  1.00  0.00     0.166 HD
HETATM   17  C   UNL     1      44.777 -18.914   5.300  1.00  0.00     0.018 A 
HETATM   18  C   UNL     1      44.807 -17.838   6.261  1.00  0.00     0.022 A 
ENDBRANCH   8  11
ENDBRANCH   3   7
BRANCH   1  19
HETATM   19  C   UNL     1      43.962 -11.379  10.585  1.00  0.00     0.116 A 
HETATM   20  N   UNL     1      44.273 -10.481  11.531  1.00  0.00    -0.344 N 
HETATM   21  C   UNL     1      43.250 -10.323  12.455  1.00  0.00     0.029 A 
HETATM   22  H   UNL     1      45.165 -10.001  11.577  1.00  0.00     0.167 HD
HETATM   23  C   UNL     1      43.349  -9.423  13.618  1.00  0.00     0.070 C 
HETATM   24  C   UNL     1      42.233 -11.153  12.027  1.00  0.00     0.029 A 
HETATM   25  N   UNL     1      42.716 -11.772  10.887  1.00  0.00    -0.344 N 
HETATM   26  C   UNL     1      40.894 -11.422  12.579  1.00  0.00     0.070 C 
HETATM   27  H   UNL     1      42.193 -12.450  10.338  1.00  0.00     0.167 HD
ENDBRANCH   1  19
TORSDOF 3
ENDMDL
MODEL 2
REMARK VINA RESULT:      -8.4      7.378      9.862
REMARK  3 active torsions:
REMARK  status: ('A' for Active; 'I' for Inactive)
REMARK    1  A    between atoms: C_5  and  C_6 
REMARK    2  A    between atoms: C_8  and  N_9 
REMARK       I    between atoms: N_9  and  C_10 
REMARK    3  A    between atoms: C_10  and  C_11 
ROOT
HETATM    1  C   UNL     1      40.452 -15.000   1.138  1.00  0.00     0.010 A 
HETATM    2  C   UNL     1      41.196 -16.171   1.326  1.00  0.00     0.044 A 
HETATM    3  C   UNL     1      41.467 -16.646   2.610  1.00  0.00     0.035 A 
HETATM    4  C   UNL     1      40.997 -15.919   3.709  1.00  0.00     0.029 A 
HETATM    5  C   UNL     1      40.267 -14.742   3.526  1.00  0.00     0.003 A 
HETATM    6  C   UNL     1      39.987 -14.281   2.241  1.00  0.00     0.015 A 
ENDROOT
BRANCH   3   7
HETATM    7  N   UNL     1      42.165 -17.844   2.869  1.00  0.00    -0.323 N 
HETATM    8  C   UNL     1      43.428 -18.197   2.439  1.00  0.00     0.259 C 
HETATM    9  O   UNL     1      44.189 -17.442   1.833  1.00  0.00    -0.267 OA
HETATM   10  H   UNL     1      41.648 -18.550   3.389  1.00  0.00     0.169 HD
BRANCH   8  11
HETATM   11  C   UNL     1      43.864 -19.596   2.784  1.00  0.00     0.070 A 
HETATM   12  C   UNL     1      44.475 -20.072   4.080  1.00  0.00     0.116 A 
HETATM   13  S   UNL     1      44.842 -19.155   5.439  1.00  0.00    -0.059 SA
HETATM   14  N   UNL     1      44.760 -21.424   4.159  1.00  0.00    -0.356 N 
HETATM   15  C   UNL     1      44.523 -22.324   3.155  1.00  0.00     0.089 A 
HETATM   16  H   UNL     1      45.163 -21.759   5.030  1.00  0.00     0.166 HD
HETATM   17  C   UNL     1      43.985 -21.915   2.003  1.00  0.00     0.018 A 
HETATM   18  C   UNL     1      43.649 -20.523   1.826  1.00  0.00     0.022 A 
ENDBRANCH   8  11
ENDBRANCH   3   7
BRANCH   1  19
HETATM   19  C   UNL     1      40.141 -14.551  -0.257  1.00  0.00     0.116 A 
HETATM   20  N   UNL     1      38.939 -14.468  -0.845  1.00  0.00    -0.344 N 
HETATM   21  C   UNL     1      39.033 -14.055  -2.167  1.00  0.00     0.029 A 
HETATM   22  H   UNL     1      38.070 -14.710  -0.382  1.00  0.00     0.167 HD
HETATM   23  C   UNL     1      37.864 -13.918  -3.052  1.00  0.00     0.070 C 
HETATM   24  C   UNL     1      40.378 -13.839  -2.391  1.00  0.00     0.029 A 
HETATM   25  N   UNL     1      41.008 -14.154  -1.200  1.00  0.00    -0.344 N 
HETATM   26  C   UNL     1      41.109 -13.389  -3.589  1.00  0.00     0.070 C 
HETATM   27  H   UNL     1      42.013 -14.097  -1.050  1.00  0.00     0.167 HD
ENDBRANCH   1  19
TORSDOF 3
ENDMDL
MODEL 3
REMARK VINA RESULT:      -8.3      4.968      6.503
REMARK  3 active torsions:
REMARK  status: ('A' for Active; 'I' for Inactive)
REMARK    1  A    between atoms: C_5  and  C_6 
REMARK    2  A    between atoms: C_8  and  N_9 
REMARK       I    between atoms: N_9  and  C_10 
REMARK    3  A    between atoms: C_10  and  C_11 
ROOT
HETATM    1  C   UNL     1      40.214 -14.491   3.984  1.00  0.00     0.010 A 
HETATM    2  C   UNL     1      40.993 -15.640   4.158  1.00  0.00     0.044 A 
HETATM    3  C   UNL     1      41.023 -16.638   3.182  1.00  0.00     0.035 A 
HETATM    4  C   UNL     1      40.242 -16.476   2.032  1.00  0.00     0.029 A 
HETATM    5  C   UNL     1      39.451 -15.336   1.861  1.00  0.00     0.003 A 
HETATM    6  C   UNL     1      39.438 -14.337   2.833  1.00  0.00     0.015 A 
ENDROOT
BRANCH   3   7
HETATM    7  N   UNL     1      41.824 -17.794   3.270  1.00  0.00    -0.323 N 
HETATM    8  C   UNL     1      43.084 -17.991   2.744  1.00  0.00     0.259 C 
HETATM    9  O   UNL     1      43.749 -17.114   2.192  1.00  0.00    -0.267 OA
HETATM   10  H   UNL     1      41.394 -18.593   3.730  1.00  0.00     0.169 HD
BRANCH   8  11
HETATM   11  C   UNL     1      43.647 -19.379   2.906  1.00  0.00     0.070 A 
HETATM   12  C   UNL     1      44.390 -19.932   4.098  1.00  0.00     0.116 A 
HETATM   13  S   UNL     1      44.795 -19.129   5.518  1.00  0.00    -0.059 SA
HETATM   14  N   UNL     1      44.778 -21.258   4.013  1.00  0.00    -0.356 N 
HETATM   15  C   UNL     1      44.529 -22.068   2.938  1.00  0.00     0.089 A 
HETATM   16  H   UNL     1      45.271 -21.645   4.813  1.00  0.00     0.166 HD
HETATM   17  C   UNL     1      43.874 -21.590   1.878  1.00  0.00     0.018 A 
HETATM   18  C   UNL     1      43.425 -20.219   1.873  1.00  0.00     0.022 A 
ENDBRANCH   8  11
ENDBRANCH   3   7
BRANCH   1  19
HETATM   19  C   UNL     1      40.249 -13.422   5.033  1.00  0.00     0.116 A 
HETATM   20  N   UNL     1      39.587 -13.393   6.199  1.00  0.00    -0.344 N 
HETATM   21  C   UNL     1      39.824 -12.220   6.903  1.00  0.00     0.029 A 
HETATM   22  H   UNL     1      38.963 -14.130   6.509  1.00  0.00     0.167 HD
HETATM   23  C   UNL     1      39.189 -11.917   8.198  1.00  0.00     0.070 C 
HETATM   24  C   UNL     1      40.716 -11.501   6.133  1.00  0.00     0.029 A 
HETATM   25  N   UNL     1      40.942 -12.274   5.008  1.00  0.00    -0.344 N 
HETATM   26  C   UNL     1      41.348 -10.186   6.342  1.00  0.00     0.070 C 
HETATM   27  H   UNL     1      41.560 -12.009   4.244  1.00  0.00     0.167 HD
ENDBRANCH   1  19
TORSDOF 3
ENDMDL
MODEL 4
REMARK VINA RESULT:      -8.0      5.986      9.488
REMARK  3 active torsions:
REMARK  status: ('A' for Active; 'I' for Inactive)
REMARK    1  A    between atoms: C_5  and  C_6 
REMARK    2  A    between atoms: C_8  and  N_9 
REMARK       I    between atoms: N_9  and  C_10 
REMARK    3  A    between atoms: C_10  and  C_11 
ROOT
HETATM    1  C   UNL     1      43.416 -17.784   4.406  1.00  0.00     0.010 A 
HETATM    2  C   UNL     1      42.505 -17.188   3.526  1.00  0.00     0.044 A 
HETATM    3  C   UNL     1      42.056 -15.884   3.738  1.00  0.00     0.035 A 
HETATM    4  C   UNL     1      42.520 -15.187   4.859  1.00  0.00     0.029 A 
HETATM    5  C   UNL     1      43.418 -15.784   5.748  1.00  0.00     0.003 A 
HETATM    6  C   UNL     1      43.873 -17.082   5.522  1.00  0.00     0.015 A 
ENDROOT
BRANCH   3   7
HETATM    7  N   UNL     1      41.181 -15.206   2.864  1.00  0.00    -0.323 N 
HETATM    8  C   UNL     1      40.220 -15.753   2.038  1.00  0.00     0.259 C 
HETATM    9  O   UNL     1      39.914 -16.946   2.027  1.00  0.00    -0.267 OA
HETATM   10  H   UNL     1      41.316 -14.200   2.799  1.00  0.00     0.169 HD
BRANCH   8  11
HETATM   11  C   UNL     1      39.512 -14.781   1.132  1.00  0.00     0.070 A 
HETATM   12  C   UNL     1      40.075 -14.087  -0.086  1.00  0.00     0.116 A 
HETATM   13  S   UNL     1      41.631 -14.208  -0.708  1.00  0.00    -0.059 SA
HETATM   14  N   UNL     1      39.204 -13.260  -0.772  1.00  0.00    -0.356 N 
HETATM   15  C   UNL     1      37.899 -13.045  -0.417  1.00  0.00     0.089 A 
HETATM   16  H   UNL     1      39.567 -12.794  -1.599  1.00  0.00     0.166 HD
HETATM   17  C   UNL     1      37.391 -13.651   0.659  1.00  0.00     0.018 A 
HETATM   18  C   UNL     1      38.220 -14.538   1.440  1.00  0.00     0.022 A 
ENDBRANCH   8  11
ENDBRANCH   3   7
BRANCH   1  19
HETATM   19  C   UNL     1      43.910 -19.169   4.115  1.00  0.00     0.116 A 
HETATM   20  N   UNL     1      43.951 -19.794   2.929  1.00  0.00    -0.344 N 
HETATM   21  C   UNL     1      44.428 -21.092   3.042  1.00  0.00     0.029 A 
HETATM   22  H   UNL     1      43.638 -19.373   2.061  1.00  0.00     0.167 HD
HETATM   23  C   UNL     1      44.539 -22.011   1.896  1.00  0.00     0.070 C 
HETATM   24  C   UNL     1      44.732 -21.260   4.379  1.00  0.00     0.029 A 
HETATM   25  N   UNL     1      44.398 -20.062   4.987  1.00  0.00    -0.344 N 
HETATM   26  C   UNL     1      45.278 -22.410   5.120  1.00  0.00     0.070 C 
HETATM   27  H   UNL     1      44.506 -19.874   5.981  1.00  0.00     0.167 HD
ENDBRANCH   1  19
TORSDOF 3
ENDMDL
MODEL 5
REMARK VINA RESULT:      -8.0      5.035      8.839
REMARK  3 active torsions:
REMARK  status: ('A' for Active; 'I' for Inactive)
REMARK    1  A    between atoms: C_5  and  C_6 
REMARK    2  A    between atoms: C_8  and  N_9 
REMARK       I    between atoms: N_9  and  C_10 
REMARK    3  A    between atoms: C_10  and  C_11 
ROOT
HETATM    1  C   UNL     1      43.989 -17.730   5.324  1.00  0.00     0.010 A 
HETATM    2  C   UNL     1      43.045 -16.913   4.691  1.00  0.00     0.044 A 
HETATM    3  C   UNL     1      42.786 -15.624   5.161  1.00  0.00     0.035 A 
HETATM    4  C   UNL     1      43.476 -15.169   6.290  1.00  0.00     0.029 A 
HETATM    5  C   UNL     1      44.409 -15.988   6.934  1.00  0.00     0.003 A 
HETATM    6  C   UNL     1      44.673 -17.268   6.450  1.00  0.00     0.015 A 
ENDROOT
BRANCH   3   7
HETATM    7  N   UNL     1      41.887 -14.732   4.542  1.00  0.00    -0.323 N 
HETATM    8  C   UNL     1      40.564 -14.507   4.862  1.00  0.00     0.259 C 
HETATM    9  O   UNL     1      39.994 -14.999   5.836  1.00  0.00    -0.267 OA
HETATM   10  H   UNL     1      42.248 -14.239   3.729  1.00  0.00     0.169 HD
BRANCH   8  11
HETATM   11  C   UNL     1      39.824 -13.571   3.944  1.00  0.00     0.070 A 
HETATM   12  C   UNL     1      39.437 -13.813   2.505  1.00  0.00     0.116 A 
HETATM   13  S   UNL     1      39.764 -15.171   1.570  1.00  0.00    -0.059 SA
HETATM   14  N   UNL     1      38.726 -12.801   1.886  1.00  0.00    -0.356 N 
HETATM   15  C   UNL     1      38.365 -11.627   2.491  1.00  0.00     0.089 A 
HETATM   16  H   UNL     1      38.452 -12.956   0.919  1.00  0.00     0.166 HD
HETATM   17  C   UNL     1      38.702 -11.401   3.763  1.00  0.00     0.018 A 
HETATM   18  C   UNL     1      39.442 -12.399   4.497  1.00  0.00     0.022 A 
ENDBRANCH   8  11
ENDBRANCH   3   7
BRANCH   1  19
HETATM   19  C   UNL     1      44.272 -19.088   4.758  1.00  0.00     0.116 A 
HETATM   20  N   UNL     1      44.182 -19.481   3.479  1.00  0.00    -0.344 N 
HETATM   21  C   UNL     1      44.476 -20.828   3.326  1.00  0.00     0.029 A 
HETATM   22  H   UNL     1      43.900 -18.867   2.722  1.00  0.00     0.167 HD
HETATM   23  C   UNL     1      44.414 -21.523   2.028  1.00  0.00     0.070 C 
HETATM   24  C   UNL     1      44.801 -21.281   4.589  1.00  0.00     0.029 A 
HETATM   25  N   UNL     1      44.662 -20.186   5.423  1.00  0.00    -0.344 N 
HETATM   26  C   UNL     1      45.206 -22.612   5.075  1.00  0.00     0.070 C 
HETATM   27  H   UNL     1      44.832 -20.203   6.425  1.00  0.00     0.167 HD
ENDBRANCH   1  19
TORSDOF 3
ENDMDL
MODEL 6
REMARK VINA RESULT:      -7.9      5.268      8.972
REMARK  3 active torsions:
REMARK  status: ('A' for Active; 'I' for Inactive)
REMARK    1  A    between atoms: C_5  and  C_6 
REMARK    2  A    between atoms: C_8  and  N_9 
REMARK       I    between atoms: N_9  and  C_10 
REMARK    3  A    between atoms: C_10  and  C_11 
ROOT
HETATM    1  C   UNL     1      43.705 -18.320   3.214  1.00  0.00     0.010 A 
HETATM    2  C   UNL     1      43.172 -17.100   3.646  1.00  0.00     0.044 A 
HETATM    3  C   UNL     1      42.854 -16.095   2.730  1.00  0.00     0.035 A 
HETATM    4  C   UNL     1      43.095 -16.324   1.371  1.00  0.00     0.029 A 
HETATM    5  C   UNL     1      43.641 -17.535   0.937  1.00  0.00     0.003 A 
HETATM    6  C   UNL     1      43.942 -18.540   1.856  1.00  0.00     0.015 A 
ENDROOT
BRANCH   3   7
HETATM    7  N   UNL     1      42.268 -14.865   3.092  1.00  0.00    -0.323 N 
HETATM    8  C   UNL     1      42.905 -13.718   3.520  1.00  0.00     0.259 C 
HETATM    9  O   UNL     1      44.128 -13.575   3.547  1.00  0.00    -0.267 OA
HETATM   10  H   UNL     1      41.251 -14.844   3.086  1.00  0.00     0.169 HD
BRANCH   8  11
HETATM   11  C   UNL     1      42.001 -12.592   3.943  1.00  0.00     0.070 A 
HETATM   12  C   UNL     1      41.213 -11.663   3.049  1.00  0.00     0.116 A 
HETATM   13  S   UNL     1      41.178 -11.642   1.369  1.00  0.00    -0.059 SA
HETATM   14  N   UNL     1      40.425 -10.724   3.690  1.00  0.00    -0.356 N 
HETATM   15  C   UNL     1      40.324 -10.596   5.049  1.00  0.00     0.089 A 
HETATM   16  H   UNL     1      39.883 -10.099   3.099  1.00  0.00     0.166 HD
HETATM   17  C   UNL     1      41.016 -11.410   5.850  1.00  0.00     0.018 A 
HETATM   18  C   UNL     1      41.865 -12.427   5.276  1.00  0.00     0.022 A 
ENDBRANCH   8  11
ENDBRANCH   3   7
BRANCH   1  19
HETATM   19  C   UNL     1      43.986 -19.390   4.225  1.00  0.00     0.116 A 
HETATM   20  N   UNL     1      44.660 -20.535   4.044  1.00  0.00    -0.344 N 
HETATM   21  C   UNL     1      44.685 -21.311   5.194  1.00  0.00     0.029 A 
HETATM   22  H   UNL     1      45.073 -20.809   3.159  1.00  0.00     0.167 HD
HETATM   23  C   UNL     1      45.327 -22.635   5.257  1.00  0.00     0.070 C 
HETATM   24  C   UNL     1      44.011 -20.577   6.150  1.00  0.00     0.029 A 
HETATM   25  N   UNL     1      43.607 -19.418   5.511  1.00  0.00    -0.344 N 
HETATM   26  C   UNL     1      43.709 -20.859   7.565  1.00  0.00     0.070 C 
HETATM   27  H   UNL     1      43.081 -18.671   5.957  1.00  0.00     0.167 HD
ENDBRANCH   1  19
TORSDOF 3
ENDMDL
MODEL 7
REMARK VINA RESULT:      -7.9      5.262      8.910
REMARK  3 active torsions:
REMARK  status: ('A' for Active; 'I' for Inactive)
REMARK    1  A    between atoms: C_5  and  C_6 
REMARK    2  A    between atoms: C_8  and  N_9 
REMARK       I    between atoms: N_9  and  C_10 
REMARK    3  A    between atoms: C_10  and  C_11 
ROOT
HETATM    1  C   UNL     1      43.866 -17.785   5.165  1.00  0.00     0.010 A 
HETATM    2  C   UNL     1      42.921 -17.015   4.478  1.00  0.00     0.044 A 
HETATM    3  C   UNL     1      42.640 -15.707   4.875  1.00  0.00     0.035 A 
HETATM    4  C   UNL     1      43.310 -15.183   5.986  1.00  0.00     0.029 A 
HETATM    5  C   UNL     1      44.245 -15.953   6.684  1.00  0.00     0.003 A 
HETATM    6  C   UNL     1      44.530 -17.255   6.273  1.00  0.00     0.015 A 
ENDROOT
BRANCH   3   7
HETATM    7  N   UNL     1      41.738 -14.860   4.197  1.00  0.00    -0.323 N 
HETATM    8  C   UNL     1      40.451 -14.528   4.566  1.00  0.00     0.259 C 
HETATM    9  O   UNL     1      39.930 -14.855   5.633  1.00  0.00    -0.267 OA
HETATM   10  H   UNL     1      42.062 -14.499   3.303  1.00  0.00     0.169 HD
BRANCH   8  11
HETATM   11  C   UNL     1      39.689 -13.686   3.578  1.00  0.00     0.070 A 
HETATM   12  C   UNL     1      39.214 -12.264   3.760  1.00  0.00     0.116 A 
HETATM   13  S   UNL     1      39.395 -11.287   5.115  1.00  0.00    -0.059 SA
HETATM   14  N   UNL     1      38.559 -11.698   2.681  1.00  0.00    -0.356 N 
HETATM   15  C   UNL     1      38.326 -12.339   1.494  1.00  0.00     0.089 A 
HETATM   16  H   UNL     1      38.242 -10.737   2.787  1.00  0.00     0.166 HD
HETATM   17  C   UNL     1      38.739 -13.597   1.322  1.00  0.00     0.018 A 
HETATM   18  C   UNL     1      39.437 -14.273   2.389  1.00  0.00     0.022 A 
ENDBRANCH   8  11
ENDBRANCH   3   7
BRANCH   1  19
HETATM   19  C   UNL     1      44.173 -19.168   4.676  1.00  0.00     0.116 A 
HETATM   20  N   UNL     1      44.594 -20.219   5.394  1.00  0.00    -0.344 N 
HETATM   21  C   UNL     1      44.823 -21.333   4.600  1.00  0.00     0.029 A 
HETATM   22  H   UNL     1      44.754 -20.187   6.395  1.00  0.00     0.167 HD
HETATM   23  C   UNL     1      45.327 -22.611   5.133  1.00  0.00     0.070 C 
HETATM   24  C   UNL     1      44.487 -20.949   3.317  1.00  0.00     0.029 A 
HETATM   25  N   UNL     1      44.099 -19.624   3.417  1.00  0.00    -0.344 N 
HETATM   26  C   UNL     1      44.509 -21.683   2.040  1.00  0.00     0.070 C 
HETATM   27  H   UNL     1      43.793 -19.056   2.631  1.00  0.00     0.167 HD
ENDBRANCH   1  19
TORSDOF 3
ENDMDL
MODEL 8
REMARK VINA RESULT:      -7.8      6.621      9.248
REMARK  3 active torsions:
REMARK  status: ('A' for Active; 'I' for Inactive)
REMARK    1  A    between atoms: C_5  and  C_6 
REMARK    2  A    between atoms: C_8  and  N_9 
REMARK       I    between atoms: N_9  and  C_10 
REMARK    3  A    between atoms: C_10  and  C_11 
ROOT
HETATM    1  C   UNL     1      43.543 -18.261   3.165  1.00  0.00     0.010 A 
HETATM    2  C   UNL     1      42.735 -17.178   3.531  1.00  0.00     0.044 A 
HETATM    3  C   UNL     1      42.367 -16.212   2.593  1.00  0.00     0.035 A 
HETATM    4  C   UNL     1      42.836 -16.336   1.281  1.00  0.00     0.029 A 
HETATM    5  C   UNL     1      43.655 -17.408   0.915  1.00  0.00     0.003 A 
HETATM    6  C   UNL     1      44.007 -18.377   1.854  1.00  0.00     0.015 A 
ENDROOT
BRANCH   3   7
HETATM    7  N   UNL     1      41.515 -15.126   2.882  1.00  0.00    -0.323 N 
HETATM    8  C   UNL     1      40.178 -14.994   2.570  1.00  0.00     0.259 C 
HETATM    9  O   UNL     1      39.493 -15.886   2.068  1.00  0.00    -0.267 OA
HETATM   10  H   UNL     1      41.959 -14.325   3.324  1.00  0.00     0.169 HD
BRANCH   8  11
HETATM   11  C   UNL     1      39.559 -13.665   2.911  1.00  0.00     0.070 A 
HETATM   12  C   UNL     1      39.518 -12.993   4.263  1.00  0.00     0.116 A 
HETATM   13  S   UNL     1      40.125 -13.576   5.717  1.00  0.00    -0.059 SA
HETATM   14  N   UNL     1      38.914 -11.749   4.307  1.00  0.00    -0.356 N 
HETATM   15  C   UNL     1      38.369 -11.115   3.222  1.00  0.00     0.089 A 
HETATM   16  H   UNL     1      38.888 -11.282   5.209  1.00  0.00     0.166 HD
HETATM   17  C   UNL     1      38.398 -11.700   2.022  1.00  0.00     0.018 A 
HETATM   18  C   UNL     1      39.010 -12.998   1.873  1.00  0.00     0.022 A 
ENDBRANCH   8  11
ENDBRANCH   3   7
BRANCH   1  19
HETATM   19  C   UNL     1      43.874 -19.301   4.191  1.00  0.00     0.116 A 
HETATM   20  N   UNL     1      44.556 -20.442   4.015  1.00  0.00    -0.344 N 
HETATM   21  C   UNL     1      44.632 -21.189   5.182  1.00  0.00     0.029 A 
HETATM   22  H   UNL     1      44.942 -20.733   3.123  1.00  0.00     0.167 HD
HETATM   23  C   UNL     1      45.295 -22.503   5.254  1.00  0.00     0.070 C 
HETATM   24  C   UNL     1      43.983 -20.440   6.143  1.00  0.00     0.029 A 
HETATM   25  N   UNL     1      43.541 -19.302   5.491  1.00  0.00    -0.344 N 
HETATM   26  C   UNL     1      43.735 -20.690   7.574  1.00  0.00     0.070 C 
HETATM   27  H   UNL     1      43.021 -18.551   5.937  1.00  0.00     0.167 HD
ENDBRANCH   1  19
TORSDOF 3
ENDMDL
MODEL 9
REMARK VINA RESULT:      -7.7      6.708      9.946
REMARK  3 active torsions:
REMARK  status: ('A' for Active; 'I' for Inactive)
REMARK    1  A    between atoms: C_5  and  C_6 
REMARK    2  A    between atoms: C_8  and  N_9 
REMARK       I    between atoms: N_9  and  C_10 
REMARK    3  A    between atoms: C_10  and  C_11 
ROOT
HETATM    1  C   UNL     1      43.409 -17.475   3.356  1.00  0.00     0.010 A 
HETATM    2  C   UNL     1      42.909 -16.942   2.162  1.00  0.00     0.044 A 
HETATM    3  C   UNL     1      42.509 -15.607   2.089  1.00  0.00     0.035 A 
HETATM    4  C   UNL     1      42.599 -14.814   3.238  1.00  0.00     0.029 A 
HETATM    5  C   UNL     1      43.084 -15.346   4.436  1.00  0.00     0.003 A 
HETATM    6  C   UNL     1      43.496 -16.677   4.498  1.00  0.00     0.015 A 
ENDROOT
BRANCH   3   7
HETATM    7  N   UNL     1      42.046 -14.993   0.907  1.00  0.00    -0.323 N 
HETATM    8  C   UNL     1      40.740 -14.846   0.487  1.00  0.00     0.259 C 
HETATM    9  O   UNL     1      39.756 -15.151   1.163  1.00  0.00    -0.267 OA
HETATM   10  H   UNL     1      42.767 -14.672   0.267  1.00  0.00     0.169 HD
BRANCH   8  11
HETATM   11  C   UNL     1      40.561 -14.244  -0.881  1.00  0.00     0.070 A 
HETATM   12  C   UNL     1      40.162 -12.826  -1.214  1.00  0.00     0.116 A 
HETATM   13  S   UNL     1      39.794 -11.586  -0.141  1.00  0.00    -0.059 SA
HETATM   14  N   UNL     1      40.099 -12.509  -2.559  1.00  0.00    -0.356 N 
HETATM   15  C   UNL     1      40.372 -13.388  -3.573  1.00  0.00     0.089 A 
HETATM   16  H   UNL     1      39.841 -11.555  -2.796  1.00  0.00     0.166 HD
HETATM   17  C   UNL     1      40.723 -14.645  -3.292  1.00  0.00     0.018 A 
HETATM   18  C   UNL     1      40.821 -15.070  -1.917  1.00  0.00     0.022 A 
ENDBRANCH   8  11
ENDBRANCH   3   7
BRANCH   1  19
HETATM   19  C   UNL     1      43.873 -18.900   3.379  1.00  0.00     0.116 A 
HETATM   20  N   UNL     1      43.946 -19.757   2.350  1.00  0.00    -0.344 N 
HETATM   21  C   UNL     1      44.379 -21.013   2.749  1.00  0.00     0.029 A 
HETATM   22  H   UNL     1      43.683 -19.518   1.400  1.00  0.00     0.167 HD
HETATM   23  C   UNL     1      44.511 -22.151   1.822  1.00  0.00     0.070 C 
HETATM   24  C   UNL     1      44.621 -20.908   4.105  1.00  0.00     0.029 A 
HETATM   25  N   UNL     1      44.298 -19.604   4.438  1.00  0.00    -0.344 N 
HETATM   26  C   UNL     1      45.101 -21.891   5.091  1.00  0.00     0.070 C 
HETATM   27  H   UNL     1      44.370 -19.217   5.376  1.00  0.00     0.167 HD
ENDBRANCH   1  19
TORSDOF 3
ENDMDL
MODEL 10
REMARK VINA RESULT:      -7.7      5.121      8.893
REMARK  3 active torsions:
REMARK  status: ('A' for Active; 'I' for Inactive)
REMARK    1  A    between atoms: C_5  and  C_6 
REMARK    2  A    between atoms: C_8  and  N_9 
REMARK       I    between atoms: N_9  and  C_10 
REMARK    3  A    between atoms: C_10  and  C_11 
ROOT
HETATM    1  C   UNL     1      43.920 -17.849   5.387  1.00  0.00     0.010 A 
HETATM    2  C   UNL     1      43.247 -16.905   4.601  1.00  0.00     0.044 A 
HETATM    3  C   UNL     1      42.974 -15.629   5.095  1.00  0.00     0.035 A 
HETATM    4  C   UNL     1      43.369 -15.313   6.399  1.00  0.00     0.029 A 
HETATM    5  C   UNL     1      44.028 -16.257   7.193  1.00  0.00     0.003 A 
HETATM    6  C   UNL     1      44.310 -17.525   6.688  1.00  0.00     0.015 A 
ENDROOT
BRANCH   3   7
HETATM    7  N   UNL     1      42.347 -14.616   4.339  1.00  0.00    -0.323 N 
HETATM    8  C   UNL     1      42.949 -13.618   3.600  1.00  0.00     0.259 C 
HETATM    9  O   UNL     1      44.162 -13.534   3.408  1.00  0.00    -0.267 OA
HETATM   10  H   UNL     1      41.332 -14.591   4.394  1.00  0.00     0.169 HD
BRANCH   8  11
HETATM   11  C   UNL     1      42.014 -12.609   2.988  1.00  0.00     0.070 A 
HETATM   12  C   UNL     1      41.179 -11.578   3.710  1.00  0.00     0.116 A 
HETATM   13  S   UNL     1      41.068 -11.325   5.367  1.00  0.00    -0.059 SA
HETATM   14  N   UNL     1      40.422 -10.740   2.911  1.00  0.00    -0.356 N 
HETATM   15  C   UNL     1      40.391 -10.794   1.543  1.00  0.00     0.089 A 
HETATM   16  H   UNL     1      39.862 -10.035   3.384  1.00  0.00     0.166 HD
HETATM   17  C   UNL     1      41.123 -11.703   0.894  1.00  0.00     0.018 A 
HETATM   18  C   UNL     1      41.951 -12.621   1.640  1.00  0.00     0.022 A 
ENDBRANCH   8  11
ENDBRANCH   3   7
BRANCH   1  19
HETATM   19  C   UNL     1      44.236 -19.191   4.802  1.00  0.00     0.116 A 
HETATM   20  N   UNL     1      44.134 -19.574   3.521  1.00  0.00    -0.344 N 
HETATM   21  C   UNL     1      44.469 -20.910   3.350  1.00  0.00     0.029 A 
HETATM   22  H   UNL     1      43.818 -18.963   2.776  1.00  0.00     0.167 HD
HETATM   23  C   UNL     1      44.406 -21.594   2.046  1.00  0.00     0.070 C 
HETATM   24  C   UNL     1      44.834 -21.364   4.602  1.00  0.00     0.029 A 
HETATM   25  N   UNL     1      44.675 -20.281   5.449  1.00  0.00    -0.344 N 
HETATM   26  C   UNL     1      45.292 -22.685   5.067  1.00  0.00     0.070 C 
HETATM   27  H   UNL     1      44.864 -20.302   6.448  1.00  0.00     0.167 HD
ENDBRANCH   1  19
TORSDOF 3
ENDMDL
