MODEL 1
REMARK VINA RESULT:     -10.2      0.000      0.000
REMARK  7 active torsions:
REMARK  status: ('A' for Active; 'I' for Inactive)
REMARK    1  A    between atoms: C_4  and  C_5 
REMARK    2  A    between atoms: C_9  and  C_10 
REMARK       I    between atoms: C_10  and  N_11 
REMARK    3  A    between atoms: N_11  and  N_12 
REMARK       I    between atoms: N_12  and  C_13 
REMARK    4  A    between atoms: C_13  and  C_14 
REMARK    5  A    between atoms: C_14  and  C_15 
REMARK    6  A    between atoms: C_15  and  N_16 
REMARK    7  A    between atoms: C_15  and  C_20 
REMARK       I    between atoms: N_16  and  C_17 
REMARK       I    between atoms: C_17  and  N_18 
ROOT
HETATM    1  N   UNL     1      44.673 -14.753   6.883  1.00  0.00    -0.267 N 
HETATM    2  C   UNL     1      44.219 -16.030   7.127  1.00  0.00     0.238 C 
HETATM    3  O   UNL     1      43.625 -16.339   8.161  1.00  0.00    -0.272 OA
HETATM    4  H   UNL     1      44.924 -14.443   5.936  1.00  0.00     0.190 HD
ENDROOT
BRANCH   1   5
HETATM    5  N   UNL     1      44.347 -13.771   7.826  1.00  0.00    -0.262 N 
HETATM    6  C   UNL     1      45.298 -12.862   8.234  1.00  0.00     0.288 C 
HETATM    7  O   UNL     1      46.403 -12.770   7.705  1.00  0.00    -0.264 OA
HETATM    8  H   UNL     1      43.467 -13.909   8.316  1.00  0.00     0.190 HD
BRANCH   6   9
HETATM    9  C   UNL     1      44.902 -12.027   9.337  1.00  0.00     0.121 A 
HETATM   10  N   UNL     1      45.590 -10.894   9.667  1.00  0.00    -0.272 N 
HETATM   11  N   UNL     1      45.105 -10.246  10.736  1.00  0.00    -0.174 NA
HETATM   12  H   UNL     1      46.411 -10.523   9.197  1.00  0.00     0.189 HD
HETATM   13  C   UNL     1      44.043 -10.972  11.124  1.00  0.00     0.089 A 
HETATM   14  C   UNL     1      43.883 -12.098  10.265  1.00  0.00     0.071 A 
BRANCH  13  15
HETATM   15  C   UNL     1      43.229 -10.595  12.286  1.00  0.00    -0.006 A 
HETATM   16  C   UNL     1      41.984 -11.196  12.528  1.00  0.00     0.014 A 
HETATM   17  C   UNL     1      41.224 -10.839  13.645  1.00  0.00     0.001 A 
HETATM   18  C   UNL     1      41.696  -9.877  14.534  1.00  0.00     0.000 A 
HETATM   19  C   UNL     1      42.926  -9.267  14.306  1.00  0.00     0.001 A 
HETATM   20  C   UNL     1      43.686  -9.623  13.188  1.00  0.00     0.014 A 
ENDBRANCH  13  15
ENDBRANCH   6   9
ENDBRANCH   1   5
BRANCH   2  21
HETATM   21  C   UNL     1      44.500 -17.025   6.034  1.00  0.00     0.134 C 
BRANCH  21  22
HETATM   22  C   UNL     1      43.194 -17.635   5.516  1.00  0.00     0.128 C 
BRANCH  22  23
HETATM   23  N   UNL     1      42.173 -16.721   5.006  1.00  0.00    -0.334 N 
HETATM   24  C   UNL     1      40.989 -16.416   5.593  1.00  0.00     0.314 C 
HETATM   25  N   UNL     1      40.326 -15.423   4.954  1.00  0.00    -0.352 N 
HETATM   26  O   UNL     1      40.504 -16.981   6.560  1.00  0.00    -0.248 OA
HETATM   27  H   UNL     1      40.861 -14.666   4.555  1.00  0.00     0.160 HD
HETATM   28  H   UNL     1      39.472 -15.138   5.421  1.00  0.00     0.160 HD
HETATM   29  H   UNL     1      42.433 -16.167   4.204  1.00  0.00     0.165 HD
ENDBRANCH  22  23
BRANCH  22  30
HETATM   30  C   UNL     1      43.484 -18.714   4.481  1.00  0.00    -0.035 A 
HETATM   31  C   UNL     1      44.355 -19.771   4.795  1.00  0.00     0.011 A 
HETATM   32  C   UNL     1      44.649 -20.756   3.849  1.00  0.00     0.024 A 
HETATM   33  C   UNL     1      44.076 -20.692   2.582  1.00  0.00     0.034 A 
HETATM   34 CL   UNL     1      44.441 -21.904   1.417  1.00  0.00    -0.084 Cl
HETATM   35  C   UNL     1      43.212 -19.651   2.251  1.00  0.00     0.024 A 
HETATM   36  C   UNL     1      42.920 -18.663   3.196  1.00  0.00     0.011 A 
ENDBRANCH  22  30
ENDBRANCH  21  22
ENDBRANCH   2  21
TORSDOF 7
ENDMDL
MODEL 2
REMARK VINA RESULT:     -10.1      1.105      1.578
REMARK  7 active torsions:
REMARK  status: ('A' for Active; 'I' for Inactive)
REMARK    1  A    between atoms: C_4  and  C_5 
REMARK    2  A    between atoms: C_9  and  C_10 
REMARK       I    between atoms: C_10  and  N_11 
REMARK    3  A    between atoms: N_11  and  N_12 
REMARK       I    between atoms: N_12  and  C_13 
REMARK    4  A    between atoms: C_13  and  C_14 
REMARK    5  A    between atoms: C_14  and  C_15 
REMARK    6  A    between atoms: C_15  and  N_16 
REMARK    7  A    between atoms: C_15  and  C_20 
REMARK       I    between atoms: N_16  and  C_17 
REMARK       I    between atoms: C_17  and  N_18 
ROOT
HETATM    1  N   UNL     1      44.302 -14.442   6.851  1.00  0.00    -0.267 N 
HETATM    2  C   UNL     1      44.121 -15.794   7.037  1.00  0.00     0.238 C 
HETATM    3  O   UNL     1      43.727 -16.273   8.101  1.00  0.00    -0.272 OA
HETATM    4  H   UNL     1      44.372 -14.033   5.912  1.00  0.00     0.190 HD
ENDROOT
BRANCH   1   5
HETATM    5  N   UNL     1      43.923 -13.600   7.903  1.00  0.00    -0.262 N 
HETATM    6  C   UNL     1      44.866 -12.822   8.539  1.00  0.00     0.288 C 
HETATM    7  O   UNL     1      46.022 -12.716   8.138  1.00  0.00    -0.264 OA
HETATM    8  H   UNL     1      42.993 -13.759   8.279  1.00  0.00     0.190 HD
BRANCH   6   9
HETATM    9  C   UNL     1      44.395 -12.145   9.718  1.00  0.00     0.121 A 
HETATM   10  N   UNL     1      44.094 -12.823  10.866  1.00  0.00    -0.272 N 
HETATM   11  N   UNL     1      43.643 -12.046  11.861  1.00  0.00    -0.174 NA
HETATM   12  H   UNL     1      44.168 -13.824  11.018  1.00  0.00     0.189 HD
HETATM   13  C   UNL     1      43.658 -10.800  11.358  1.00  0.00     0.089 A 
HETATM   14  C   UNL     1      44.128 -10.824  10.014  1.00  0.00     0.071 A 
BRANCH  13  15
HETATM   15  C   UNL     1      43.221  -9.640  12.146  1.00  0.00    -0.006 A 
HETATM   16  C   UNL     1      42.739  -8.479  11.523  1.00  0.00     0.014 A 
HETATM   17  C   UNL     1      42.313  -7.385  12.284  1.00  0.00     0.001 A 
HETATM   18  C   UNL     1      42.363  -7.438  13.674  1.00  0.00     0.000 A 
HETATM   19  C   UNL     1      42.843  -8.582  14.307  1.00  0.00     0.001 A 
HETATM   20  C   UNL     1      43.271  -9.674  13.548  1.00  0.00     0.014 A 
ENDBRANCH  13  15
ENDBRANCH   6   9
ENDBRANCH   1   5
BRANCH   2  21
HETATM   21  C   UNL     1      44.440 -16.650   5.841  1.00  0.00     0.134 C 
BRANCH  21  22
HETATM   22  C   UNL     1      43.189 -17.396   5.367  1.00  0.00     0.128 C 
BRANCH  22  23
HETATM   23  N   UNL     1      42.113 -16.606   4.768  1.00  0.00    -0.334 N 
HETATM   24  C   UNL     1      40.965 -16.209   5.370  1.00  0.00     0.314 C 
HETATM   25  N   UNL     1      40.235 -15.363   4.605  1.00  0.00    -0.352 N 
HETATM   26  O   UNL     1      40.561 -16.586   6.459  1.00  0.00    -0.248 OA
HETATM   27  H   UNL     1      40.723 -14.689   4.033  1.00  0.00     0.160 HD
HETATM   28  H   UNL     1      39.409 -15.004   5.070  1.00  0.00     0.160 HD
HETATM   29  H   UNL     1      42.304 -16.212   3.859  1.00  0.00     0.165 HD
ENDBRANCH  22  23
BRANCH  22  30
HETATM   30  C   UNL     1      43.571 -18.538   4.435  1.00  0.00    -0.035 A 
HETATM   31  C   UNL     1      43.104 -18.548   3.110  1.00  0.00     0.011 A 
HETATM   32  C   UNL     1      43.427 -19.600   2.249  1.00  0.00     0.024 A 
HETATM   33  C   UNL     1      44.218 -20.650   2.705  1.00  0.00     0.034 A 
HETATM   34 CL   UNL     1      44.612 -21.946   1.645  1.00  0.00    -0.084 Cl
HETATM   35  C   UNL     1      44.689 -20.660   4.016  1.00  0.00     0.024 A 
HETATM   36  C   UNL     1      44.364 -19.609   4.879  1.00  0.00     0.011 A 
ENDBRANCH  22  30
ENDBRANCH  21  22
ENDBRANCH   2  21
TORSDOF 7
ENDMDL
MODEL 3
REMARK VINA RESULT:      -9.9      4.046     10.504
REMARK  7 active torsions:
REMARK  status: ('A' for Active; 'I' for Inactive)
REMARK    1  A    between atoms: C_4  and  C_5 
REMARK    2  A    between atoms: C_9  and  C_10 
REMARK       I    between atoms: C_10  and  N_11 
REMARK    3  A    between atoms: N_11  and  N_12 
REMARK       I    between atoms: N_12  and  C_13 
REMARK    4  A    between atoms: C_13  and  C_14 
REMARK    5  A    between atoms: C_14  and  C_15 
REMARK    6  A    between atoms: C_15  and  N_16 
REMARK    7  A    between atoms: C_15  and  C_20 
REMARK       I    between atoms: N_16  and  C_17 
REMARK       I    between atoms: C_17  and  N_18 
ROOT
HETATM    1  N   UNL     1      44.846 -12.390   8.343  1.00  0.00    -0.267 N 
HETATM    2  C   UNL     1      44.597 -12.333   9.695  1.00  0.00     0.238 C 
HETATM    3  O   UNL     1      44.317 -13.329  10.364  1.00  0.00    -0.272 OA
HETATM    4  H   UNL     1      45.326 -11.626   7.851  1.00  0.00     0.190 HD
ENDROOT
BRANCH   1   5
HETATM    5  N   UNL     1      44.868 -13.660   7.754  1.00  0.00    -0.262 N 
HETATM    6  C   UNL     1      43.889 -14.021   6.854  1.00  0.00     0.288 C 
HETATM    7  O   UNL     1      43.057 -13.228   6.421  1.00  0.00    -0.264 OA
HETATM    8  H   UNL     1      45.502 -14.330   8.180  1.00  0.00     0.190 HD
BRANCH   6   9
HETATM    9  C   UNL     1      43.910 -15.405   6.462  1.00  0.00     0.121 A 
HETATM   10  N   UNL     1      43.880 -16.415   7.383  1.00  0.00    -0.272 N 
HETATM   11  N   UNL     1      43.932 -17.645   6.852  1.00  0.00    -0.174 NA
HETATM   12  H   UNL     1      43.835 -16.316   8.393  1.00  0.00     0.189 HD
HETATM   13  C   UNL     1      43.986 -17.444   5.525  1.00  0.00     0.089 A 
HETATM   14  C   UNL     1      43.971 -16.048   5.242  1.00  0.00     0.071 A 
BRANCH  13  15
HETATM   15  C   UNL     1      44.063 -18.561   4.574  1.00  0.00    -0.006 A 
HETATM   16  C   UNL     1      43.480 -18.474   3.301  1.00  0.00     0.014 A 
HETATM   17  C   UNL     1      43.571 -19.538   2.399  1.00  0.00     0.001 A 
HETATM   18  C   UNL     1      44.246 -20.702   2.757  1.00  0.00     0.000 A 
HETATM   19  C   UNL     1      44.827 -20.806   4.018  1.00  0.00     0.001 A 
HETATM   20  C   UNL     1      44.734 -19.743   4.920  1.00  0.00     0.014 A 
ENDBRANCH  13  15
ENDBRANCH   6   9
ENDBRANCH   1   5
BRANCH   2  21
HETATM   21  C   UNL     1      44.691 -10.959  10.303  1.00  0.00     0.134 C 
BRANCH  21  22
HETATM   22  C   UNL     1      43.302 -10.321  10.403  1.00  0.00     0.128 C 
BRANCH  22  23
HETATM   23  N   UNL     1      42.219 -10.927   9.629  1.00  0.00    -0.334 N 
HETATM   24  C   UNL     1      41.804 -10.565   8.390  1.00  0.00     0.314 C 
HETATM   25  N   UNL     1      40.880 -11.411   7.877  1.00  0.00    -0.352 N 
HETATM   26  O   UNL     1      42.153  -9.564   7.783  1.00  0.00    -0.248 OA
HETATM   27  H   UNL     1      40.969 -12.397   8.071  1.00  0.00     0.160 HD
HETATM   28  H   UNL     1      40.612 -11.191   6.924  1.00  0.00     0.160 HD
HETATM   29  H   UNL     1      41.829 -11.779  10.003  1.00  0.00     0.165 HD
ENDBRANCH  22  23
BRANCH  22  30
HETATM   30  C   UNL     1      42.882 -10.187  11.861  1.00  0.00    -0.035 A 
HETATM   31  C   UNL     1      41.706 -10.809  12.312  1.00  0.00     0.011 A 
HETATM   32  C   UNL     1      41.296 -10.676  13.641  1.00  0.00     0.024 A 
HETATM   33  C   UNL     1      42.056  -9.920  14.529  1.00  0.00     0.034 A 
HETATM   34 CL   UNL     1      41.547  -9.755  16.164  1.00  0.00    -0.084 Cl
HETATM   35  C   UNL     1      43.223  -9.294  14.100  1.00  0.00     0.024 A 
HETATM   36  C   UNL     1      43.633  -9.423  12.770  1.00  0.00     0.011 A 
ENDBRANCH  22  30
ENDBRANCH  21  22
ENDBRANCH   2  21
TORSDOF 7
ENDMDL
MODEL 4
REMARK VINA RESULT:      -9.5      1.648      2.246
REMARK  7 active torsions:
REMARK  status: ('A' for Active; 'I' for Inactive)
REMARK    1  A    between atoms: C_4  and  C_5 
REMARK    2  A    between atoms: C_9  and  C_10 
REMARK       I    between atoms: C_10  and  N_11 
REMARK    3  A    between atoms: N_11  and  N_12 
REMARK       I    between atoms: N_12  and  C_13 
REMARK    4  A    between atoms: C_13  and  C_14 
REMARK    5  A    between atoms: C_14  and  C_15 
REMARK    6  A    between atoms: C_15  and  N_16 
REMARK    7  A    between atoms: C_15  and  C_20 
REMARK       I    between atoms: N_16  and  C_17 
REMARK       I    between atoms: C_17  and  N_18 
ROOT
HETATM    1  N   UNL     1      43.825 -14.334   5.955  1.00  0.00    -0.267 N 
HETATM    2  C   UNL     1      42.813 -15.114   5.443  1.00  0.00     0.238 C 
HETATM    3  O   UNL     1      41.642 -15.010   5.809  1.00  0.00    -0.272 OA
HETATM    4  H   UNL     1      44.728 -14.240   5.474  1.00  0.00     0.190 HD
ENDROOT
BRANCH   1   5
HETATM    5  N   UNL     1      43.458 -13.329   6.858  1.00  0.00    -0.262 N 
HETATM    6  C   UNL     1      44.305 -12.983   7.888  1.00  0.00     0.288 C 
HETATM    7  O   UNL     1      45.450 -13.417   7.984  1.00  0.00    -0.264 OA
HETATM    8  H   UNL     1      42.484 -13.042   6.821  1.00  0.00     0.190 HD
BRANCH   6   9
HETATM    9  C   UNL     1      43.742 -12.077   8.853  1.00  0.00     0.121 A 
HETATM   10  N   UNL     1      42.807 -11.143   8.505  1.00  0.00    -0.272 N 
HETATM   11  N   UNL     1      42.407 -10.361   9.517  1.00  0.00    -0.174 NA
HETATM   12  H   UNL     1      42.416 -10.990   7.580  1.00  0.00     0.189 HD
HETATM   13  C   UNL     1      43.093 -10.802  10.585  1.00  0.00     0.089 A 
HETATM   14  C   UNL     1      43.940 -11.883  10.205  1.00  0.00     0.071 A 
BRANCH  13  15
HETATM   15  C   UNL     1      42.942 -10.191  11.911  1.00  0.00    -0.006 A 
HETATM   16  C   UNL     1      42.969  -8.797  12.077  1.00  0.00     0.014 A 
HETATM   17  C   UNL     1      42.811  -8.226  13.343  1.00  0.00     0.001 A 
HETATM   18  C   UNL     1      42.623  -9.038  14.458  1.00  0.00     0.000 A 
HETATM   19  C   UNL     1      42.597 -10.422  14.312  1.00  0.00     0.001 A 
HETATM   20  C   UNL     1      42.758 -10.994  13.047  1.00  0.00     0.014 A 
ENDBRANCH  13  15
ENDBRANCH   6   9
ENDBRANCH   1   5
BRANCH   2  21
HETATM   21  C   UNL     1      43.242 -16.107   4.397  1.00  0.00     0.134 C 
BRANCH  21  22
HETATM   22  C   UNL     1      43.916 -17.317   5.051  1.00  0.00     0.128 C 
BRANCH  22  23
HETATM   23  N   UNL     1      43.435 -17.733   6.368  1.00  0.00    -0.334 N 
HETATM   24  C   UNL     1      44.191 -18.019   7.457  1.00  0.00     0.314 C 
HETATM   25  N   UNL     1      43.451 -18.227   8.571  1.00  0.00    -0.352 N 
HETATM   26  O   UNL     1      45.406 -18.142   7.471  1.00  0.00    -0.248 OA
HETATM   27  H   UNL     1      42.623 -17.669   8.710  1.00  0.00     0.160 HD
HETATM   28  H   UNL     1      44.007 -18.374   9.407  1.00  0.00     0.160 HD
HETATM   29  H   UNL     1      42.438 -17.675   6.516  1.00  0.00     0.165 HD
ENDBRANCH  22  23
BRANCH  22  30
HETATM   30  C   UNL     1      43.911 -18.508   4.101  1.00  0.00    -0.035 A 
HETATM   31  C   UNL     1      44.684 -19.643   4.396  1.00  0.00     0.011 A 
HETATM   32  C   UNL     1      44.708 -20.734   3.524  1.00  0.00     0.024 A 
HETATM   33  C   UNL     1      43.961 -20.699   2.350  1.00  0.00     0.034 A 
HETATM   34 CL   UNL     1      43.994 -22.042   1.275  1.00  0.00    -0.084 Cl
HETATM   35  C   UNL     1      43.190 -19.582   2.039  1.00  0.00     0.024 A 
HETATM   36  C   UNL     1      43.168 -18.488   2.909  1.00  0.00     0.011 A 
ENDBRANCH  22  30
ENDBRANCH  21  22
ENDBRANCH   2  21
TORSDOF 7
ENDMDL
MODEL 5
REMARK VINA RESULT:      -9.4      1.942      2.274
REMARK  7 active torsions:
REMARK  status: ('A' for Active; 'I' for Inactive)
REMARK    1  A    between atoms: C_4  and  C_5 
REMARK    2  A    between atoms: C_9  and  C_10 
REMARK       I    between atoms: C_10  and  N_11 
REMARK    3  A    between atoms: N_11  and  N_12 
REMARK       I    between atoms: N_12  and  C_13 
REMARK    4  A    between atoms: C_13  and  C_14 
REMARK    5  A    between atoms: C_14  and  C_15 
REMARK    6  A    between atoms: C_15  and  N_16 
REMARK    7  A    between atoms: C_15  and  C_20 
REMARK       I    between atoms: N_16  and  C_17 
REMARK       I    between atoms: C_17  and  N_18 
ROOT
HETATM    1  N   UNL     1      44.088 -14.131   6.287  1.00  0.00    -0.267 N 
HETATM    2  C   UNL     1      43.053 -14.844   5.725  1.00  0.00     0.238 C 
HETATM    3  O   UNL     1      41.927 -14.887   6.223  1.00  0.00    -0.272 OA
HETATM    4  H   UNL     1      44.927 -13.886   5.746  1.00  0.00     0.190 HD
ENDROOT
BRANCH   1   5
HETATM    5  N   UNL     1      43.790 -13.361   7.417  1.00  0.00    -0.262 N 
HETATM    6  C   UNL     1      44.808 -12.852   8.194  1.00  0.00     0.288 C 
HETATM    7  O   UNL     1      45.991 -12.917   7.869  1.00  0.00    -0.264 OA
HETATM    8  H   UNL     1      42.821 -13.386   7.721  1.00  0.00     0.190 HD
BRANCH   6   9
HETATM    9  C   UNL     1      44.380 -12.240   9.423  1.00  0.00     0.121 A 
HETATM   10  N   UNL     1      44.164 -12.973  10.556  1.00  0.00    -0.272 N 
HETATM   11  N   UNL     1      43.743 -12.253  11.606  1.00  0.00    -0.174 NA
HETATM   12  H   UNL     1      44.279 -13.977  10.662  1.00  0.00     0.189 HD
HETATM   13  C   UNL     1      43.691 -10.989  11.156  1.00  0.00     0.089 A 
HETATM   14  C   UNL     1      44.088 -10.941   9.789  1.00  0.00     0.071 A 
BRANCH  13  15
HETATM   15  C   UNL     1      43.261  -9.877  12.014  1.00  0.00    -0.006 A 
HETATM   16  C   UNL     1      42.792  -8.674  11.465  1.00  0.00     0.014 A 
HETATM   17  C   UNL     1      42.372  -7.628  12.293  1.00  0.00     0.001 A 
HETATM   18  C   UNL     1      42.415  -7.770  13.676  1.00  0.00     0.000 A 
HETATM   19  C   UNL     1      42.882  -8.956  14.238  1.00  0.00     0.001 A 
HETATM   20  C   UNL     1      43.303 -10.002  13.411  1.00  0.00     0.014 A 
ENDBRANCH  13  15
ENDBRANCH   6   9
ENDBRANCH   1   5
BRANCH   2  21
HETATM   21  C   UNL     1      43.396 -15.569   4.451  1.00  0.00     0.134 C 
BRANCH  21  22
HETATM   22  C   UNL     1      42.450 -16.754   4.238  1.00  0.00     0.128 C 
BRANCH  22  23
HETATM   23  N   UNL     1      41.708 -16.814   2.979  1.00  0.00    -0.334 N 
HETATM   24  C   UNL     1      40.687 -16.006   2.599  1.00  0.00     0.314 C 
HETATM   25  N   UNL     1      40.304 -16.211   1.316  1.00  0.00    -0.352 N 
HETATM   26  O   UNL     1      40.106 -15.204   3.312  1.00  0.00    -0.248 OA
HETATM   27  H   UNL     1      41.013 -16.426   0.631  1.00  0.00     0.160 HD
HETATM   28  H   UNL     1      39.589 -15.568   0.997  1.00  0.00     0.160 HD
HETATM   29  H   UNL     1      42.078 -17.434   2.274  1.00  0.00     0.165 HD
ENDBRANCH  22  23
BRANCH  22  30
HETATM   30  C   UNL     1      43.183 -18.069   4.467  1.00  0.00    -0.035 A 
HETATM   31  C   UNL     1      43.703 -18.782   3.374  1.00  0.00     0.011 A 
HETATM   32  C   UNL     1      44.358 -20.001   3.566  1.00  0.00     0.024 A 
HETATM   33  C   UNL     1      44.499 -20.517   4.850  1.00  0.00     0.034 A 
HETATM   34 CL   UNL     1      45.304 -22.020   5.084  1.00  0.00    -0.084 Cl
HETATM   35  C   UNL     1      43.989 -19.826   5.947  1.00  0.00     0.024 A 
HETATM   36  C   UNL     1      43.331 -18.609   5.756  1.00  0.00     0.011 A 
ENDBRANCH  22  30
ENDBRANCH  21  22
ENDBRANCH   2  21
TORSDOF 7
ENDMDL
MODEL 6
REMARK VINA RESULT:      -9.3      4.323     10.621
REMARK  7 active torsions:
REMARK  status: ('A' for Active; 'I' for Inactive)
REMARK    1  A    between atoms: C_4  and  C_5 
REMARK    2  A    between atoms: C_9  and  C_10 
REMARK       I    between atoms: C_10  and  N_11 
REMARK    3  A    between atoms: N_11  and  N_12 
REMARK       I    between atoms: N_12  and  C_13 
REMARK    4  A    between atoms: C_13  and  C_14 
REMARK    5  A    between atoms: C_14  and  C_15 
REMARK    6  A    between atoms: C_15  and  N_16 
REMARK    7  A    between atoms: C_15  and  C_20 
REMARK       I    between atoms: N_16  and  C_17 
REMARK       I    between atoms: C_17  and  N_18 
ROOT
HETATM    1  N   UNL     1      43.416 -12.539   7.727  1.00  0.00    -0.267 N 
HETATM    2  C   UNL     1      42.574 -11.453   7.638  1.00  0.00     0.238 C 
HETATM    3  O   UNL     1      41.764 -11.311   6.721  1.00  0.00    -0.272 OA
HETATM    4  H   UNL     1      43.889 -12.782   8.606  1.00  0.00     0.190 HD
ENDROOT
BRANCH   1   5
HETATM    5  N   UNL     1      43.251 -13.549   6.773  1.00  0.00    -0.262 N 
HETATM    6  C   UNL     1      43.742 -14.814   7.014  1.00  0.00     0.288 C 
HETATM    7  O   UNL     1      44.203 -15.153   8.101  1.00  0.00    -0.264 OA
HETATM    8  H   UNL     1      42.950 -13.239   5.853  1.00  0.00     0.190 HD
BRANCH   6   9
HETATM    9  C   UNL     1      43.680 -15.710   5.891  1.00  0.00     0.121 A 
HETATM   10  N   UNL     1      43.232 -15.301   4.666  1.00  0.00    -0.272 N 
HETATM   11  N   UNL     1      43.213 -16.267   3.736  1.00  0.00    -0.174 NA
HETATM   12  H   UNL     1      42.915 -14.369   4.415  1.00  0.00     0.189 HD
HETATM   13  C   UNL     1      43.679 -17.358   4.365  1.00  0.00     0.089 A 
HETATM   14  C   UNL     1      43.986 -17.046   5.720  1.00  0.00     0.071 A 
BRANCH  13  15
HETATM   15  C   UNL     1      43.807 -18.652   3.682  1.00  0.00    -0.006 A 
HETATM   16  C   UNL     1      43.195 -18.882   2.440  1.00  0.00     0.014 A 
HETATM   17  C   UNL     1      43.335 -20.113   1.792  1.00  0.00     0.001 A 
HETATM   18  C   UNL     1      44.088 -21.128   2.375  1.00  0.00     0.000 A 
HETATM   19  C   UNL     1      44.698 -20.918   3.609  1.00  0.00     0.001 A 
HETATM   20  C   UNL     1      44.557 -19.688   4.258  1.00  0.00     0.014 A 
ENDBRANCH  13  15
ENDBRANCH   6   9
ENDBRANCH   1   5
BRANCH   2  21
HETATM   21  C   UNL     1      42.715 -10.446   8.748  1.00  0.00     0.134 C 
BRANCH  21  22
HETATM   22  C   UNL     1      41.412 -10.342   9.546  1.00  0.00     0.128 C 
BRANCH  22  23
HETATM   23  N   UNL     1      40.465 -11.453   9.448  1.00  0.00    -0.334 N 
HETATM   24  C   UNL     1      39.214 -11.410   8.927  1.00  0.00     0.314 C 
HETATM   25  N   UNL     1      38.639 -12.633   8.839  1.00  0.00    -0.352 N 
HETATM   26  O   UNL     1      38.606 -10.400   8.607  1.00  0.00    -0.248 OA
HETATM   27  H   UNL     1      39.220 -13.422   8.599  1.00  0.00     0.160 HD
HETATM   28  H   UNL     1      37.731 -12.625   8.389  1.00  0.00     0.160 HD
HETATM   29  H   UNL     1      40.828 -12.367   9.672  1.00  0.00     0.165 HD
ENDBRANCH  22  23
BRANCH  22  30
HETATM   30  C   UNL     1      41.706 -10.043  11.010  1.00  0.00    -0.035 A 
HETATM   31  C   UNL     1      43.035  -9.999  11.464  1.00  0.00     0.011 A 
HETATM   32  C   UNL     1      43.320  -9.748  12.808  1.00  0.00     0.024 A 
HETATM   33  C   UNL     1      42.280  -9.541  13.710  1.00  0.00     0.034 A 
HETATM   34 CL   UNL     1      42.633  -9.235  15.366  1.00  0.00    -0.084 Cl
HETATM   35  C   UNL     1      40.956  -9.583  13.280  1.00  0.00     0.024 A 
HETATM   36  C   UNL     1      40.670  -9.836  11.936  1.00  0.00     0.011 A 
ENDBRANCH  22  30
ENDBRANCH  21  22
ENDBRANCH   2  21
TORSDOF 7
ENDMDL
MODEL 7
REMARK VINA RESULT:      -9.0      7.371     11.809
REMARK  7 active torsions:
REMARK  status: ('A' for Active; 'I' for Inactive)
REMARK    1  A    between atoms: C_4  and  C_5 
REMARK    2  A    between atoms: C_9  and  C_10 
REMARK       I    between atoms: C_10  and  N_11 
REMARK    3  A    between atoms: N_11  and  N_12 
REMARK       I    between atoms: N_12  and  C_13 
REMARK    4  A    between atoms: C_13  and  C_14 
REMARK    5  A    between atoms: C_14  and  C_15 
REMARK    6  A    between atoms: C_15  and  N_16 
REMARK    7  A    between atoms: C_15  and  C_20 
REMARK       I    between atoms: N_16  and  C_17 
REMARK       I    between atoms: C_17  and  N_18 
ROOT
HETATM    1  N   UNL     1      41.878 -15.825  -0.397  1.00  0.00    -0.267 N 
HETATM    2  C   UNL     1      41.950 -16.888   0.476  1.00  0.00     0.238 C 
HETATM    3  O   UNL     1      40.982 -17.605   0.733  1.00  0.00    -0.272 OA
HETATM    4  H   UNL     1      42.723 -15.405  -0.803  1.00  0.00     0.190 HD
ENDROOT
BRANCH   1   5
HETATM    5  N   UNL     1      40.666 -15.639  -1.073  1.00  0.00    -0.262 N 
HETATM    6  C   UNL     1      40.660 -15.428  -2.435  1.00  0.00     0.288 C 
HETATM    7  O   UNL     1      41.667 -15.535  -3.130  1.00  0.00    -0.264 OA
HETATM    8  H   UNL     1      39.857 -15.468  -0.483  1.00  0.00     0.190 HD
BRANCH   6   9
HETATM    9  C   UNL     1      39.381 -15.065  -2.983  1.00  0.00     0.121 A 
HETATM   10  N   UNL     1      38.521 -16.000  -3.487  1.00  0.00    -0.272 N 
HETATM   11  N   UNL     1      37.384 -15.492  -3.983  1.00  0.00    -0.174 NA
HETATM   12  H   UNL     1      38.670 -17.004  -3.527  1.00  0.00     0.189 HD
HETATM   13  C   UNL     1      37.487 -14.167  -3.789  1.00  0.00     0.089 A 
HETATM   14  C   UNL     1      38.728 -13.862  -3.159  1.00  0.00     0.071 A 
BRANCH  13  15
HETATM   15  C   UNL     1      36.431 -13.237  -4.209  1.00  0.00    -0.006 A 
HETATM   16  C   UNL     1      36.338 -11.947  -3.664  1.00  0.00     0.014 A 
HETATM   17  C   UNL     1      35.336 -11.066  -4.082  1.00  0.00     0.001 A 
HETATM   18  C   UNL     1      34.416 -11.461  -5.049  1.00  0.00     0.000 A 
HETATM   19  C   UNL     1      34.491 -12.739  -5.597  1.00  0.00     0.001 A 
HETATM   20  C   UNL     1      35.491 -13.621  -5.178  1.00  0.00     0.014 A 
ENDBRANCH  13  15
ENDBRANCH   6   9
ENDBRANCH   1   5
BRANCH   2  21
HETATM   21  C   UNL     1      43.303 -17.113   1.095  1.00  0.00     0.134 C 
BRANCH  21  22
HETATM   22  C   UNL     1      43.207 -17.067   2.623  1.00  0.00     0.128 C 
BRANCH  22  23
HETATM   23  N   UNL     1      41.917 -16.710   3.212  1.00  0.00    -0.334 N 
HETATM   24  C   UNL     1      41.639 -15.609   3.954  1.00  0.00     0.314 C 
HETATM   25  N   UNL     1      40.320 -15.480   4.231  1.00  0.00    -0.352 N 
HETATM   26  O   UNL     1      42.459 -14.819   4.396  1.00  0.00    -0.248 OA
HETATM   27  H   UNL     1      39.652 -15.751   3.525  1.00  0.00     0.160 HD
HETATM   28  H   UNL     1      40.090 -14.626   4.726  1.00  0.00     0.160 HD
HETATM   29  H   UNL     1      41.128 -17.272   2.930  1.00  0.00     0.165 HD
ENDBRANCH  22  23
BRANCH  22  30
HETATM   30  C   UNL     1      43.706 -18.373   3.227  1.00  0.00    -0.035 A 
HETATM   31  C   UNL     1      44.003 -18.443   4.598  1.00  0.00     0.011 A 
HETATM   32  C   UNL     1      44.484 -19.626   5.163  1.00  0.00     0.024 A 
HETATM   33  C   UNL     1      44.672 -20.750   4.363  1.00  0.00     0.034 A 
HETATM   34 CL   UNL     1      45.266 -22.206   5.059  1.00  0.00    -0.084 Cl
HETATM   35  C   UNL     1      44.385 -20.699   3.001  1.00  0.00     0.024 A 
HETATM   36  C   UNL     1      43.908 -19.515   2.434  1.00  0.00     0.011 A 
ENDBRANCH  22  30
ENDBRANCH  21  22
ENDBRANCH   2  21
TORSDOF 7
ENDMDL
MODEL 8
REMARK VINA RESULT:      -8.8      2.846      3.070
REMARK  7 active torsions:
REMARK  status: ('A' for Active; 'I' for Inactive)
REMARK    1  A    between atoms: C_4  and  C_5 
REMARK    2  A    between atoms: C_9  and  C_10 
REMARK       I    between atoms: C_10  and  N_11 
REMARK    3  A    between atoms: N_11  and  N_12 
REMARK       I    between atoms: N_12  and  C_13 
REMARK    4  A    between atoms: C_13  and  C_14 
REMARK    5  A    between atoms: C_14  and  C_15 
REMARK    6  A    between atoms: C_15  and  N_16 
REMARK    7  A    between atoms: C_15  and  C_20 
REMARK       I    between atoms: N_16  and  C_17 
REMARK       I    between atoms: C_17  and  N_18 
ROOT
HETATM    1  N   UNL     1      42.070 -13.675   4.993  1.00  0.00    -0.267 N 
HETATM    2  C   UNL     1      42.958 -14.727   4.990  1.00  0.00     0.238 C 
HETATM    3  O   UNL     1      43.547 -15.104   6.005  1.00  0.00    -0.272 OA
HETATM    4  H   UNL     1      41.399 -13.536   4.228  1.00  0.00     0.190 HD
ENDROOT
BRANCH   1   5
HETATM    5  N   UNL     1      41.777 -13.094   6.232  1.00  0.00    -0.262 N 
HETATM    6  C   UNL     1      41.577 -11.734   6.328  1.00  0.00     0.288 C 
HETATM    7  O   UNL     1      41.500 -11.002   5.345  1.00  0.00    -0.264 OA
HETATM    8  H   UNL     1      41.927 -13.689   7.042  1.00  0.00     0.190 HD
BRANCH   6   9
HETATM    9  C   UNL     1      41.470 -11.232   7.672  1.00  0.00     0.121 A 
HETATM   10  N   UNL     1      40.277 -11.205   8.337  1.00  0.00    -0.272 N 
HETATM   11  N   UNL     1      40.347 -10.683   9.570  1.00  0.00    -0.174 NA
HETATM   12  H   UNL     1      39.378 -11.522   7.988  1.00  0.00     0.189 HD
HETATM   13  C   UNL     1      41.642 -10.363   9.735  1.00  0.00     0.089 A 
HETATM   14  C   UNL     1      42.379 -10.697   8.563  1.00  0.00     0.071 A 
BRANCH  13  15
HETATM   15  C   UNL     1      42.137  -9.746  10.972  1.00  0.00    -0.006 A 
HETATM   16  C   UNL     1      41.730  -8.460  11.358  1.00  0.00     0.014 A 
HETATM   17  C   UNL     1      42.198  -7.889  12.545  1.00  0.00     0.001 A 
HETATM   18  C   UNL     1      43.077  -8.594  13.361  1.00  0.00     0.000 A 
HETATM   19  C   UNL     1      43.495  -9.870  12.991  1.00  0.00     0.001 A 
HETATM   20  C   UNL     1      43.029 -10.441  11.804  1.00  0.00     0.014 A 
ENDBRANCH  13  15
ENDBRANCH   6   9
ENDBRANCH   1   5
BRANCH   2  21
HETATM   21  C   UNL     1      43.158 -15.388   3.653  1.00  0.00     0.134 C 
BRANCH  21  22
HETATM   22  C   UNL     1      42.091 -16.462   3.422  1.00  0.00     0.128 C 
BRANCH  22  23
HETATM   23  N   UNL     1      41.080 -16.204   2.396  1.00  0.00    -0.334 N 
HETATM   24  C   UNL     1      40.053 -15.322   2.472  1.00  0.00     0.314 C 
HETATM   25  N   UNL     1      39.376 -15.202   1.305  1.00  0.00    -0.352 N 
HETATM   26  O   UNL     1      39.700 -14.718   3.473  1.00  0.00    -0.248 OA
HETATM   27  H   UNL     1      39.895 -15.244   0.441  1.00  0.00     0.160 HD
HETATM   28  H   UNL     1      38.649 -14.496   1.327  1.00  0.00     0.160 HD
HETATM   29  H   UNL     1      41.240 -16.632   1.497  1.00  0.00     0.165 HD
ENDBRANCH  22  23
BRANCH  22  30
HETATM   30  C   UNL     1      42.742 -17.816   3.175  1.00  0.00    -0.035 A 
HETATM   31  C   UNL     1      43.574 -18.383   4.155  1.00  0.00     0.011 A 
HETATM   32  C   UNL     1      44.197 -19.614   3.934  1.00  0.00     0.024 A 
HETATM   33  C   UNL     1      43.994 -20.288   2.733  1.00  0.00     0.034 A 
HETATM   34 CL   UNL     1      44.765 -21.802   2.462  1.00  0.00    -0.084 Cl
HETATM   35  C   UNL     1      43.175 -19.741   1.749  1.00  0.00     0.024 A 
HETATM   36  C   UNL     1      42.554 -18.508   1.967  1.00  0.00     0.011 A 
ENDBRANCH  22  30
ENDBRANCH  21  22
ENDBRANCH   2  21
TORSDOF 7
ENDMDL
MODEL 9
REMARK VINA RESULT:      -8.7      7.756     11.417
REMARK  7 active torsions:
REMARK  status: ('A' for Active; 'I' for Inactive)
REMARK    1  A    between atoms: C_4  and  C_5 
REMARK    2  A    between atoms: C_9  and  C_10 
REMARK       I    between atoms: C_10  and  N_11 
REMARK    3  A    between atoms: N_11  and  N_12 
REMARK       I    between atoms: N_12  and  C_13 
REMARK    4  A    between atoms: C_13  and  C_14 
REMARK    5  A    between atoms: C_14  and  C_15 
REMARK    6  A    between atoms: C_15  and  N_16 
REMARK    7  A    between atoms: C_15  and  C_20 
REMARK       I    between atoms: N_16  and  C_17 
REMARK       I    between atoms: C_17  and  N_18 
ROOT
HETATM    1  N   UNL     1      38.846 -14.671   0.295  1.00  0.00    -0.267 N 
HETATM    2  C   UNL     1      39.325 -13.945  -0.772  1.00  0.00     0.238 C 
HETATM    3  O   UNL     1      40.522 -13.895  -1.060  1.00  0.00    -0.272 OA
HETATM    4  H   UNL     1      37.853 -14.921   0.373  1.00  0.00     0.190 HD
ENDROOT
BRANCH   1   5
HETATM    5  N   UNL     1      39.772 -15.447   1.003  1.00  0.00    -0.262 N 
HETATM    6  C   UNL     1      40.040 -15.168   2.325  1.00  0.00     0.288 C 
HETATM    7  O   UNL     1      39.397 -14.348   2.976  1.00  0.00    -0.264 OA
HETATM    8  H   UNL     1      40.354 -16.059   0.437  1.00  0.00     0.190 HD
BRANCH   6   9
HETATM    9  C   UNL     1      41.138 -15.907   2.888  1.00  0.00     0.121 A 
HETATM   10  N   UNL     1      42.150 -15.289   3.567  1.00  0.00    -0.272 N 
HETATM   11  N   UNL     1      43.107 -16.120   4.003  1.00  0.00    -0.174 NA
HETATM   12  H   UNL     1      42.240 -14.295   3.751  1.00  0.00     0.189 HD
HETATM   13  C   UNL     1      42.709 -17.341   3.609  1.00  0.00     0.089 A 
HETATM   14  C   UNL     1      41.472 -17.246   2.908  1.00  0.00     0.071 A 
BRANCH  13  15
HETATM   15  C   UNL     1      43.502 -18.544   3.891  1.00  0.00    -0.006 A 
HETATM   16  C   UNL     1      43.999 -19.347   2.853  1.00  0.00     0.014 A 
HETATM   17  C   UNL     1      44.765 -20.483   3.132  1.00  0.00     0.001 A 
HETATM   18  C   UNL     1      45.043 -20.831   4.450  1.00  0.00     0.000 A 
HETATM   19  C   UNL     1      44.553 -20.049   5.493  1.00  0.00     0.001 A 
HETATM   20  C   UNL     1      43.786 -18.914   5.214  1.00  0.00     0.014 A 
ENDBRANCH  13  15
ENDBRANCH   6   9
ENDBRANCH   1   5
BRANCH   2  21
HETATM   21  C   UNL     1      38.277 -13.214  -1.567  1.00  0.00     0.134 C 
BRANCH  21  22
HETATM   22  C   UNL     1      38.182 -13.788  -2.984  1.00  0.00     0.128 C 
BRANCH  22  23
HETATM   23  N   UNL     1      38.307 -15.237  -3.140  1.00  0.00    -0.334 N 
HETATM   24  C   UNL     1      39.390 -15.915  -3.594  1.00  0.00     0.314 C 
HETATM   25  N   UNL     1      39.255 -17.258  -3.482  1.00  0.00    -0.352 N 
HETATM   26  O   UNL     1      40.381 -15.419  -4.107  1.00  0.00    -0.248 OA
HETATM   27  H   UNL     1      38.775 -17.627  -2.675  1.00  0.00     0.160 HD
HETATM   28  H   UNL     1      40.084 -17.774  -3.754  1.00  0.00     0.160 HD
HETATM   29  H   UNL     1      37.560 -15.792  -2.750  1.00  0.00     0.165 HD
ENDBRANCH  22  23
BRANCH  22  30
HETATM   30  C   UNL     1      36.912 -13.303  -3.671  1.00  0.00    -0.035 A 
HETATM   31  C   UNL     1      36.409 -12.022  -3.390  1.00  0.00     0.011 A 
HETATM   32  C   UNL     1      35.233 -11.572  -3.995  1.00  0.00     0.024 A 
HETATM   33  C   UNL     1      34.551 -12.397  -4.885  1.00  0.00     0.034 A 
HETATM   34 CL   UNL     1      33.102 -11.841  -5.627  1.00  0.00    -0.084 Cl
HETATM   35  C   UNL     1      35.034 -13.670  -5.175  1.00  0.00     0.024 A 
HETATM   36  C   UNL     1      36.208 -14.124  -4.568  1.00  0.00     0.011 A 
ENDBRANCH  22  30
ENDBRANCH  21  22
ENDBRANCH   2  21
TORSDOF 7
ENDMDL
MODEL 10
REMARK VINA RESULT:      -8.7      2.525      2.904
REMARK  7 active torsions:
REMARK  status: ('A' for Active; 'I' for Inactive)
REMARK    1  A    between atoms: C_4  and  C_5 
REMARK    2  A    between atoms: C_9  and  C_10 
REMARK       I    between atoms: C_10  and  N_11 
REMARK    3  A    between atoms: N_11  and  N_12 
REMARK       I    between atoms: N_12  and  C_13 
REMARK    4  A    between atoms: C_13  and  C_14 
REMARK    5  A    between atoms: C_14  and  C_15 
REMARK    6  A    between atoms: C_15  and  N_16 
REMARK    7  A    between atoms: C_15  and  C_20 
REMARK       I    between atoms: N_16  and  C_17 
REMARK       I    between atoms: C_17  and  N_18 
ROOT
HETATM    1  N   UNL     1      44.460 -13.652   7.024  1.00  0.00    -0.267 N 
HETATM    2  C   UNL     1      43.571 -13.844   5.990  1.00  0.00     0.238 C 
HETATM    3  O   UNL     1      42.377 -13.555   6.077  1.00  0.00    -0.272 OA
HETATM    4  H   UNL     1      45.475 -13.645   6.866  1.00  0.00     0.190 HD
ENDROOT
BRANCH   1   5
HETATM    5  N   UNL     1      43.973 -13.014   8.171  1.00  0.00    -0.262 N 
HETATM    6  C   UNL     1      44.844 -12.609   9.159  1.00  0.00     0.288 C 
HETATM    7  O   UNL     1      46.065 -12.649   9.028  1.00  0.00    -0.264 OA
HETATM    8  H   UNL     1      42.967 -13.064   8.307  1.00  0.00     0.190 HD
BRANCH   6   9
HETATM    9  C   UNL     1      44.214 -12.139  10.364  1.00  0.00     0.121 A 
HETATM   10  N   UNL     1      44.062 -12.943  11.457  1.00  0.00    -0.272 N 
HETATM   11  N   UNL     1      43.431 -12.359  12.486  1.00  0.00    -0.174 NA
HETATM   12  H   UNL     1      44.362 -13.909  11.549  1.00  0.00     0.189 HD
HETATM   13  C   UNL     1      43.166 -11.111  12.063  1.00  0.00     0.089 A 
HETATM   14  C   UNL     1      43.647 -10.936  10.734  1.00  0.00     0.071 A 
BRANCH  13  15
HETATM   15  C   UNL     1      42.464 -10.138  12.909  1.00  0.00    -0.006 A 
HETATM   16  C   UNL     1      43.129  -9.460  13.942  1.00  0.00     0.014 A 
HETATM   17  C   UNL     1      42.453  -8.525  14.733  1.00  0.00     0.001 A 
HETATM   18  C   UNL     1      41.107  -8.256  14.502  1.00  0.00     0.000 A 
HETATM   19  C   UNL     1      40.432  -8.924  13.484  1.00  0.00     0.001 A 
HETATM   20  C   UNL     1      41.106  -9.860  12.694  1.00  0.00     0.014 A 
ENDBRANCH  13  15
ENDBRANCH   6   9
ENDBRANCH   1   5
BRANCH   2  21
HETATM   21  C   UNL     1      44.166 -14.433   4.740  1.00  0.00     0.134 C 
BRANCH  21  22
HETATM   22  C   UNL     1      43.063 -14.787   3.738  1.00  0.00     0.128 C 
BRANCH  22  23
HETATM   23  N   UNL     1      42.885 -13.905   2.585  1.00  0.00    -0.334 N 
HETATM   24  C   UNL     1      42.018 -12.867   2.482  1.00  0.00     0.314 C 
HETATM   25  N   UNL     1      42.192 -12.147   1.349  1.00  0.00    -0.352 N 
HETATM   26  O   UNL     1      41.124 -12.602   3.271  1.00  0.00    -0.248 OA
HETATM   27  H   UNL     1      43.131 -12.009   1.005  1.00  0.00     0.160 HD
HETATM   28  H   UNL     1      41.597 -11.328   1.292  1.00  0.00     0.160 HD
HETATM   29  H   UNL     1      43.563 -13.999   1.844  1.00  0.00     0.165 HD
ENDBRANCH  22  23
BRANCH  22  30
HETATM   30  C   UNL     1      43.214 -16.228   3.266  1.00  0.00    -0.035 A 
HETATM   31  C   UNL     1      43.508 -16.498   1.920  1.00  0.00     0.011 A 
HETATM   32  C   UNL     1      43.627 -17.814   1.467  1.00  0.00     0.024 A 
HETATM   33  C   UNL     1      43.452 -18.871   2.356  1.00  0.00     0.034 A 
HETATM   34 CL   UNL     1      43.596 -20.491   1.797  1.00  0.00    -0.084 Cl
HETATM   35  C   UNL     1      43.158 -18.623   3.695  1.00  0.00     0.024 A 
HETATM   36  C   UNL     1      43.036 -17.307   4.148  1.00  0.00     0.011 A 
ENDBRANCH  22  30
ENDBRANCH  21  22
ENDBRANCH   2  21
TORSDOF 7
ENDMDL
