MODEL 1
REMARK VINA RESULT:      -8.3      0.000      0.000
REMARK  6 active torsions:
REMARK  status: ('A' for Active; 'I' for Inactive)
REMARK    1  A    between atoms: C_7  and  C_8 
REMARK    2  A    between atoms: C_8  and  N_9 
REMARK       I    between atoms: N_9  and  C_10 
REMARK       I    between atoms: C_10  and  N_11 
REMARK    3  A    between atoms: N_11  and  C_12 
REMARK    4  A    between atoms: C_14  and  C_15 
REMARK    5  A    between atoms: C_15  and  O_16 
REMARK    6  A    between atoms: O_16  and  C_17 
ROOT
HETATM    1  C   UNL     1      44.142 -14.709   6.557  1.00  0.00     0.036 A 
HETATM    2  C   UNL     1      44.240 -16.099   6.678  1.00  0.00     0.038 A 
HETATM    3  C   UNL     1      43.196 -16.935   6.240  1.00  0.00    -0.032 A 
HETATM    4  C   UNL     1      42.054 -16.361   5.665  1.00  0.00     0.009 A 
HETATM    5  C   UNL     1      41.961 -14.981   5.513  1.00  0.00     0.003 A 
HETATM    6  C   UNL     1      43.001 -14.164   5.953  1.00  0.00     0.029 A 
ENDROOT
BRANCH   1   7
HETATM    7  N   UNL     1      45.129 -13.790   6.956  1.00  0.00    -0.309 N 
HETATM    8  C   UNL     1      45.336 -13.049   8.075  1.00  0.00     0.320 C 
HETATM    9  N   UNL     1      44.326 -12.938   8.973  1.00  0.00    -0.339 N 
HETATM   10  O   UNL     1      46.413 -12.471   8.210  1.00  0.00    -0.247 OA
HETATM   11  H   UNL     1      43.403 -12.954   8.566  1.00  0.00     0.164 HD
HETATM   12  H   UNL     1      45.894 -13.654   6.305  1.00  0.00     0.170 HD
BRANCH   9  13
HETATM   13  C   UNL     1      44.494 -12.073  10.116  1.00  0.00     0.166 C 
BRANCH  13  14
HETATM   14  C   UNL     1      43.306 -11.193  10.241  1.00  0.00     0.003 A 
HETATM   15  C   UNL     1      42.672 -10.755  11.396  1.00  0.00     0.035 A 
HETATM   16  C   UNL     1      42.951 -11.055  12.824  1.00  0.00     0.070 C 
HETATM   17  N   UNL     1      41.683  -9.900  10.977  1.00  0.00    -0.278 N 
HETATM   18  C   UNL     1      40.786  -9.105  11.780  1.00  0.00     0.179 C 
HETATM   19  N   UNL     1      41.596  -9.804   9.637  1.00  0.00    -0.185 NA
HETATM   20  C   UNL     1      42.591 -10.572   9.195  1.00  0.00     0.149 A 
ENDBRANCH  13  14
ENDBRANCH   9  13
ENDBRANCH   1   7
BRANCH   3  21
HETATM   21  C   UNL     1      43.276 -18.431   6.411  1.00  0.00     0.206 C 
BRANCH  21  22
HETATM   22  O   UNL     1      43.208 -19.053   5.130  1.00  0.00    -0.381 OA
BRANCH  22  23
HETATM   23  C   UNL     1      44.406 -18.897   4.362  1.00  0.00     0.121 C 
HETATM   24  C   UNL     1      45.208 -20.205   4.354  1.00  0.00     0.032 C 
HETATM   25  C   UNL     1      44.472 -21.331   3.628  1.00  0.00     0.002 C 
HETATM   26  C   UNL     1      44.070 -20.924   2.214  1.00  0.00     0.000 C 
HETATM   27  C   UNL     1      43.262 -19.629   2.210  1.00  0.00     0.002 C 
HETATM   28  C   UNL     1      44.000 -18.504   2.937  1.00  0.00     0.032 C 
ENDBRANCH  22  23
ENDBRANCH  21  22
ENDBRANCH   3  21
TORSDOF 6
ENDMDL
MODEL 2
REMARK VINA RESULT:      -8.2      1.672      2.484
REMARK  6 active torsions:
REMARK  status: ('A' for Active; 'I' for Inactive)
REMARK    1  A    between atoms: C_7  and  C_8 
REMARK    2  A    between atoms: C_8  and  N_9 
REMARK       I    between atoms: N_9  and  C_10 
REMARK       I    between atoms: C_10  and  N_11 
REMARK    3  A    between atoms: N_11  and  C_12 
REMARK    4  A    between atoms: C_14  and  C_15 
REMARK    5  A    between atoms: C_15  and  O_16 
REMARK    6  A    between atoms: O_16  and  C_17 
ROOT
HETATM    1  C   UNL     1      43.942 -15.099   6.822  1.00  0.00     0.036 A 
HETATM    2  C   UNL     1      42.967 -14.982   5.825  1.00  0.00     0.038 A 
HETATM    3  C   UNL     1      41.944 -15.940   5.703  1.00  0.00    -0.032 A 
HETATM    4  C   UNL     1      41.900 -17.015   6.602  1.00  0.00     0.009 A 
HETATM    5  C   UNL     1      42.847 -17.123   7.615  1.00  0.00     0.003 A 
HETATM    6  C   UNL     1      43.857 -16.168   7.725  1.00  0.00     0.029 A 
ENDROOT
BRANCH   1   7
HETATM    7  N   UNL     1      44.997 -14.194   7.033  1.00  0.00    -0.309 N 
HETATM    8  C   UNL     1      45.194 -13.150   7.878  1.00  0.00     0.320 C 
HETATM    9  N   UNL     1      44.130 -12.661   8.562  1.00  0.00    -0.339 N 
HETATM   10  O   UNL     1      46.319 -12.659   7.960  1.00  0.00    -0.247 OA
HETATM   11  H   UNL     1      43.253 -12.726   8.068  1.00  0.00     0.164 HD
HETATM   12  H   UNL     1      45.828 -14.347   6.473  1.00  0.00     0.170 HD
BRANCH   9  13
HETATM   13  C   UNL     1      44.303 -11.490   9.387  1.00  0.00     0.166 C 
BRANCH  13  14
HETATM   14  C   UNL     1      42.975 -11.024   9.858  1.00  0.00     0.003 A 
HETATM   15  C   UNL     1      42.485 -10.974  11.156  1.00  0.00     0.035 A 
HETATM   16  C   UNL     1      43.104 -11.400  12.437  1.00  0.00     0.070 C 
HETATM   17  N   UNL     1      41.247 -10.388  11.065  1.00  0.00    -0.278 N 
HETATM   18  C   UNL     1      40.347 -10.023  12.133  1.00  0.00     0.179 C 
HETATM   19  N   UNL     1      40.880 -10.114   9.799  1.00  0.00    -0.185 NA
HETATM   20  C   UNL     1      41.935 -10.481   9.073  1.00  0.00     0.149 A 
ENDBRANCH  13  14
ENDBRANCH   9  13
ENDBRANCH   1   7
BRANCH   3  21
HETATM   21  C   UNL     1      40.919 -15.844   4.600  1.00  0.00     0.206 C 
BRANCH  21  22
HETATM   22  O   UNL     1      41.562 -16.059   3.345  1.00  0.00    -0.381 OA
BRANCH  22  23
HETATM   23  C   UNL     1      41.368 -17.380   2.830  1.00  0.00     0.121 C 
HETATM   24  C   UNL     1      41.181 -17.335   1.307  1.00  0.00     0.032 C 
HETATM   25  C   UNL     1      42.440 -16.858   0.582  1.00  0.00     0.002 C 
HETATM   26  C   UNL     1      43.660 -17.692   0.962  1.00  0.00     0.000 C 
HETATM   27  C   UNL     1      43.862 -17.734   2.474  1.00  0.00     0.002 C 
HETATM   28  C   UNL     1      42.603 -18.211   3.197  1.00  0.00     0.032 C 
ENDBRANCH  22  23
ENDBRANCH  21  22
ENDBRANCH   3  21
TORSDOF 6
ENDMDL
MODEL 3
REMARK VINA RESULT:      -8.1      4.908      7.679
REMARK  6 active torsions:
REMARK  status: ('A' for Active; 'I' for Inactive)
REMARK    1  A    between atoms: C_7  and  C_8 
REMARK    2  A    between atoms: C_8  and  N_9 
REMARK       I    between atoms: N_9  and  C_10 
REMARK       I    between atoms: C_10  and  N_11 
REMARK    3  A    between atoms: N_11  and  C_12 
REMARK    4  A    between atoms: C_14  and  C_15 
REMARK    5  A    between atoms: C_15  and  O_16 
REMARK    6  A    between atoms: O_16  and  C_17 
ROOT
HETATM    1  C   UNL     1      41.260 -15.851   4.428  1.00  0.00     0.036 A 
HETATM    2  C   UNL     1      41.670 -17.140   4.783  1.00  0.00     0.038 A 
HETATM    3  C   UNL     1      42.766 -17.335   5.644  1.00  0.00    -0.032 A 
HETATM    4  C   UNL     1      43.442 -16.219   6.156  1.00  0.00     0.009 A 
HETATM    5  C   UNL     1      43.023 -14.933   5.832  1.00  0.00     0.003 A 
HETATM    6  C   UNL     1      41.937 -14.753   4.978  1.00  0.00     0.029 A 
ENDROOT
BRANCH   1   7
HETATM    7  N   UNL     1      40.176 -15.550   3.584  1.00  0.00    -0.309 N 
HETATM    8  C   UNL     1      40.029 -15.424   2.240  1.00  0.00     0.320 C 
HETATM    9  N   UNL     1      41.144 -15.347   1.472  1.00  0.00    -0.339 N 
HETATM   10  O   UNL     1      38.894 -15.341   1.774  1.00  0.00    -0.247 OA
HETATM   11  H   UNL     1      41.926 -14.893   1.918  1.00  0.00     0.164 HD
HETATM   12  H   UNL     1      39.280 -15.431   4.042  1.00  0.00     0.170 HD
BRANCH   9  13
HETATM   13  C   UNL     1      41.005 -15.112   0.054  1.00  0.00     0.166 C 
BRANCH  13  14
HETATM   14  C   UNL     1      41.627 -13.809  -0.288  1.00  0.00     0.003 A 
HETATM   15  C   UNL     1      41.908 -13.287  -1.543  1.00  0.00     0.035 A 
HETATM   16  C   UNL     1      41.720 -13.872  -2.895  1.00  0.00     0.070 C 
HETATM   17  N   UNL     1      42.398 -12.024  -1.321  1.00  0.00    -0.278 N 
HETATM   18  C   UNL     1      42.763 -11.020  -2.292  1.00  0.00     0.179 C 
HETATM   19  N   UNL     1      42.509 -11.719  -0.015  1.00  0.00    -0.185 NA
HETATM   20  C   UNL     1      42.024 -12.793   0.608  1.00  0.00     0.149 A 
ENDBRANCH  13  14
ENDBRANCH   9  13
ENDBRANCH   1   7
BRANCH   3  21
HETATM   21  C   UNL     1      43.242 -18.724   5.991  1.00  0.00     0.206 C 
BRANCH  21  22
HETATM   22  O   UNL     1      43.236 -19.528   4.814  1.00  0.00    -0.381 OA
BRANCH  22  23
HETATM   23  C   UNL     1      44.450 -19.436   4.061  1.00  0.00     0.121 C 
HETATM   24  C   UNL     1      45.232 -20.753   4.148  1.00  0.00     0.032 C 
HETATM   25  C   UNL     1      44.492 -21.912   3.479  1.00  0.00     0.002 C 
HETATM   26  C   UNL     1      44.123 -21.586   2.035  1.00  0.00     0.000 C 
HETATM   27  C   UNL     1      43.335 -20.283   1.937  1.00  0.00     0.002 C 
HETATM   28  C   UNL     1      44.075 -19.126   2.607  1.00  0.00     0.032 C 
ENDBRANCH  22  23
ENDBRANCH  21  22
ENDBRANCH   3  21
TORSDOF 6
ENDMDL
MODEL 4
REMARK VINA RESULT:      -8.0      2.432      3.124
REMARK  6 active torsions:
REMARK  status: ('A' for Active; 'I' for Inactive)
REMARK    1  A    between atoms: C_7  and  C_8 
REMARK    2  A    between atoms: C_8  and  N_9 
REMARK       I    between atoms: N_9  and  C_10 
REMARK       I    between atoms: C_10  and  N_11 
REMARK    3  A    between atoms: N_11  and  C_12 
REMARK    4  A    between atoms: C_14  and  C_15 
REMARK    5  A    between atoms: C_15  and  O_16 
REMARK    6  A    between atoms: O_16  and  C_17 
ROOT
HETATM    1  C   UNL     1      40.142 -14.472   5.674  1.00  0.00     0.036 A 
HETATM    2  C   UNL     1      40.917 -15.555   6.102  1.00  0.00     0.038 A 
HETATM    3  C   UNL     1      41.449 -16.470   5.174  1.00  0.00    -0.032 A 
HETATM    4  C   UNL     1      41.206 -16.279   3.807  1.00  0.00     0.009 A 
HETATM    5  C   UNL     1      40.463 -15.187   3.370  1.00  0.00     0.003 A 
HETATM    6  C   UNL     1      39.939 -14.290   4.299  1.00  0.00     0.029 A 
ENDROOT
BRANCH   1   7
HETATM    7  N   UNL     1      39.574 -13.501   6.517  1.00  0.00    -0.309 N 
HETATM    8  C   UNL     1      39.977 -12.285   6.968  1.00  0.00     0.320 C 
HETATM    9  N   UNL     1      41.275 -11.929   6.796  1.00  0.00    -0.339 N 
HETATM   10  O   UNL     1      39.163 -11.571   7.552  1.00  0.00    -0.247 OA
HETATM   11  H   UNL     1      41.925 -12.699   6.832  1.00  0.00     0.164 HD
HETATM   12  H   UNL     1      38.638 -13.701   6.853  1.00  0.00     0.170 HD
BRANCH   9  13
HETATM   13  C   UNL     1      41.742 -10.685   7.359  1.00  0.00     0.166 C 
BRANCH  13  14
HETATM   14  C   UNL     1      42.437 -10.959   8.640  1.00  0.00     0.003 A 
HETATM   15  C   UNL     1      41.983 -10.745   9.935  1.00  0.00     0.035 A 
HETATM   16  C   UNL     1      40.712 -10.152  10.425  1.00  0.00     0.070 C 
HETATM   17  N   UNL     1      42.962 -11.240  10.760  1.00  0.00    -0.278 N 
HETATM   18  C   UNL     1      42.952 -11.344  12.200  1.00  0.00     0.179 C 
HETATM   19  N   UNL     1      44.036 -11.701  10.094  1.00  0.00    -0.185 NA
HETATM   20  C   UNL     1      43.709 -11.547   8.812  1.00  0.00     0.149 A 
ENDBRANCH  13  14
ENDBRANCH   9  13
ENDBRANCH   1   7
BRANCH   3  21
HETATM   21  C   UNL     1      42.245 -17.666   5.634  1.00  0.00     0.206 C 
BRANCH  21  22
HETATM   22  O   UNL     1      42.590 -18.461   4.501  1.00  0.00    -0.381 OA
BRANCH  22  23
HETATM   23  C   UNL     1      43.948 -18.288   4.082  1.00  0.00     0.121 C 
HETATM   24  C   UNL     1      44.853 -19.316   4.774  1.00  0.00     0.032 C 
HETATM   25  C   UNL     1      44.535 -20.749   4.345  1.00  0.00     0.002 C 
HETATM   26  C   UNL     1      44.580 -20.908   2.829  1.00  0.00     0.000 C 
HETATM   27  C   UNL     1      43.675 -19.897   2.131  1.00  0.00     0.002 C 
HETATM   28  C   UNL     1      43.994 -18.466   2.561  1.00  0.00     0.032 C 
ENDBRANCH  22  23
ENDBRANCH  21  22
ENDBRANCH   3  21
TORSDOF 6
ENDMDL
MODEL 5
REMARK VINA RESULT:      -7.8      4.291      7.383
REMARK  6 active torsions:
REMARK  status: ('A' for Active; 'I' for Inactive)
REMARK    1  A    between atoms: C_7  and  C_8 
REMARK    2  A    between atoms: C_8  and  N_9 
REMARK       I    between atoms: N_9  and  C_10 
REMARK       I    between atoms: C_10  and  N_11 
REMARK    3  A    between atoms: N_11  and  C_12 
REMARK    4  A    between atoms: C_14  and  C_15 
REMARK    5  A    between atoms: C_15  and  O_16 
REMARK    6  A    between atoms: O_16  and  C_17 
ROOT
HETATM    1  C   UNL     1      42.456 -14.694   5.507  1.00  0.00     0.036 A 
HETATM    2  C   UNL     1      42.245 -16.073   5.411  1.00  0.00     0.038 A 
HETATM    3  C   UNL     1      43.148 -16.982   5.995  1.00  0.00    -0.032 A 
HETATM    4  C   UNL     1      44.262 -16.491   6.689  1.00  0.00     0.009 A 
HETATM    5  C   UNL     1      44.463 -15.120   6.816  1.00  0.00     0.003 A 
HETATM    6  C   UNL     1      43.563 -14.231   6.232  1.00  0.00     0.029 A 
ENDROOT
BRANCH   1   7
HETATM    7  N   UNL     1      41.613 -13.707   4.967  1.00  0.00    -0.309 N 
HETATM    8  C   UNL     1      41.386 -13.238   3.713  1.00  0.00     0.320 C 
HETATM    9  N   UNL     1      42.253 -13.580   2.728  1.00  0.00    -0.339 N 
HETATM   10  O   UNL     1      40.430 -12.486   3.527  1.00  0.00    -0.247 OA
HETATM   11  H   UNL     1      43.206 -13.700   3.035  1.00  0.00     0.164 HD
HETATM   12  H   UNL     1      40.994 -13.247   5.625  1.00  0.00     0.170 HD
BRANCH   9  13
HETATM   13  C   UNL     1      42.083 -13.009   1.413  1.00  0.00     0.166 C 
BRANCH  13  14
HETATM   14  C   UNL     1      41.701 -14.081   0.461  1.00  0.00     0.003 A 
HETATM   15  C   UNL     1      41.277 -13.958  -0.855  1.00  0.00     0.035 A 
HETATM   16  C   UNL     1      41.038 -12.749  -1.683  1.00  0.00     0.070 C 
HETATM   17  N   UNL     1      41.132 -15.242  -1.321  1.00  0.00    -0.278 N 
HETATM   18  C   UNL     1      40.794 -15.678  -2.655  1.00  0.00     0.179 C 
HETATM   19  N   UNL     1      41.374 -16.178  -0.385  1.00  0.00    -0.185 NA
HETATM   20  C   UNL     1      41.736 -15.474   0.686  1.00  0.00     0.149 A 
ENDBRANCH  13  14
ENDBRANCH   9  13
ENDBRANCH   1   7
BRANCH   3  21
HETATM   21  C   UNL     1      42.950 -18.471   5.853  1.00  0.00     0.206 C 
BRANCH  21  22
HETATM   22  O   UNL     1      42.914 -18.807   4.467  1.00  0.00    -0.381 OA
BRANCH  22  23
HETATM   23  C   UNL     1      44.199 -18.755   3.840  1.00  0.00     0.121 C 
HETATM   24  C   UNL     1      45.084 -19.903   4.344  1.00  0.00     0.032 C 
HETATM   25  C   UNL     1      44.548 -21.274   3.931  1.00  0.00     0.002 C 
HETATM   26  C   UNL     1      44.336 -21.365   2.423  1.00  0.00     0.000 C 
HETATM   27  C   UNL     1      43.448 -20.234   1.911  1.00  0.00     0.002 C 
HETATM   28  C   UNL     1      43.985 -18.865   2.326  1.00  0.00     0.032 C 
ENDBRANCH  22  23
ENDBRANCH  21  22
ENDBRANCH   3  21
TORSDOF 6
ENDMDL
MODEL 6
REMARK VINA RESULT:      -7.5      6.765      9.809
REMARK  6 active torsions:
REMARK  status: ('A' for Active; 'I' for Inactive)
REMARK    1  A    between atoms: C_7  and  C_8 
REMARK    2  A    between atoms: C_8  and  N_9 
REMARK       I    between atoms: N_9  and  C_10 
REMARK       I    between atoms: C_10  and  N_11 
REMARK    3  A    between atoms: N_11  and  C_12 
REMARK    4  A    between atoms: C_14  and  C_15 
REMARK    5  A    between atoms: C_15  and  O_16 
REMARK    6  A    between atoms: O_16  and  C_17 
ROOT
HETATM    1  C   UNL     1      41.658 -13.941   1.368  1.00  0.00     0.036 A 
HETATM    2  C   UNL     1      42.591 -14.631   2.150  1.00  0.00     0.038 A 
HETATM    3  C   UNL     1      42.173 -15.436   3.226  1.00  0.00    -0.032 A 
HETATM    4  C   UNL     1      40.804 -15.553   3.503  1.00  0.00     0.009 A 
HETATM    5  C   UNL     1      39.867 -14.895   2.712  1.00  0.00     0.003 A 
HETATM    6  C   UNL     1      40.294 -14.099   1.650  1.00  0.00     0.029 A 
ENDROOT
BRANCH   1   7
HETATM    7  N   UNL     1      41.972 -13.120   0.271  1.00  0.00    -0.309 N 
HETATM    8  C   UNL     1      41.822 -13.239  -1.074  1.00  0.00     0.320 C 
HETATM    9  N   UNL     1      41.504 -14.455  -1.584  1.00  0.00    -0.339 N 
HETATM   10  O   UNL     1      42.022 -12.253  -1.781  1.00  0.00    -0.247 OA
HETATM   11  H   UNL     1      41.882 -15.235  -1.069  1.00  0.00     0.164 HD
HETATM   12  H   UNL     1      42.365 -12.214   0.495  1.00  0.00     0.170 HD
BRANCH   9  13
HETATM   13  C   UNL     1      41.439 -14.620  -3.016  1.00  0.00     0.166 C 
BRANCH  13  14
HETATM   14  C   UNL     1      40.046 -14.945  -3.409  1.00  0.00     0.003 A 
HETATM   15  C   UNL     1      38.951 -14.096  -3.494  1.00  0.00     0.035 A 
HETATM   16  C   UNL     1      38.826 -12.648  -3.188  1.00  0.00     0.070 C 
HETATM   17  N   UNL     1      37.921 -14.863  -3.980  1.00  0.00    -0.278 N 
HETATM   18  C   UNL     1      36.585 -14.449  -4.337  1.00  0.00     0.179 C 
HETATM   19  N   UNL     1      38.257 -16.154  -4.155  1.00  0.00    -0.185 NA
HETATM   20  C   UNL     1      39.548 -16.197  -3.827  1.00  0.00     0.149 A 
ENDBRANCH  13  14
ENDBRANCH   9  13
ENDBRANCH   1   7
BRANCH   3  21
HETATM   21  C   UNL     1      43.177 -16.144   4.101  1.00  0.00     0.206 C 
BRANCH  21  22
HETATM   22  O   UNL     1      43.681 -17.284   3.408  1.00  0.00    -0.381 OA
BRANCH  22  23
HETATM   23  C   UNL     1      42.913 -18.469   3.639  1.00  0.00     0.121 C 
HETATM   24  C   UNL     1      43.274 -19.546   2.607  1.00  0.00     0.032 C 
HETATM   25  C   UNL     1      44.717 -20.029   2.754  1.00  0.00     0.002 C 
HETATM   26  C   UNL     1      45.011 -20.507   4.172  1.00  0.00     0.000 C 
HETATM   27  C   UNL     1      44.666 -19.440   5.207  1.00  0.00     0.002 C 
HETATM   28  C   UNL     1      43.223 -18.958   5.058  1.00  0.00     0.032 C 
ENDBRANCH  22  23
ENDBRANCH  21  22
ENDBRANCH   3  21
TORSDOF 6
ENDMDL
MODEL 7
REMARK VINA RESULT:      -7.5      1.887      2.537
REMARK  6 active torsions:
REMARK  status: ('A' for Active; 'I' for Inactive)
REMARK    1  A    between atoms: C_7  and  C_8 
REMARK    2  A    between atoms: C_8  and  N_9 
REMARK       I    between atoms: N_9  and  C_10 
REMARK       I    between atoms: C_10  and  N_11 
REMARK    3  A    between atoms: N_11  and  C_12 
REMARK    4  A    between atoms: C_14  and  C_15 
REMARK    5  A    between atoms: C_15  and  O_16 
REMARK    6  A    between atoms: O_16  and  C_17 
ROOT
HETATM    1  C   UNL     1      42.709 -14.070   5.835  1.00  0.00     0.036 A 
HETATM    2  C   UNL     1      42.205 -15.371   5.739  1.00  0.00     0.038 A 
HETATM    3  C   UNL     1      42.963 -16.472   6.181  1.00  0.00    -0.032 A 
HETATM    4  C   UNL     1      44.232 -16.252   6.734  1.00  0.00     0.009 A 
HETATM    5  C   UNL     1      44.729 -14.959   6.861  1.00  0.00     0.003 A 
HETATM    6  C   UNL     1      43.969 -13.877   6.418  1.00  0.00     0.029 A 
ENDROOT
BRANCH   1   7
HETATM    7  N   UNL     1      42.031 -12.907   5.430  1.00  0.00    -0.309 N 
HETATM    8  C   UNL     1      41.649 -11.766   6.060  1.00  0.00     0.320 C 
HETATM    9  N   UNL     1      41.700 -11.727   7.415  1.00  0.00    -0.339 N 
HETATM   10  O   UNL     1      41.231 -10.828   5.383  1.00  0.00    -0.247 OA
HETATM   11  H   UNL     1      41.519 -12.612   7.864  1.00  0.00     0.164 HD
HETATM   12  H   UNL     1      41.789 -12.856   4.447  1.00  0.00     0.170 HD
BRANCH   9  13
HETATM   13  C   UNL     1      41.203 -10.560   8.103  1.00  0.00     0.166 C 
BRANCH  13  14
HETATM   14  C   UNL     1      41.264 -10.793   9.567  1.00  0.00     0.003 A 
HETATM   15  C   UNL     1      42.377 -10.801  10.397  1.00  0.00     0.035 A 
HETATM   16  C   UNL     1      43.818 -10.626  10.080  1.00  0.00     0.070 C 
HETATM   17  N   UNL     1      41.893 -10.978  11.669  1.00  0.00    -0.278 N 
HETATM   18  C   UNL     1      42.623 -10.975  12.914  1.00  0.00     0.179 C 
HETATM   19  N   UNL     1      40.558 -11.145  11.711  1.00  0.00    -0.185 NA
HETATM   20  C   UNL     1      40.178 -11.014  10.441  1.00  0.00     0.149 A 
ENDBRANCH  13  14
ENDBRANCH   9  13
ENDBRANCH   1   7
BRANCH   3  21
HETATM   21  C   UNL     1      42.443 -17.880   6.036  1.00  0.00     0.206 C 
BRANCH  21  22
HETATM   22  O   UNL     1      42.593 -18.296   4.680  1.00  0.00    -0.381 OA
BRANCH  22  23
HETATM   23  C   UNL     1      43.924 -18.130   4.182  1.00  0.00     0.121 C 
HETATM   24  C   UNL     1      44.800 -19.319   4.600  1.00  0.00     0.032 C 
HETATM   25  C   UNL     1      44.346 -20.629   3.954  1.00  0.00     0.002 C 
HETATM   26  C   UNL     1      44.266 -20.511   2.436  1.00  0.00     0.000 C 
HETATM   27  C   UNL     1      43.388 -19.338   2.008  1.00  0.00     0.002 C 
HETATM   28  C   UNL     1      43.844 -18.030   2.655  1.00  0.00     0.032 C 
ENDBRANCH  22  23
ENDBRANCH  21  22
ENDBRANCH   3  21
TORSDOF 6
ENDMDL
MODEL 8
REMARK VINA RESULT:      -7.4      6.075      8.281
REMARK  6 active torsions:
REMARK  status: ('A' for Active; 'I' for Inactive)
REMARK    1  A    between atoms: C_7  and  C_8 
REMARK    2  A    between atoms: C_8  and  N_9 
REMARK       I    between atoms: N_9  and  C_10 
REMARK       I    between atoms: C_10  and  N_11 
REMARK    3  A    between atoms: N_11  and  C_12 
REMARK    4  A    between atoms: C_14  and  C_15 
REMARK    5  A    between atoms: C_15  and  O_16 
REMARK    6  A    between atoms: O_16  and  C_17 
ROOT
HETATM    1  C   UNL     1      40.276 -16.450   2.370  1.00  0.00     0.036 A 
HETATM    2  C   UNL     1      40.914 -16.410   3.614  1.00  0.00     0.038 A 
HETATM    3  C   UNL     1      42.057 -17.193   3.862  1.00  0.00    -0.032 A 
HETATM    4  C   UNL     1      42.564 -18.008   2.841  1.00  0.00     0.009 A 
HETATM    5  C   UNL     1      41.954 -18.031   1.591  1.00  0.00     0.003 A 
HETATM    6  C   UNL     1      40.821 -17.253   1.358  1.00  0.00     0.029 A 
ENDROOT
BRANCH   1   7
HETATM    7  N   UNL     1      39.137 -15.703   2.020  1.00  0.00    -0.309 N 
HETATM    8  C   UNL     1      38.885 -14.735   1.102  1.00  0.00     0.320 C 
HETATM    9  N   UNL     1      39.935 -14.141   0.483  1.00  0.00    -0.339 N 
HETATM   10  O   UNL     1      37.718 -14.402   0.899  1.00  0.00    -0.247 OA
HETATM   11  H   UNL     1      40.765 -14.066   1.051  1.00  0.00     0.164 HD
HETATM   12  H   UNL     1      38.285 -15.939   2.516  1.00  0.00     0.170 HD
BRANCH   9  13
HETATM   13  C   UNL     1      39.689 -13.042  -0.420  1.00  0.00     0.166 C 
BRANCH  13  14
HETATM   14  C   UNL     1      40.921 -12.225  -0.541  1.00  0.00     0.003 A 
HETATM   15  C   UNL     1      41.427 -11.584  -1.664  1.00  0.00     0.035 A 
HETATM   16  C   UNL     1      40.930 -11.554  -3.064  1.00  0.00     0.070 C 
HETATM   17  N   UNL     1      42.535 -10.897  -1.234  1.00  0.00    -0.278 N 
HETATM   18  C   UNL     1      43.380 -10.000  -1.985  1.00  0.00     0.179 C 
HETATM   19  N   UNL     1      42.812 -11.098   0.067  1.00  0.00    -0.185 NA
HETATM   20  C   UNL     1      41.824 -11.885   0.488  1.00  0.00     0.149 A 
ENDBRANCH  13  14
ENDBRANCH   9  13
ENDBRANCH   1   7
BRANCH   3  21
HETATM   21  C   UNL     1      42.720 -17.190   5.217  1.00  0.00     0.206 C 
BRANCH  21  22
HETATM   22  O   UNL     1      42.810 -18.530   5.695  1.00  0.00    -0.381 OA
BRANCH  22  23
HETATM   23  C   UNL     1      44.018 -18.792   6.416  1.00  0.00     0.121 C 
HETATM   24  C   UNL     1      43.825 -19.984   7.363  1.00  0.00     0.032 C 
HETATM   25  C   UNL     1      43.578 -21.291   6.608  1.00  0.00     0.002 C 
HETATM   26  C   UNL     1      44.679 -21.570   5.590  1.00  0.00     0.000 C 
HETATM   27  C   UNL     1      44.873 -20.396   4.636  1.00  0.00     0.002 C 
HETATM   28  C   UNL     1      45.119 -19.091   5.392  1.00  0.00     0.032 C 
ENDBRANCH  22  23
ENDBRANCH  21  22
ENDBRANCH   3  21
TORSDOF 6
ENDMDL
MODEL 9
REMARK VINA RESULT:      -7.4      6.968      9.247
REMARK  6 active torsions:
REMARK  status: ('A' for Active; 'I' for Inactive)
REMARK    1  A    between atoms: C_7  and  C_8 
REMARK    2  A    between atoms: C_8  and  N_9 
REMARK       I    between atoms: N_9  and  C_10 
REMARK       I    between atoms: C_10  and  N_11 
REMARK    3  A    between atoms: N_11  and  C_12 
REMARK    4  A    between atoms: C_14  and  C_15 
REMARK    5  A    between atoms: C_15  and  O_16 
REMARK    6  A    between atoms: O_16  and  C_17 
ROOT
HETATM    1  C   UNL     1      40.929 -15.403   0.209  1.00  0.00     0.036 A 
HETATM    2  C   UNL     1      42.103 -15.814   0.848  1.00  0.00     0.038 A 
HETATM    3  C   UNL     1      42.187 -15.842   2.252  1.00  0.00    -0.032 A 
HETATM    4  C   UNL     1      41.072 -15.464   3.013  1.00  0.00     0.009 A 
HETATM    5  C   UNL     1      39.889 -15.084   2.386  1.00  0.00     0.003 A 
HETATM    6  C   UNL     1      39.820 -15.058   0.994  1.00  0.00     0.029 A 
ENDROOT
BRANCH   1   7
HETATM    7  N   UNL     1      40.742 -15.347  -1.184  1.00  0.00    -0.309 N 
HETATM    8  C   UNL     1      41.367 -14.695  -2.197  1.00  0.00     0.320 C 
HETATM    9  N   UNL     1      42.235 -13.699  -1.888  1.00  0.00    -0.339 N 
HETATM   10  O   UNL     1      41.092 -15.000  -3.356  1.00  0.00    -0.247 OA
HETATM   11  H   UNL     1      41.997 -13.184  -1.054  1.00  0.00     0.164 HD
HETATM   12  H   UNL     1      40.011 -15.943  -1.555  1.00  0.00     0.170 HD
BRANCH   9  13
HETATM   13  C   UNL     1      42.830 -12.930  -2.954  1.00  0.00     0.166 C 
BRANCH  13  14
HETATM   14  C   UNL     1      42.160 -11.608  -3.035  1.00  0.00     0.003 A 
HETATM   15  C   UNL     1      42.489 -10.430  -2.379  1.00  0.00     0.035 A 
HETATM   16  C   UNL     1      43.557 -10.144  -1.387  1.00  0.00     0.070 C 
HETATM   17  N   UNL     1      41.619  -9.482  -2.857  1.00  0.00    -0.278 N 
HETATM   18  C   UNL     1      41.585  -8.068  -2.566  1.00  0.00     0.179 C 
HETATM   19  N   UNL     1      40.718  -9.976  -3.725  1.00  0.00    -0.185 NA
HETATM   20  C   UNL     1      41.059 -11.258  -3.846  1.00  0.00     0.149 A 
ENDBRANCH  13  14
ENDBRANCH   9  13
ENDBRANCH   1   7
BRANCH   3  21
HETATM   21  C   UNL     1      43.467 -16.238   2.946  1.00  0.00     0.206 C 
BRANCH  21  22
HETATM   22  O   UNL     1      43.858 -17.534   2.498  1.00  0.00    -0.381 OA
BRANCH  22  23
HETATM   23  C   UNL     1      42.991 -18.576   2.957  1.00  0.00     0.121 C 
HETATM   24  C   UNL     1      43.343 -19.902   2.270  1.00  0.00     0.032 C 
HETATM   25  C   UNL     1      44.732 -20.407   2.661  1.00  0.00     0.002 C 
HETATM   26  C   UNL     1      44.889 -20.513   4.174  1.00  0.00     0.000 C 
HETATM   27  C   UNL     1      44.553 -19.196   4.868  1.00  0.00     0.002 C 
HETATM   28  C   UNL     1      43.163 -18.693   4.476  1.00  0.00     0.032 C 
ENDBRANCH  22  23
ENDBRANCH  21  22
ENDBRANCH   3  21
TORSDOF 6
ENDMDL
MODEL 10
REMARK VINA RESULT:      -7.4      3.380      8.070
REMARK  6 active torsions:
REMARK  status: ('A' for Active; 'I' for Inactive)
REMARK    1  A    between atoms: C_7  and  C_8 
REMARK    2  A    between atoms: C_8  and  N_9 
REMARK       I    between atoms: N_9  and  C_10 
REMARK       I    between atoms: C_10  and  N_11 
REMARK    3  A    between atoms: N_11  and  C_12 
REMARK    4  A    between atoms: C_14  and  C_15 
REMARK    5  A    between atoms: C_15  and  O_16 
REMARK    6  A    between atoms: O_16  and  C_17 
ROOT
HETATM    1  C   UNL     1      44.280 -11.837   9.575  1.00  0.00     0.036 A 
HETATM    2  C   UNL     1      43.247 -10.931   9.317  1.00  0.00     0.038 A 
HETATM    3  C   UNL     1      42.414 -10.475  10.355  1.00  0.00    -0.032 A 
HETATM    4  C   UNL     1      42.636 -10.929  11.663  1.00  0.00     0.009 A 
HETATM    5  C   UNL     1      43.681 -11.807  11.934  1.00  0.00     0.003 A 
HETATM    6  C   UNL     1      44.498 -12.253  10.896  1.00  0.00     0.029 A 
ENDROOT
BRANCH   1   7
HETATM    7  N   UNL     1      45.170 -12.346   8.613  1.00  0.00    -0.309 N 
HETATM    8  C   UNL     1      45.103 -13.346   7.697  1.00  0.00     0.320 C 
HETATM    9  N   UNL     1      44.087 -14.240   7.788  1.00  0.00    -0.339 N 
HETATM   10  O   UNL     1      45.988 -13.431   6.847  1.00  0.00    -0.247 OA
HETATM   11  H   UNL     1      43.778 -14.425   8.730  1.00  0.00     0.164 HD
HETATM   12  H   UNL     1      46.055 -11.859   8.528  1.00  0.00     0.170 HD
BRANCH   9  13
HETATM   13  C   UNL     1      44.058 -15.365   6.885  1.00  0.00     0.166 C 
BRANCH  13  14
HETATM   14  C   UNL     1      42.742 -15.409   6.201  1.00  0.00     0.003 A 
HETATM   15  C   UNL     1      42.253 -14.569   5.210  1.00  0.00     0.035 A 
HETATM   16  C   UNL     1      42.861 -13.371   4.574  1.00  0.00     0.070 C 
HETATM   17  N   UNL     1      41.030 -15.081   4.856  1.00  0.00    -0.278 N 
HETATM   18  C   UNL     1      40.139 -14.635   3.812  1.00  0.00     0.179 C 
HETATM   19  N   UNL     1      40.671 -16.152   5.588  1.00  0.00    -0.185 NA
HETATM   20  C   UNL     1      41.716 -16.360   6.387  1.00  0.00     0.149 A 
ENDBRANCH  13  14
ENDBRANCH   9  13
ENDBRANCH   1   7
BRANCH   3  21
HETATM   21  C   UNL     1      41.268  -9.534  10.074  1.00  0.00     0.206 C 
BRANCH  21  22
HETATM   22  O   UNL     1      40.946  -9.593   8.686  1.00  0.00    -0.381 OA
BRANCH  22  23
HETATM   23  C   UNL     1      39.567  -9.884   8.438  1.00  0.00     0.121 C 
HETATM   24  C   UNL     1      39.077  -9.124   7.198  1.00  0.00     0.032 C 
HETATM   25  C   UNL     1      39.770  -9.593   5.919  1.00  0.00     0.002 C 
HETATM   26  C   UNL     1      39.638 -11.101   5.727  1.00  0.00     0.000 C 
HETATM   27  C   UNL     1      40.133 -11.868   6.949  1.00  0.00     0.002 C 
HETATM   28  C   UNL     1      39.440 -11.397   8.227  1.00  0.00     0.032 C 
ENDBRANCH  22  23
ENDBRANCH  21  22
ENDBRANCH   3  21
TORSDOF 6
ENDMDL
