MODEL 1
REMARK VINA RESULT:      -8.1      0.000      0.000
REMARK  5 active torsions:
REMARK  status: ('A' for Active; 'I' for Inactive)
REMARK    1  A    between atoms: O_2  and  C_3 
REMARK    2  A    between atoms: C_5  and  C_6 
REMARK    3  A    between atoms: C_10  and  C_11 
REMARK       I    between atoms: C_11  and  N_12 
REMARK    4  A    between atoms: N_12  and  C_13 
REMARK    5  A    between atoms: C_13  and  C_14 
ROOT
HETATM    1  C   UNL     1      44.331 -10.972  10.009  1.00  0.00     0.089 A 
HETATM    2  N   UNL     1      45.609 -10.708   9.697  1.00  0.00    -0.174 NA
HETATM    3  N   UNL     1      45.925 -11.620   8.765  1.00  0.00    -0.272 N 
HETATM    4  H   UNL     1      46.864 -11.626   8.379  1.00  0.00     0.189 HD
HETATM    5  C   UNL     1      44.898 -12.454   8.423  1.00  0.00     0.120 A 
HETATM    6  C   UNL     1      43.847 -12.057   9.226  1.00  0.00     0.071 A 
ENDROOT
BRANCH   5   7
HETATM    7  C   UNL     1      45.054 -13.473   7.420  1.00  0.00     0.269 C 
HETATM    8  N   UNL     1      44.026 -14.382   7.350  1.00  0.00    -0.355 N 
HETATM    9  H   UNL     1      43.254 -14.309   7.995  1.00  0.00     0.162 HD
HETATM   10  O   UNL     1      46.034 -13.517   6.683  1.00  0.00    -0.266 OA
BRANCH   8  11
HETATM   11  C   UNL     1      44.032 -15.500   6.430  1.00  0.00     0.128 C 
BRANCH  11  12
HETATM   12  C   UNL     1      44.186 -16.837   7.151  1.00  0.00     0.012 C 
HETATM   13  C   UNL     1      42.941 -17.766   7.117  1.00  0.00     0.014 C 
HETATM   14  C   UNL     1      43.589 -19.111   7.467  1.00  0.00     0.017 C 
HETATM   15  C   UNL     1      42.562 -18.062   5.683  1.00  0.00    -0.025 C 
HETATM   16  C   UNL     1      44.544 -19.072   6.270  1.00  0.00     0.009 C 
HETATM   17  C   UNL     1      43.531 -18.837   5.173  1.00  0.00    -0.026 C 
HETATM   18  C   UNL     1      45.291 -17.743   6.517  1.00  0.00     0.015 C 
ENDBRANCH  11  12
ENDBRANCH   8  11
ENDBRANCH   5   7
BRANCH   1  19
HETATM   19  C   UNL     1      43.603 -10.194  11.017  1.00  0.00    -0.003 A 
HETATM   20  C   UNL     1      42.466  -9.450  10.653  1.00  0.00     0.050 A 
HETATM   21  C   UNL     1      41.755  -8.719  11.606  1.00  0.00     0.069 A 
HETATM   22  C   UNL     1      42.184  -8.726  12.934  1.00  0.00     0.037 A 
HETATM   23  C   UNL     1      43.313  -9.451  13.311  1.00  0.00     0.004 A 
HETATM   24  C   UNL     1      44.020 -10.183  12.355  1.00  0.00     0.014 A 
BRANCH  21  25
HETATM   25  O   UNL     1      40.635  -7.967  11.374  1.00  0.00    -0.356 OA
HETATM   26  C   UNL     1      39.801  -7.700  12.495  1.00  0.00     0.210 C 
ENDBRANCH  21  25
ENDBRANCH   1  19
TORSDOF 5
ENDMDL
MODEL 2
REMARK VINA RESULT:      -8.0      2.079      9.349
REMARK  5 active torsions:
REMARK  status: ('A' for Active; 'I' for Inactive)
REMARK    1  A    between atoms: O_2  and  C_3 
REMARK    2  A    between atoms: C_5  and  C_6 
REMARK    3  A    between atoms: C_10  and  C_11 
REMARK       I    between atoms: C_11  and  N_12 
REMARK    4  A    between atoms: N_12  and  C_13 
REMARK    5  A    between atoms: C_13  and  C_14 
ROOT
HETATM    1  C   UNL     1      43.831 -15.376   6.291  1.00  0.00     0.089 A 
HETATM    2  N   UNL     1      42.913 -14.470   5.923  1.00  0.00    -0.174 NA
HETATM    3  N   UNL     1      43.161 -13.402   6.696  1.00  0.00    -0.272 N 
HETATM    4  H   UNL     1      42.573 -12.579   6.605  1.00  0.00     0.189 HD
HETATM    5  C   UNL     1      44.227 -13.553   7.537  1.00  0.00     0.120 A 
HETATM    6  C   UNL     1      44.679 -14.836   7.298  1.00  0.00     0.071 A 
ENDROOT
BRANCH   5   7
HETATM    7  C   UNL     1      44.650 -12.498   8.418  1.00  0.00     0.269 C 
HETATM    8  N   UNL     1      43.641 -11.893   9.127  1.00  0.00    -0.355 N 
HETATM    9  H   UNL     1      42.687 -12.189   8.985  1.00  0.00     0.162 HD
HETATM   10  O   UNL     1      45.829 -12.171   8.525  1.00  0.00    -0.266 OA
BRANCH   8  11
HETATM   11  C   UNL     1      43.874 -10.785  10.029  1.00  0.00     0.128 C 
BRANCH  11  12
HETATM   12  C   UNL     1      43.398 -11.089  11.448  1.00  0.00     0.012 C 
HETATM   13  C   UNL     1      43.626  -9.959  12.491  1.00  0.00     0.014 C 
HETATM   14  C   UNL     1      42.640 -10.387  13.583  1.00  0.00     0.017 C 
HETATM   15  C   UNL     1      42.929  -8.696  12.037  1.00  0.00    -0.025 C 
HETATM   16  C   UNL     1      41.429 -10.328  12.648  1.00  0.00     0.009 C 
HETATM   17  C   UNL     1      41.610  -8.923  12.122  1.00  0.00    -0.026 C 
HETATM   18  C   UNL     1      41.854 -11.310  11.534  1.00  0.00     0.015 C 
ENDBRANCH  11  12
ENDBRANCH   8  11
ENDBRANCH   5   7
BRANCH   1  19
HETATM   19  C   UNL     1      43.893 -16.708   5.681  1.00  0.00    -0.003 A 
HETATM   20  C   UNL     1      43.184 -16.978   4.496  1.00  0.00     0.050 A 
HETATM   21  C   UNL     1      43.248 -18.238   3.897  1.00  0.00     0.069 A 
HETATM   22  C   UNL     1      44.022 -19.238   4.487  1.00  0.00     0.037 A 
HETATM   23  C   UNL     1      44.723 -18.990   5.666  1.00  0.00     0.004 A 
HETATM   24  C   UNL     1      44.658 -17.729   6.261  1.00  0.00     0.014 A 
BRANCH  21  25
HETATM   25  O   UNL     1      42.613 -18.615   2.745  1.00  0.00    -0.356 OA
HETATM   26  C   UNL     1      43.176 -19.711   2.033  1.00  0.00     0.210 C 
ENDBRANCH  21  25
ENDBRANCH   1  19
TORSDOF 5
ENDMDL
MODEL 3
REMARK VINA RESULT:      -8.0      9.219     11.838
REMARK  5 active torsions:
REMARK  status: ('A' for Active; 'I' for Inactive)
REMARK    1  A    between atoms: O_2  and  C_3 
REMARK    2  A    between atoms: C_5  and  C_6 
REMARK    3  A    between atoms: C_10  and  C_11 
REMARK       I    between atoms: C_11  and  N_12 
REMARK    4  A    between atoms: N_12  and  C_13 
REMARK    5  A    between atoms: C_13  and  C_14 
ROOT
HETATM    1  C   UNL     1      42.969 -18.308   1.759  1.00  0.00     0.089 A 
HETATM    2  N   UNL     1      43.608 -17.671   0.766  1.00  0.00    -0.174 NA
HETATM    3  N   UNL     1      42.780 -16.675   0.413  1.00  0.00    -0.272 N 
HETATM    4  H   UNL     1      43.050 -16.054  -0.343  1.00  0.00     0.189 HD
HETATM    5  C   UNL     1      41.635 -16.607   1.156  1.00  0.00     0.120 A 
HETATM    6  C   UNL     1      41.729 -17.666   2.037  1.00  0.00     0.071 A 
ENDROOT
BRANCH   5   7
HETATM    7  C   UNL     1      40.649 -15.584   0.931  1.00  0.00     0.269 C 
HETATM    8  N   UNL     1      40.519 -15.180  -0.376  1.00  0.00    -0.355 N 
HETATM    9  H   UNL     1      41.113 -15.586  -1.083  1.00  0.00     0.162 HD
HETATM   10  O   UNL     1      39.975 -15.117   1.844  1.00  0.00    -0.266 OA
BRANCH   8  11
HETATM   11  C   UNL     1      39.606 -14.133  -0.783  1.00  0.00     0.128 C 
BRANCH  11  12
HETATM   12  C   UNL     1      39.874 -13.660  -2.210  1.00  0.00     0.012 C 
HETATM   13  C   UNL     1      40.390 -12.201  -2.350  1.00  0.00     0.014 C 
HETATM   14  C   UNL     1      40.986 -12.251  -3.761  1.00  0.00     0.017 C 
HETATM   15  C   UNL     1      41.673 -12.035  -1.567  1.00  0.00    -0.025 C 
HETATM   16  C   UNL     1      41.964 -13.376  -3.412  1.00  0.00     0.009 C 
HETATM   17  C   UNL     1      42.615 -12.750  -2.200  1.00  0.00    -0.026 C 
HETATM   18  C   UNL     1      41.002 -14.478  -2.917  1.00  0.00     0.015 C 
ENDBRANCH  11  12
ENDBRANCH   8  11
ENDBRANCH   5   7
BRANCH   1  19
HETATM   19  C   UNL     1      43.542 -19.484   2.421  1.00  0.00    -0.003 A 
HETATM   20  C   UNL     1      43.908 -19.424   3.778  1.00  0.00     0.050 A 
HETATM   21  C   UNL     1      44.440 -20.541   4.425  1.00  0.00     0.069 A 
HETATM   22  C   UNL     1      44.612 -21.728   3.710  1.00  0.00     0.037 A 
HETATM   23  C   UNL     1      44.263 -21.801   2.363  1.00  0.00     0.004 A 
HETATM   24  C   UNL     1      43.730 -20.683   1.721  1.00  0.00     0.014 A 
BRANCH  21  25
HETATM   25  O   UNL     1      44.823 -20.607   5.737  1.00  0.00    -0.356 OA
HETATM   26  C   UNL     1      43.851 -21.077   6.664  1.00  0.00     0.210 C 
ENDBRANCH  21  25
ENDBRANCH   1  19
TORSDOF 5
ENDMDL
MODEL 4
REMARK VINA RESULT:      -8.0      7.919     11.612
REMARK  5 active torsions:
REMARK  status: ('A' for Active; 'I' for Inactive)
REMARK    1  A    between atoms: O_2  and  C_3 
REMARK    2  A    between atoms: C_5  and  C_6 
REMARK    3  A    between atoms: C_10  and  C_11 
REMARK       I    between atoms: C_11  and  N_12 
REMARK    4  A    between atoms: N_12  and  C_13 
REMARK    5  A    between atoms: C_13  and  C_14 
ROOT
HETATM    1  C   UNL     1      42.215 -17.752   1.841  1.00  0.00     0.089 A 
HETATM    2  N   UNL     1      40.976 -17.470   2.273  1.00  0.00    -0.174 NA
HETATM    3  N   UNL     1      40.513 -16.560   1.403  1.00  0.00    -0.272 N 
HETATM    4  H   UNL     1      39.581 -16.179   1.536  1.00  0.00     0.189 HD
HETATM    5  C   UNL     1      41.383 -16.254   0.394  1.00  0.00     0.120 A 
HETATM    6  C   UNL     1      42.504 -17.013   0.660  1.00  0.00     0.071 A 
ENDROOT
BRANCH   5   7
HETATM    7  C   UNL     1      41.038 -15.317  -0.642  1.00  0.00     0.269 C 
HETATM    8  N   UNL     1      40.699 -14.062  -0.200  1.00  0.00    -0.355 N 
HETATM    9  H   UNL     1      40.685 -13.870   0.790  1.00  0.00     0.162 HD
HETATM   10  O   UNL     1      41.053 -15.624  -1.830  1.00  0.00    -0.266 OA
BRANCH   8  11
HETATM   11  C   UNL     1      40.284 -13.002  -1.096  1.00  0.00     0.128 C 
BRANCH  11  12
HETATM   12  C   UNL     1      41.220 -11.797  -1.034  1.00  0.00     0.012 C 
HETATM   13  C   UNL     1      42.700 -12.074  -1.419  1.00  0.00     0.014 C 
HETATM   14  C   UNL     1      43.181 -10.648  -1.712  1.00  0.00     0.017 C 
HETATM   15  C   UNL     1      42.767 -12.631  -2.823  1.00  0.00    -0.025 C 
HETATM   16  C   UNL     1      42.138 -10.419  -2.810  1.00  0.00     0.009 C 
HETATM   17  C   UNL     1      42.419 -11.639  -3.656  1.00  0.00    -0.026 C 
HETATM   18  C   UNL     1      40.823 -10.669  -2.040  1.00  0.00     0.015 C 
ENDBRANCH  11  12
ENDBRANCH   8  11
ENDBRANCH   5   7
BRANCH   1  19
HETATM   19  C   UNL     1      43.079 -18.711   2.538  1.00  0.00    -0.003 A 
HETATM   20  C   UNL     1      43.451 -18.485   3.876  1.00  0.00     0.050 A 
HETATM   21  C   UNL     1      44.260 -19.398   4.556  1.00  0.00     0.069 A 
HETATM   22  C   UNL     1      44.705 -20.544   3.894  1.00  0.00     0.037 A 
HETATM   23  C   UNL     1      44.353 -20.777   2.566  1.00  0.00     0.004 A 
HETATM   24  C   UNL     1      43.542 -19.864   1.891  1.00  0.00     0.014 A 
BRANCH  21  25
HETATM   25  O   UNL     1      44.679 -19.292   5.854  1.00  0.00    -0.356 OA
HETATM   26  C   UNL     1      44.967 -17.982   6.329  1.00  0.00     0.210 C 
ENDBRANCH  21  25
ENDBRANCH   1  19
TORSDOF 5
ENDMDL
MODEL 5
REMARK VINA RESULT:      -7.9      1.926      2.378
REMARK  5 active torsions:
REMARK  status: ('A' for Active; 'I' for Inactive)
REMARK    1  A    between atoms: O_2  and  C_3 
REMARK    2  A    between atoms: C_5  and  C_6 
REMARK    3  A    between atoms: C_10  and  C_11 
REMARK       I    between atoms: C_11  and  N_12 
REMARK    4  A    between atoms: N_12  and  C_13 
REMARK    5  A    between atoms: C_13  and  C_14 
ROOT
HETATM    1  C   UNL     1      43.588 -10.914  11.547  1.00  0.00     0.089 A 
HETATM    2  N   UNL     1      43.620 -12.167  12.027  1.00  0.00    -0.174 NA
HETATM    3  N   UNL     1      44.085 -12.908  11.010  1.00  0.00    -0.272 N 
HETATM    4  H   UNL     1      44.185 -13.911  11.135  1.00  0.00     0.189 HD
HETATM    5  C   UNL     1      44.395 -12.191   9.888  1.00  0.00     0.120 A 
HETATM    6  C   UNL     1      44.073 -10.888  10.209  1.00  0.00     0.071 A 
ENDROOT
BRANCH   5   7
HETATM    7  C   UNL     1      44.931 -12.823   8.712  1.00  0.00     0.269 C 
HETATM    8  N   UNL     1      44.139 -13.805   8.168  1.00  0.00    -0.355 N 
HETATM    9  H   UNL     1      43.266 -14.044   8.614  1.00  0.00     0.162 HD
HETATM   10  O   UNL     1      46.014 -12.499   8.235  1.00  0.00    -0.266 OA
BRANCH   8  11
HETATM   11  C   UNL     1      44.536 -14.577   7.009  1.00  0.00     0.128 C 
BRANCH  11  12
HETATM   12  C   UNL     1      43.997 -16.005   7.057  1.00  0.00     0.012 C 
HETATM   13  C   UNL     1      42.612 -16.224   6.388  1.00  0.00     0.014 C 
HETATM   14  C   UNL     1      42.635 -17.745   6.195  1.00  0.00     0.017 C 
HETATM   15  C   UNL     1      42.674 -15.809   4.935  1.00  0.00    -0.025 C 
HETATM   16  C   UNL     1      43.901 -17.713   5.334  1.00  0.00     0.009 C 
HETATM   17  C   UNL     1      43.457 -16.698   4.306  1.00  0.00    -0.026 C 
HETATM   18  C   UNL     1      44.900 -17.019   6.284  1.00  0.00     0.015 C 
ENDBRANCH  11  12
ENDBRANCH   8  11
ENDBRANCH   5   7
BRANCH   1  19
HETATM   19  C   UNL     1      43.120  -9.786  12.357  1.00  0.00    -0.003 A 
HETATM   20  C   UNL     1      42.970  -9.927  13.748  1.00  0.00     0.050 A 
HETATM   21  C   UNL     1      42.540  -8.855  14.534  1.00  0.00     0.069 A 
HETATM   22  C   UNL     1      42.253  -7.633  13.925  1.00  0.00     0.037 A 
HETATM   23  C   UNL     1      42.388  -7.478  12.546  1.00  0.00     0.004 A 
HETATM   24  C   UNL     1      42.820  -8.552  11.765  1.00  0.00     0.014 A 
BRANCH  21  25
HETATM   25  O   UNL     1      42.365  -8.869  15.891  1.00  0.00    -0.356 OA
HETATM   26  C   UNL     1      41.024  -8.825  16.364  1.00  0.00     0.210 C 
ENDBRANCH  21  25
ENDBRANCH   1  19
TORSDOF 5
ENDMDL
MODEL 6
REMARK VINA RESULT:      -7.9      8.633     11.968
REMARK  5 active torsions:
REMARK  status: ('A' for Active; 'I' for Inactive)
REMARK    1  A    between atoms: O_2  and  C_3 
REMARK    2  A    between atoms: C_5  and  C_6 
REMARK    3  A    between atoms: C_10  and  C_11 
REMARK       I    between atoms: C_11  and  N_12 
REMARK    4  A    between atoms: N_12  and  C_13 
REMARK    5  A    between atoms: C_13  and  C_14 
ROOT
HETATM    1  C   UNL     1      41.839 -17.069   1.760  1.00  0.00     0.089 A 
HETATM    2  N   UNL     1      40.543 -16.854   2.036  1.00  0.00    -0.174 NA
HETATM    3  N   UNL     1      40.119 -16.038   1.059  1.00  0.00    -0.272 N 
HETATM    4  H   UNL     1      39.154 -15.722   1.065  1.00  0.00     0.189 HD
HETATM    5  C   UNL     1      41.072 -15.732   0.129  1.00  0.00     0.120 A 
HETATM    6  C   UNL     1      42.207 -16.386   0.566  1.00  0.00     0.071 A 
ENDROOT
BRANCH   5   7
HETATM    7  C   UNL     1      40.782 -14.891  -1.001  1.00  0.00     0.269 C 
HETATM    8  N   UNL     1      41.810 -14.752  -1.901  1.00  0.00    -0.355 N 
HETATM    9  H   UNL     1      42.692 -15.208  -1.723  1.00  0.00     0.162 HD
HETATM   10  O   UNL     1      39.691 -14.346  -1.145  1.00  0.00    -0.266 OA
BRANCH   8  11
HETATM   11  C   UNL     1      41.712 -13.912  -3.077  1.00  0.00     0.128 C 
BRANCH  11  12
HETATM   12  C   UNL     1      42.570 -12.654  -2.958  1.00  0.00     0.012 C 
HETATM   13  C   UNL     1      41.933 -11.350  -3.512  1.00  0.00     0.014 C 
HETATM   14  C   UNL     1      42.799 -10.298  -2.809  1.00  0.00     0.017 C 
HETATM   15  C   UNL     1      40.625 -11.078  -2.802  1.00  0.00    -0.025 C 
HETATM   16  C   UNL     1      42.431 -10.791  -1.407  1.00  0.00     0.009 C 
HETATM   17  C   UNL     1      40.926 -10.753  -1.535  1.00  0.00    -0.026 C 
HETATM   18  C   UNL     1      42.875 -12.268  -1.475  1.00  0.00     0.015 C 
ENDBRANCH  11  12
ENDBRANCH   8  11
ENDBRANCH   5   7
BRANCH   1  19
HETATM   19  C   UNL     1      42.684 -17.913   2.611  1.00  0.00    -0.003 A 
HETATM   20  C   UNL     1      43.312 -19.052   2.077  1.00  0.00     0.050 A 
HETATM   21  C   UNL     1      44.133 -19.855   2.872  1.00  0.00     0.069 A 
HETATM   22  C   UNL     1      44.323 -19.520   4.214  1.00  0.00     0.037 A 
HETATM   23  C   UNL     1      43.700 -18.400   4.761  1.00  0.00     0.004 A 
HETATM   24  C   UNL     1      42.883 -17.599   3.962  1.00  0.00     0.014 A 
BRANCH  21  25
HETATM   25  O   UNL     1      44.801 -20.977   2.466  1.00  0.00    -0.356 OA
HETATM   26  C   UNL     1      44.074 -21.899   1.662  1.00  0.00     0.210 C 
ENDBRANCH  21  25
ENDBRANCH   1  19
TORSDOF 5
ENDMDL
MODEL 7
REMARK VINA RESULT:      -7.8      7.744     11.237
REMARK  5 active torsions:
REMARK  status: ('A' for Active; 'I' for Inactive)
REMARK    1  A    between atoms: O_2  and  C_3 
REMARK    2  A    between atoms: C_5  and  C_6 
REMARK    3  A    between atoms: C_10  and  C_11 
REMARK       I    between atoms: C_11  and  N_12 
REMARK    4  A    between atoms: N_12  and  C_13 
REMARK    5  A    between atoms: C_13  and  C_14 
ROOT
HETATM    1  C   UNL     1      41.608 -17.194   2.788  1.00  0.00     0.089 A 
HETATM    2  N   UNL     1      40.975 -16.567   3.792  1.00  0.00    -0.174 NA
HETATM    3  N   UNL     1      40.140 -15.711   3.185  1.00  0.00    -0.272 N 
HETATM    4  H   UNL     1      39.554 -15.106   3.752  1.00  0.00     0.189 HD
HETATM    5  C   UNL     1      40.170 -15.769   1.819  1.00  0.00     0.120 A 
HETATM    6  C   UNL     1      41.125 -16.724   1.534  1.00  0.00     0.071 A 
ENDROOT
BRANCH   5   7
HETATM    7  C   UNL     1      39.320 -14.939   1.009  1.00  0.00     0.269 C 
HETATM    8  N   UNL     1      39.841 -14.592  -0.213  1.00  0.00    -0.355 N 
HETATM    9  H   UNL     1      40.767 -14.902  -0.466  1.00  0.00     0.162 HD
HETATM   10  O   UNL     1      38.210 -14.577   1.388  1.00  0.00    -0.266 OA
BRANCH   8  11
HETATM   11  C   UNL     1      39.144 -13.728  -1.144  1.00  0.00     0.128 C 
BRANCH  11  12
HETATM   12  C   UNL     1      39.931 -13.521  -2.436  1.00  0.00     0.012 C 
HETATM   13  C   UNL     1      40.420 -12.070  -2.701  1.00  0.00     0.014 C 
HETATM   14  C   UNL     1      41.518 -12.332  -3.738  1.00  0.00     0.017 C 
HETATM   15  C   UNL     1      41.293 -11.607  -1.556  1.00  0.00    -0.025 C 
HETATM   16  C   UNL     1      42.316 -13.246  -2.803  1.00  0.00     0.009 C 
HETATM   17  C   UNL     1      42.426 -12.322  -1.613  1.00  0.00    -0.026 C 
HETATM   18  C   UNL     1      41.268 -14.329  -2.466  1.00  0.00     0.015 C 
ENDBRANCH  11  12
ENDBRANCH   8  11
ENDBRANCH   5   7
BRANCH   1  19
HETATM   19  C   UNL     1      42.630 -18.216   3.034  1.00  0.00    -0.003 A 
HETATM   20  C   UNL     1      43.315 -18.251   4.261  1.00  0.00     0.050 A 
HETATM   21  C   UNL     1      44.280 -19.229   4.515  1.00  0.00     0.069 A 
HETATM   22  C   UNL     1      44.565 -20.178   3.532  1.00  0.00     0.037 A 
HETATM   23  C   UNL     1      43.901 -20.152   2.306  1.00  0.00     0.004 A 
HETATM   24  C   UNL     1      42.937 -19.174   2.059  1.00  0.00     0.014 A 
BRANCH  21  25
HETATM   25  O   UNL     1      45.002 -19.369   5.668  1.00  0.00    -0.356 OA
HETATM   26  C   UNL     1      45.207 -18.192   6.441  1.00  0.00     0.210 C 
ENDBRANCH  21  25
ENDBRANCH   1  19
TORSDOF 5
ENDMDL
MODEL 8
REMARK VINA RESULT:      -7.8      8.100     11.188
REMARK  5 active torsions:
REMARK  status: ('A' for Active; 'I' for Inactive)
REMARK    1  A    between atoms: O_2  and  C_3 
REMARK    2  A    between atoms: C_5  and  C_6 
REMARK    3  A    between atoms: C_10  and  C_11 
REMARK       I    between atoms: C_11  and  N_12 
REMARK    4  A    between atoms: N_12  and  C_13 
REMARK    5  A    between atoms: C_13  and  C_14 
ROOT
HETATM    1  C   UNL     1      41.981 -17.437   3.807  1.00  0.00     0.089 A 
HETATM    2  N   UNL     1      41.285 -16.793   4.757  1.00  0.00    -0.174 NA
HETATM    3  N   UNL     1      40.513 -15.927   4.083  1.00  0.00    -0.272 N 
HETATM    4  H   UNL     1      39.897 -15.308   4.601  1.00  0.00     0.189 HD
HETATM    5  C   UNL     1      40.646 -15.996   2.725  1.00  0.00     0.120 A 
HETATM    6  C   UNL     1      41.603 -16.969   2.518  1.00  0.00     0.071 A 
ENDROOT
BRANCH   5   7
HETATM    7  C   UNL     1      39.874 -15.157   1.847  1.00  0.00     0.269 C 
HETATM    8  N   UNL     1      40.607 -14.452   0.924  1.00  0.00    -0.355 N 
HETATM    9  H   UNL     1      41.612 -14.534   0.919  1.00  0.00     0.162 HD
HETATM   10  O   UNL     1      38.651 -15.086   1.923  1.00  0.00    -0.266 OA
BRANCH   8  11
HETATM   11  C   UNL     1      40.003 -13.527  -0.013  1.00  0.00     0.128 C 
BRANCH  11  12
HETATM   12  C   UNL     1      39.772 -14.164  -1.382  1.00  0.00     0.012 C 
HETATM   13  C   UNL     1      39.845 -13.195  -2.595  1.00  0.00     0.014 C 
HETATM   14  C   UNL     1      40.059 -14.196  -3.736  1.00  0.00     0.017 C 
HETATM   15  C   UNL     1      41.197 -12.518  -2.628  1.00  0.00    -0.025 C 
HETATM   16  C   UNL     1      41.349 -14.757  -3.131  1.00  0.00     0.009 C 
HETATM   17  C   UNL     1      42.100 -13.460  -2.940  1.00  0.00    -0.026 C 
HETATM   18  C   UNL     1      40.857 -15.228  -1.745  1.00  0.00     0.015 C 
ENDBRANCH  11  12
ENDBRANCH   8  11
ENDBRANCH   5   7
BRANCH   1  19
HETATM   19  C   UNL     1      42.963 -18.475   4.136  1.00  0.00    -0.003 A 
HETATM   20  C   UNL     1      43.523 -19.268   3.118  1.00  0.00     0.050 A 
HETATM   21  C   UNL     1      44.472 -20.248   3.416  1.00  0.00     0.069 A 
HETATM   22  C   UNL     1      44.862 -20.443   4.742  1.00  0.00     0.037 A 
HETATM   23  C   UNL     1      44.311 -19.672   5.764  1.00  0.00     0.004 A 
HETATM   24  C   UNL     1      43.364 -18.691   5.461  1.00  0.00     0.014 A 
BRANCH  21  25
HETATM   25  O   UNL     1      45.090 -21.072   2.515  1.00  0.00    -0.356 OA
HETATM   26  C   UNL     1      44.248 -21.903   1.725  1.00  0.00     0.210 C 
ENDBRANCH  21  25
ENDBRANCH   1  19
TORSDOF 5
ENDMDL
MODEL 9
REMARK VINA RESULT:      -7.7      8.069     11.403
REMARK  5 active torsions:
REMARK  status: ('A' for Active; 'I' for Inactive)
REMARK    1  A    between atoms: O_2  and  C_3 
REMARK    2  A    between atoms: C_5  and  C_6 
REMARK    3  A    between atoms: C_10  and  C_11 
REMARK       I    between atoms: C_11  and  N_12 
REMARK    4  A    between atoms: N_12  and  C_13 
REMARK    5  A    between atoms: C_13  and  C_14 
ROOT
HETATM    1  C   UNL     1      43.395 -17.708   2.888  1.00  0.00     0.089 A 
HETATM    2  N   UNL     1      43.487 -16.977   4.009  1.00  0.00    -0.174 NA
HETATM    3  N   UNL     1      43.100 -15.745   3.643  1.00  0.00    -0.272 N 
HETATM    4  H   UNL     1      43.100 -15.002   4.335  1.00  0.00     0.189 HD
HETATM    5  C   UNL     1      42.723 -15.641   2.333  1.00  0.00     0.120 A 
HETATM    6  C   UNL     1      42.913 -16.906   1.815  1.00  0.00     0.071 A 
ENDROOT
BRANCH   5   7
HETATM    7  C   UNL     1      42.254 -14.399   1.780  1.00  0.00     0.269 C 
HETATM    8  N   UNL     1      41.163 -14.507   0.952  1.00  0.00    -0.355 N 
HETATM    9  H   UNL     1      40.772 -15.417   0.760  1.00  0.00     0.162 HD
HETATM   10  O   UNL     1      42.792 -13.326   2.037  1.00  0.00    -0.266 OA
BRANCH   8  11
HETATM   11  C   UNL     1      40.580 -13.368   0.273  1.00  0.00     0.128 C 
BRANCH  11  12
HETATM   12  C   UNL     1      40.195 -13.693  -1.168  1.00  0.00     0.012 C 
HETATM   13  C   UNL     1      40.383 -12.539  -2.192  1.00  0.00     0.014 C 
HETATM   14  C   UNL     1      40.383 -13.331  -3.505  1.00  0.00     0.017 C 
HETATM   15  C   UNL     1      41.827 -12.091  -2.196  1.00  0.00    -0.025 C 
HETATM   16  C   UNL     1      41.582 -14.192  -3.098  1.00  0.00     0.009 C 
HETATM   17  C   UNL     1      42.547 -13.089  -2.731  1.00  0.00    -0.026 C 
HETATM   18  C   UNL     1      41.071 -14.830  -1.788  1.00  0.00     0.015 C 
ENDBRANCH  11  12
ENDBRANCH   8  11
ENDBRANCH   5   7
BRANCH   1  19
HETATM   19  C   UNL     1      43.748 -19.131   2.859  1.00  0.00    -0.003 A 
HETATM   20  C   UNL     1      44.352 -19.733   3.978  1.00  0.00     0.050 A 
HETATM   21  C   UNL     1      44.678 -21.091   3.970  1.00  0.00     0.069 A 
HETATM   22  C   UNL     1      44.403 -21.854   2.834  1.00  0.00     0.037 A 
HETATM   23  C   UNL     1      43.812 -21.271   1.714  1.00  0.00     0.004 A 
HETATM   24  C   UNL     1      43.486 -19.914   1.727  1.00  0.00     0.014 A 
BRANCH  21  25
HETATM   25  O   UNL     1      45.258 -21.787   4.996  1.00  0.00    -0.356 OA
HETATM   26  C   UNL     1      44.497 -21.916   6.192  1.00  0.00     0.210 C 
ENDBRANCH  21  25
ENDBRANCH   1  19
TORSDOF 5
ENDMDL
MODEL 10
REMARK VINA RESULT:      -7.4      8.060     11.964
REMARK  5 active torsions:
REMARK  status: ('A' for Active; 'I' for Inactive)
REMARK    1  A    between atoms: O_2  and  C_3 
REMARK    2  A    between atoms: C_5  and  C_6 
REMARK    3  A    between atoms: C_10  and  C_11 
REMARK       I    between atoms: C_11  and  N_12 
REMARK    4  A    between atoms: N_12  and  C_13 
REMARK    5  A    between atoms: C_13  and  C_14 
ROOT
HETATM    1  C   UNL     1      42.356 -17.895   1.708  1.00  0.00     0.089 A 
HETATM    2  N   UNL     1      41.043 -18.131   1.563  1.00  0.00    -0.174 NA
HETATM    3  N   UNL     1      40.611 -17.154   0.752  1.00  0.00    -0.272 N 
HETATM    4  H   UNL     1      39.627 -17.116   0.505  1.00  0.00     0.189 HD
HETATM    5  C   UNL     1      41.591 -16.301   0.327  1.00  0.00     0.120 A 
HETATM    6  C   UNL     1      42.739 -16.758   0.943  1.00  0.00     0.071 A 
ENDROOT
BRANCH   5   7
HETATM    7  C   UNL     1      41.308 -15.212  -0.569  1.00  0.00     0.269 C 
HETATM    8  N   UNL     1      40.352 -15.475  -1.519  1.00  0.00    -0.355 N 
HETATM    9  H   UNL     1      39.926 -16.389  -1.557  1.00  0.00     0.162 HD
HETATM   10  O   UNL     1      41.881 -14.130  -0.481  1.00  0.00    -0.266 OA
BRANCH   8  11
HETATM   11  C   UNL     1      39.968 -14.511  -2.530  1.00  0.00     0.128 C 
BRANCH  11  12
HETATM   12  C   UNL     1      38.618 -13.865  -2.226  1.00  0.00     0.012 C 
HETATM   13  C   UNL     1      38.670 -12.380  -1.771  1.00  0.00     0.014 C 
HETATM   14  C   UNL     1      37.220 -11.959  -2.034  1.00  0.00     0.017 C 
HETATM   15  C   UNL     1      39.347 -11.544  -2.834  1.00  0.00    -0.025 C 
HETATM   16  C   UNL     1      37.289 -12.303  -3.525  1.00  0.00     0.009 C 
HETATM   17  C   UNL     1      38.520 -11.507  -3.890  1.00  0.00    -0.026 C 
HETATM   18  C   UNL     1      37.685 -13.794  -3.477  1.00  0.00     0.015 C 
ENDBRANCH  11  12
ENDBRANCH   8  11
ENDBRANCH   5   7
BRANCH   1  19
HETATM   19  C   UNL     1      43.208 -18.746   2.545  1.00  0.00    -0.003 A 
HETATM   20  C   UNL     1      43.371 -18.458   3.912  1.00  0.00     0.050 A 
HETATM   21  C   UNL     1      44.167 -19.270   4.724  1.00  0.00     0.069 A 
HETATM   22  C   UNL     1      44.809 -20.376   4.165  1.00  0.00     0.037 A 
HETATM   23  C   UNL     1      44.665 -20.671   2.810  1.00  0.00     0.004 A 
HETATM   24  C   UNL     1      43.867 -19.858   2.003  1.00  0.00     0.014 A 
BRANCH  21  25
HETATM   25  O   UNL     1      44.394 -19.097   6.062  1.00  0.00    -0.356 OA
HETATM   26  C   UNL     1      45.274 -18.041   6.430  1.00  0.00     0.210 C 
ENDBRANCH  21  25
ENDBRANCH   1  19
TORSDOF 5
ENDMDL
