MODEL 1
REMARK VINA RESULT:      -8.3      0.000      0.000
REMARK  5 active torsions:
REMARK  status: ('A' for Active; 'I' for Inactive)
REMARK    1  A    between atoms: C_6  and  N_7 
REMARK       I    between atoms: N_7  and  C_8 
REMARK    2  A    between atoms: C_8  and  C_9 
REMARK    3  A    between atoms: C_9  and  N_10 
REMARK    4  A    between atoms: C_12  and  C_13 
REMARK    5  A    between atoms: C_14  and  O_15 
ROOT
HETATM    1  N   UNL     1      42.822 -17.057   4.258  1.00  0.00    -0.325 N 
HETATM    2  C   UNL     1      41.658 -16.855   4.971  1.00  0.00     0.239 C 
HETATM    3  O   UNL     1      40.896 -17.707   5.420  1.00  0.00    -0.271 OA
HETATM    4  H   UNL     1      43.514 -16.318   4.317  1.00  0.00     0.169 HD
ENDROOT
BRANCH   2   5
HETATM    5  C   UNL     1      41.366 -15.385   5.223  1.00  0.00     0.222 C 
BRANCH   5   6
HETATM    6  N   UNL     1      40.325 -14.974   4.259  1.00  0.00    -0.389 N 
HETATM    7  H   UNL     1      39.480 -15.575   4.244  1.00  0.00     0.159 HD
HETATM    8  C   UNL     1      40.381 -14.010   3.412  1.00  0.00     0.097 C 
BRANCH   8   9
HETATM    9  C   UNL     1      39.295 -13.691   2.467  1.00  0.00     0.012 A 
HETATM   10  C   UNL     1      38.622 -14.670   1.724  1.00  0.00     0.077 A 
HETATM   11  C   UNL     1      37.596 -14.313   0.852  1.00  0.00     0.037 A 
HETATM   12  C   UNL     1      37.242 -12.969   0.719  1.00  0.00     0.003 A 
HETATM   13  C   UNL     1      37.910 -11.989   1.455  1.00  0.00     0.001 A 
HETATM   14  C   UNL     1      38.936 -12.346   2.331  1.00  0.00     0.016 A 
BRANCH  10  15
HETATM   15  O   UNL     1      38.979 -15.987   1.861  1.00  0.00    -0.360 OA
HETATM   16  H   UNL     1      39.153 -16.160   2.809  1.00  0.00     0.217 HD
ENDBRANCH  10  15
ENDBRANCH   8   9
ENDBRANCH   5   6
ENDBRANCH   2   5
BRANCH   1  17
HETATM   17  C   UNL     1      43.315 -18.273   3.714  1.00  0.00     0.046 A 
HETATM   18  C   UNL     1      44.146 -19.176   4.410  1.00  0.00    -0.034 A 
HETATM   19  C   UNL     1      44.563 -20.363   3.769  1.00  0.00     0.015 A 
HETATM   20  C   UNL     1      44.604 -19.015   5.835  1.00  0.00     0.050 C 
HETATM   21  C   UNL     1      44.133 -20.696   2.485  1.00  0.00    -0.061 A 
HETATM   22  C   UNL     1      44.537 -21.991   1.843  1.00  0.00     0.048 C 
HETATM   23  C   UNL     1      43.270 -19.827   1.824  1.00  0.00     0.015 A 
HETATM   24  C   UNL     1      42.859 -18.620   2.414  1.00  0.00    -0.034 A 
HETATM   25  C   UNL     1      41.945 -17.733   1.604  1.00  0.00     0.050 C 
ENDBRANCH   1  17
TORSDOF 5
ENDMDL
MODEL 2
REMARK VINA RESULT:      -8.1      0.246      1.873
REMARK  5 active torsions:
REMARK  status: ('A' for Active; 'I' for Inactive)
REMARK    1  A    between atoms: C_6  and  N_7 
REMARK       I    between atoms: N_7  and  C_8 
REMARK    2  A    between atoms: C_8  and  C_9 
REMARK    3  A    between atoms: C_9  and  N_10 
REMARK    4  A    between atoms: C_12  and  C_13 
REMARK    5  A    between atoms: C_14  and  O_15 
ROOT
HETATM    1  N   UNL     1      42.777 -16.938   4.177  1.00  0.00    -0.325 N 
HETATM    2  C   UNL     1      41.699 -16.684   5.001  1.00  0.00     0.239 C 
HETATM    3  O   UNL     1      40.950 -17.501   5.530  1.00  0.00    -0.271 OA
HETATM    4  H   UNL     1      43.502 -16.230   4.161  1.00  0.00     0.169 HD
ENDROOT
BRANCH   2   5
HETATM    5  C   UNL     1      41.496 -15.202   5.269  1.00  0.00     0.222 C 
BRANCH   5   6
HETATM    6  N   UNL     1      40.438 -14.732   4.352  1.00  0.00    -0.389 N 
HETATM    7  H   UNL     1      39.473 -14.996   4.624  1.00  0.00     0.159 HD
HETATM    8  C   UNL     1      40.589 -14.101   3.243  1.00  0.00     0.097 C 
BRANCH   8   9
HETATM    9  C   UNL     1      39.467 -13.694   2.378  1.00  0.00     0.012 A 
HETATM   10  C   UNL     1      38.638 -14.615   1.724  1.00  0.00     0.077 A 
HETATM   11  C   UNL     1      37.585 -14.175   0.925  1.00  0.00     0.037 A 
HETATM   12  C   UNL     1      37.361 -12.805   0.775  1.00  0.00     0.003 A 
HETATM   13  C   UNL     1      38.185 -11.882   1.422  1.00  0.00     0.001 A 
HETATM   14  C   UNL     1      39.238 -12.322   2.225  1.00  0.00     0.016 A 
BRANCH  10  15
HETATM   15  O   UNL     1      38.867 -15.958   1.877  1.00  0.00    -0.360 OA
HETATM   16  H   UNL     1      38.204 -16.445   1.344  1.00  0.00     0.217 HD
ENDBRANCH  10  15
ENDBRANCH   8   9
ENDBRANCH   5   6
ENDBRANCH   2   5
BRANCH   1  17
HETATM   17  C   UNL     1      43.161 -18.176   3.596  1.00  0.00     0.046 A 
HETATM   18  C   UNL     1      42.696 -18.647   2.349  1.00  0.00    -0.034 A 
HETATM   19  C   UNL     1      43.161 -19.889   1.866  1.00  0.00     0.015 A 
HETATM   20  C   UNL     1      41.762 -17.903   1.433  1.00  0.00     0.050 C 
HETATM   21  C   UNL     1      44.108 -20.642   2.559  1.00  0.00    -0.061 A 
HETATM   22  C   UNL     1      44.635 -21.931   2.000  1.00  0.00     0.048 C 
HETATM   23  C   UNL     1      44.603 -20.147   3.762  1.00  0.00     0.015 A 
HETATM   24  C   UNL     1      44.142 -18.930   4.294  1.00  0.00    -0.034 A 
HETATM   25  C   UNL     1      44.720 -18.494   5.618  1.00  0.00     0.050 C 
ENDBRANCH   1  17
TORSDOF 5
ENDMDL
MODEL 3
REMARK VINA RESULT:      -7.9      2.770      2.987
REMARK  5 active torsions:
REMARK  status: ('A' for Active; 'I' for Inactive)
REMARK    1  A    between atoms: C_6  and  N_7 
REMARK       I    between atoms: N_7  and  C_8 
REMARK    2  A    between atoms: C_8  and  C_9 
REMARK    3  A    between atoms: C_9  and  N_10 
REMARK    4  A    between atoms: C_12  and  C_13 
REMARK    5  A    between atoms: C_14  and  O_15 
ROOT
HETATM    1  N   UNL     1      43.594 -16.586   3.683  1.00  0.00    -0.325 N 
HETATM    2  C   UNL     1      42.429 -16.013   4.152  1.00  0.00     0.239 C 
HETATM    3  O   UNL     1      41.443 -16.585   4.609  1.00  0.00    -0.271 OA
HETATM    4  H   UNL     1      44.424 -16.007   3.726  1.00  0.00     0.169 HD
ENDROOT
BRANCH   2   5
HETATM    5  C   UNL     1      42.454 -14.495   4.098  1.00  0.00     0.222 C 
BRANCH   5   6
HETATM    6  N   UNL     1      42.483 -14.107   2.673  1.00  0.00    -0.389 N 
HETATM    7  H   UNL     1      43.339 -13.606   2.372  1.00  0.00     0.159 HD
HETATM    8  C   UNL     1      41.552 -14.265   1.801  1.00  0.00     0.097 C 
BRANCH   8   9
HETATM    9  C   UNL     1      41.664 -13.819   0.401  1.00  0.00     0.012 A 
HETATM   10  C   UNL     1      42.160 -12.559   0.041  1.00  0.00     0.077 A 
HETATM   11  C   UNL     1      42.253 -12.192  -1.300  1.00  0.00     0.037 A 
HETATM   12  C   UNL     1      41.844 -13.090  -2.288  1.00  0.00     0.003 A 
HETATM   13  C   UNL     1      41.346 -14.346  -1.937  1.00  0.00     0.001 A 
HETATM   14  C   UNL     1      41.257 -14.715  -0.594  1.00  0.00     0.016 A 
BRANCH  10  15
HETATM   15  O   UNL     1      42.558 -11.685   1.019  1.00  0.00    -0.360 OA
HETATM   16  H   UNL     1      43.448 -11.348   0.786  1.00  0.00     0.217 HD
ENDBRANCH  10  15
ENDBRANCH   8   9
ENDBRANCH   5   6
ENDBRANCH   2   5
BRANCH   1  17
HETATM   17  C   UNL     1      43.857 -17.961   3.441  1.00  0.00     0.046 A 
HETATM   18  C   UNL     1      44.223 -18.888   4.441  1.00  0.00    -0.034 A 
HETATM   19  C   UNL     1      44.445 -20.236   4.083  1.00  0.00     0.015 A 
HETATM   20  C   UNL     1      44.353 -18.578   5.908  1.00  0.00     0.050 C 
HETATM   21  C   UNL     1      44.262 -20.690   2.777  1.00  0.00    -0.061 A 
HETATM   22  C   UNL     1      44.444 -22.138   2.428  1.00  0.00     0.048 C 
HETATM   23  C   UNL     1      43.848 -19.783   1.806  1.00  0.00     0.015 A 
HETATM   24  C   UNL     1      43.648 -18.426   2.116  1.00  0.00    -0.034 A 
HETATM   25  C   UNL     1      43.228 -17.518   0.986  1.00  0.00     0.050 C 
ENDBRANCH   1  17
TORSDOF 5
ENDMDL
MODEL 4
REMARK VINA RESULT:      -7.7      6.194      9.775
REMARK  5 active torsions:
REMARK  status: ('A' for Active; 'I' for Inactive)
REMARK    1  A    between atoms: C_6  and  N_7 
REMARK       I    between atoms: N_7  and  C_8 
REMARK    2  A    between atoms: C_8  and  C_9 
REMARK    3  A    between atoms: C_9  and  N_10 
REMARK    4  A    between atoms: C_12  and  C_13 
REMARK    5  A    between atoms: C_14  and  O_15 
ROOT
HETATM    1  N   UNL     1      42.357 -11.417   8.663  1.00  0.00    -0.325 N 
HETATM    2  C   UNL     1      42.033 -10.654   7.560  1.00  0.00     0.239 C 
HETATM    3  O   UNL     1      42.106  -9.433   7.445  1.00  0.00    -0.271 OA
HETATM    4  H   UNL     1      42.625 -12.377   8.478  1.00  0.00     0.169 HD
ENDROOT
BRANCH   2   5
HETATM    5  C   UNL     1      41.575 -11.489   6.377  1.00  0.00     0.222 C 
BRANCH   5   6
HETATM    6  N   UNL     1      42.173 -12.831   6.531  1.00  0.00    -0.389 N 
HETATM    7  H   UNL     1      42.273 -13.157   7.510  1.00  0.00     0.159 HD
HETATM    8  C   UNL     1      42.632 -13.593   5.603  1.00  0.00     0.097 C 
BRANCH   8   9
HETATM    9  C   UNL     1      43.237 -14.913   5.859  1.00  0.00     0.012 A 
HETATM   10  C   UNL     1      43.973 -15.201   7.016  1.00  0.00     0.077 A 
HETATM   11  C   UNL     1      44.516 -16.469   7.211  1.00  0.00     0.037 A 
HETATM   12  C   UNL     1      44.326 -17.455   6.241  1.00  0.00     0.003 A 
HETATM   13  C   UNL     1      43.597 -17.174   5.084  1.00  0.00     0.001 A 
HETATM   14  C   UNL     1      43.049 -15.905   4.890  1.00  0.00     0.016 A 
BRANCH  10  15
HETATM   15  O   UNL     1      44.154 -14.225   7.962  1.00  0.00    -0.360 OA
HETATM   16  H   UNL     1      44.615 -14.624   8.730  1.00  0.00     0.217 HD
ENDBRANCH  10  15
ENDBRANCH   8   9
ENDBRANCH   5   6
ENDBRANCH   2   5
BRANCH   1  17
HETATM   17  C   UNL     1      42.666 -10.971   9.976  1.00  0.00     0.046 A 
HETATM   18  C   UNL     1      43.975 -10.739  10.449  1.00  0.00    -0.034 A 
HETATM   19  C   UNL     1      44.158 -10.281  11.773  1.00  0.00     0.015 A 
HETATM   20  C   UNL     1      45.233 -10.891   9.636  1.00  0.00     0.050 C 
HETATM   21  C   UNL     1      43.080  -9.999  12.610  1.00  0.00    -0.061 A 
HETATM   22  C   UNL     1      43.293  -9.455  13.993  1.00  0.00     0.048 C 
HETATM   23  C   UNL     1      41.790 -10.177  12.119  1.00  0.00     0.015 A 
HETATM   24  C   UNL     1      41.565 -10.663  10.820  1.00  0.00    -0.034 A 
HETATM   25  C   UNL     1      40.130 -10.849  10.393  1.00  0.00     0.050 C 
ENDBRANCH   1  17
TORSDOF 5
ENDMDL
MODEL 5
REMARK VINA RESULT:      -7.5      2.089      3.103
REMARK  5 active torsions:
REMARK  status: ('A' for Active; 'I' for Inactive)
REMARK    1  A    between atoms: C_6  and  N_7 
REMARK       I    between atoms: N_7  and  C_8 
REMARK    2  A    between atoms: C_8  and  C_9 
REMARK    3  A    between atoms: C_9  and  N_10 
REMARK    4  A    between atoms: C_12  and  C_13 
REMARK    5  A    between atoms: C_14  and  O_15 
ROOT
HETATM    1  N   UNL     1      42.974 -16.999   4.250  1.00  0.00    -0.325 N 
HETATM    2  C   UNL     1      41.833 -16.686   4.962  1.00  0.00     0.239 C 
HETATM    3  O   UNL     1      40.964 -17.456   5.362  1.00  0.00    -0.271 OA
HETATM    4  H   UNL     1      43.751 -16.357   4.349  1.00  0.00     0.169 HD
ENDROOT
BRANCH   2   5
HETATM    5  C   UNL     1      41.724 -15.205   5.282  1.00  0.00     0.222 C 
BRANCH   5   6
HETATM    6  N   UNL     1      41.911 -14.468   4.015  1.00  0.00    -0.389 N 
HETATM    7  H   UNL     1      42.760 -13.874   3.975  1.00  0.00     0.159 HD
HETATM    8  C   UNL     1      41.116 -14.435   3.006  1.00  0.00     0.097 C 
BRANCH   8   9
HETATM    9  C   UNL     1      41.377 -13.645   1.789  1.00  0.00     0.012 A 
HETATM   10  C   UNL     1      41.761 -12.297   1.826  1.00  0.00     0.077 A 
HETATM   11  C   UNL     1      42.005 -11.600   0.644  1.00  0.00     0.037 A 
HETATM   12  C   UNL     1      41.860 -12.253  -0.582  1.00  0.00     0.003 A 
HETATM   13  C   UNL     1      41.476 -13.594  -0.625  1.00  0.00     0.001 A 
HETATM   14  C   UNL     1      41.235 -14.294   0.558  1.00  0.00     0.016 A 
BRANCH  10  15
HETATM   15  O   UNL     1      41.899 -11.666   3.035  1.00  0.00    -0.360 OA
HETATM   16  H   UNL     1      41.173 -11.964   3.621  1.00  0.00     0.217 HD
ENDBRANCH  10  15
ENDBRANCH   8   9
ENDBRANCH   5   6
ENDBRANCH   2   5
BRANCH   1  17
HETATM   17  C   UNL     1      43.319 -18.240   3.651  1.00  0.00     0.046 A 
HETATM   18  C   UNL     1      42.872 -18.661   2.380  1.00  0.00    -0.034 A 
HETATM   19  C   UNL     1      43.294 -19.913   1.882  1.00  0.00     0.015 A 
HETATM   20  C   UNL     1      42.001 -17.854   1.454  1.00  0.00     0.050 C 
HETATM   21  C   UNL     1      44.183 -20.724   2.586  1.00  0.00    -0.061 A 
HETATM   22  C   UNL     1      44.667 -22.024   2.013  1.00  0.00     0.048 C 
HETATM   23  C   UNL     1      44.662 -20.279   3.814  1.00  0.00     0.015 A 
HETATM   24  C   UNL     1      44.241 -19.054   4.360  1.00  0.00    -0.034 A 
HETATM   25  C   UNL     1      44.797 -18.676   5.711  1.00  0.00     0.050 C 
ENDBRANCH   1  17
TORSDOF 5
ENDMDL
MODEL 6
REMARK VINA RESULT:      -7.4      3.164      3.691
REMARK  5 active torsions:
REMARK  status: ('A' for Active; 'I' for Inactive)
REMARK    1  A    between atoms: C_6  and  N_7 
REMARK       I    between atoms: N_7  and  C_8 
REMARK    2  A    between atoms: C_8  and  C_9 
REMARK    3  A    between atoms: C_9  and  N_10 
REMARK    4  A    between atoms: C_12  and  C_13 
REMARK    5  A    between atoms: C_14  and  O_15 
ROOT
HETATM    1  N   UNL     1      43.349 -16.207   3.622  1.00  0.00    -0.325 N 
HETATM    2  C   UNL     1      42.131 -15.571   3.492  1.00  0.00     0.239 C 
HETATM    3  O   UNL     1      41.022 -16.088   3.385  1.00  0.00    -0.271 OA
HETATM    4  H   UNL     1      44.078 -15.683   4.090  1.00  0.00     0.169 HD
ENDROOT
BRANCH   2   5
HETATM    5  C   UNL     1      42.248 -14.057   3.529  1.00  0.00     0.222 C 
BRANCH   5   6
HETATM    6  N   UNL     1      42.484 -13.602   2.143  1.00  0.00    -0.389 N 
HETATM    7  H   UNL     1      43.363 -13.946   1.713  1.00  0.00     0.159 HD
HETATM    8  C   UNL     1      41.765 -12.790   1.454  1.00  0.00     0.097 C 
BRANCH   8   9
HETATM    9  C   UNL     1      42.098 -12.373   0.080  1.00  0.00     0.012 A 
HETATM   10  C   UNL     1      42.160 -13.271  -0.993  1.00  0.00     0.077 A 
HETATM   11  C   UNL     1      42.470 -12.821  -2.275  1.00  0.00     0.037 A 
HETATM   12  C   UNL     1      42.725 -11.464  -2.484  1.00  0.00     0.003 A 
HETATM   13  C   UNL     1      42.668 -10.564  -1.419  1.00  0.00     0.001 A 
HETATM   14  C   UNL     1      42.353 -11.014  -0.135  1.00  0.00     0.016 A 
BRANCH  10  15
HETATM   15  O   UNL     1      41.909 -14.602  -0.777  1.00  0.00    -0.360 OA
HETATM   16  H   UNL     1      42.440 -15.122  -1.416  1.00  0.00     0.217 HD
ENDBRANCH  10  15
ENDBRANCH   8   9
ENDBRANCH   5   6
ENDBRANCH   2   5
BRANCH   1  17
HETATM   17  C   UNL     1      43.633 -17.591   3.474  1.00  0.00     0.046 A 
HETATM   18  C   UNL     1      43.746 -18.251   2.231  1.00  0.00    -0.034 A 
HETATM   19  C   UNL     1      44.047 -19.631   2.209  1.00  0.00     0.015 A 
HETATM   20  C   UNL     1      43.623 -17.593   0.883  1.00  0.00     0.050 C 
HETATM   21  C   UNL     1      44.288 -20.351   3.379  1.00  0.00    -0.061 A 
HETATM   22  C   UNL     1      44.666 -21.803   3.332  1.00  0.00     0.048 C 
HETATM   23  C   UNL     1      44.228 -19.683   4.598  1.00  0.00     0.015 A 
HETATM   24  C   UNL     1      43.900 -18.317   4.665  1.00  0.00    -0.034 A 
HETATM   25  C   UNL     1      43.833 -17.692   6.037  1.00  0.00     0.050 C 
ENDBRANCH   1  17
TORSDOF 5
ENDMDL
MODEL 7
REMARK VINA RESULT:      -7.4      2.746      3.654
REMARK  5 active torsions:
REMARK  status: ('A' for Active; 'I' for Inactive)
REMARK    1  A    between atoms: C_6  and  N_7 
REMARK       I    between atoms: N_7  and  C_8 
REMARK    2  A    between atoms: C_8  and  C_9 
REMARK    3  A    between atoms: C_9  and  N_10 
REMARK    4  A    between atoms: C_12  and  C_13 
REMARK    5  A    between atoms: C_14  and  O_15 
ROOT
HETATM    1  N   UNL     1      40.687 -16.469   3.206  1.00  0.00    -0.325 N 
HETATM    2  C   UNL     1      40.634 -15.090   3.192  1.00  0.00     0.239 C 
HETATM    3  O   UNL     1      41.497 -14.302   3.570  1.00  0.00    -0.271 OA
HETATM    4  H   UNL     1      40.113 -16.945   2.521  1.00  0.00     0.169 HD
ENDROOT
BRANCH   2   5
HETATM    5  C   UNL     1      39.345 -14.555   2.591  1.00  0.00     0.222 C 
BRANCH   5   6
HETATM    6  N   UNL     1      39.369 -14.873   1.149  1.00  0.00    -0.389 N 
HETATM    7  H   UNL     1      39.317 -15.883   0.922  1.00  0.00     0.159 HD
HETATM    8  C   UNL     1      39.509 -14.052   0.170  1.00  0.00     0.097 C 
BRANCH   8   9
HETATM    9  C   UNL     1      39.547 -14.469  -1.243  1.00  0.00     0.012 A 
HETATM   10  C   UNL     1      40.630 -15.161  -1.804  1.00  0.00     0.077 A 
HETATM   11  C   UNL     1      40.609 -15.539  -3.145  1.00  0.00     0.037 A 
HETATM   12  C   UNL     1      39.500 -15.221  -3.931  1.00  0.00     0.003 A 
HETATM   13  C   UNL     1      38.419 -14.531  -3.381  1.00  0.00     0.001 A 
HETATM   14  C   UNL     1      38.438 -14.154  -2.036  1.00  0.00     0.016 A 
BRANCH  10  15
HETATM   15  O   UNL     1      41.714 -15.466  -1.022  1.00  0.00    -0.360 OA
HETATM   16  H   UNL     1      42.456 -15.715  -1.612  1.00  0.00     0.217 HD
ENDBRANCH  10  15
ENDBRANCH   8   9
ENDBRANCH   5   6
ENDBRANCH   2   5
BRANCH   1  17
HETATM   17  C   UNL     1      41.656 -17.301   3.829  1.00  0.00     0.046 A 
HETATM   18  C   UNL     1      41.739 -17.519   5.221  1.00  0.00    -0.034 A 
HETATM   19  C   UNL     1      42.739 -18.381   5.724  1.00  0.00     0.015 A 
HETATM   20  C   UNL     1      40.802 -16.944   6.249  1.00  0.00     0.050 C 
HETATM   21  C   UNL     1      43.615 -19.065   4.881  1.00  0.00    -0.061 A 
HETATM   22  C   UNL     1      44.631 -20.023   5.431  1.00  0.00     0.048 C 
HETATM   23  C   UNL     1      43.493 -18.887   3.506  1.00  0.00     0.015 A 
HETATM   24  C   UNL     1      42.532 -18.013   2.967  1.00  0.00    -0.034 A 
HETATM   25  C   UNL     1      42.500 -17.868   1.466  1.00  0.00     0.050 C 
ENDBRANCH   1  17
TORSDOF 5
ENDMDL
MODEL 8
REMARK VINA RESULT:      -7.2      3.850      4.931
REMARK  5 active torsions:
REMARK  status: ('A' for Active; 'I' for Inactive)
REMARK    1  A    between atoms: C_6  and  N_7 
REMARK       I    between atoms: N_7  and  C_8 
REMARK    2  A    between atoms: C_8  and  C_9 
REMARK    3  A    between atoms: C_9  and  N_10 
REMARK    4  A    between atoms: C_12  and  C_13 
REMARK    5  A    between atoms: C_14  and  O_15 
ROOT
HETATM    1  N   UNL     1      40.705 -16.236   4.284  1.00  0.00    -0.325 N 
HETATM    2  C   UNL     1      40.885 -14.985   4.840  1.00  0.00     0.239 C 
HETATM    3  O   UNL     1      41.944 -14.388   5.016  1.00  0.00    -0.271 OA
HETATM    4  H   UNL     1      39.805 -16.404   3.851  1.00  0.00     0.169 HD
ENDROOT
BRANCH   2   5
HETATM    5  C   UNL     1      39.577 -14.314   5.223  1.00  0.00     0.222 C 
BRANCH   5   6
HETATM    6  N   UNL     1      39.872 -13.381   6.330  1.00  0.00    -0.389 N 
HETATM    7  H   UNL     1      40.312 -13.815   7.163  1.00  0.00     0.159 HD
HETATM    8  C   UNL     1      39.586 -12.130   6.395  1.00  0.00     0.097 C 
BRANCH   8   9
HETATM    9  C   UNL     1      39.899 -11.282   7.559  1.00  0.00     0.012 A 
HETATM   10  C   UNL     1      39.477 -11.591   8.860  1.00  0.00     0.077 A 
HETATM   11  C   UNL     1      39.809 -10.758   9.927  1.00  0.00     0.037 A 
HETATM   12  C   UNL     1      40.564  -9.608   9.692  1.00  0.00     0.003 A 
HETATM   13  C   UNL     1      40.986  -9.293   8.399  1.00  0.00     0.001 A 
HETATM   14  C   UNL     1      40.657 -10.129   7.330  1.00  0.00     0.016 A 
BRANCH  10  15
HETATM   15  O   UNL     1      38.735 -12.722   9.079  1.00  0.00    -0.360 OA
HETATM   16  H   UNL     1      37.788 -12.470   9.094  1.00  0.00     0.217 HD
ENDBRANCH  10  15
ENDBRANCH   8   9
ENDBRANCH   5   6
ENDBRANCH   2   5
BRANCH   1  17
HETATM   17  C   UNL     1      41.696 -17.201   3.961  1.00  0.00     0.046 A 
HETATM   18  C   UNL     1      42.497 -17.867   4.913  1.00  0.00    -0.034 A 
HETATM   19  C   UNL     1      43.441 -18.820   4.472  1.00  0.00     0.015 A 
HETATM   20  C   UNL     1      42.402 -17.690   6.405  1.00  0.00     0.050 C 
HETATM   21  C   UNL     1      43.570 -19.161   3.126  1.00  0.00    -0.061 A 
HETATM   22  C   UNL     1      44.537 -20.220   2.684  1.00  0.00     0.048 C 
HETATM   23  C   UNL     1      42.739 -18.540   2.198  1.00  0.00     0.015 A 
HETATM   24  C   UNL     1      41.809 -17.563   2.592  1.00  0.00    -0.034 A 
HETATM   25  C   UNL     1      40.976 -16.928   1.506  1.00  0.00     0.050 C 
ENDBRANCH   1  17
TORSDOF 5
ENDMDL
MODEL 9
REMARK VINA RESULT:      -7.2      3.035      3.659
REMARK  5 active torsions:
REMARK  status: ('A' for Active; 'I' for Inactive)
REMARK    1  A    between atoms: C_6  and  N_7 
REMARK       I    between atoms: N_7  and  C_8 
REMARK    2  A    between atoms: C_8  and  C_9 
REMARK    3  A    between atoms: C_9  and  N_10 
REMARK    4  A    between atoms: C_12  and  C_13 
REMARK    5  A    between atoms: C_14  and  O_15 
ROOT
HETATM    1  N   UNL     1      42.523 -15.674   2.732  1.00  0.00    -0.325 N 
HETATM    2  C   UNL     1      42.974 -14.372   2.809  1.00  0.00     0.239 C 
HETATM    3  O   UNL     1      44.059 -13.977   3.228  1.00  0.00    -0.271 OA
HETATM    4  H   UNL     1      41.823 -15.862   2.024  1.00  0.00     0.169 HD
ENDROOT
BRANCH   2   5
HETATM    5  C   UNL     1      41.974 -13.367   2.262  1.00  0.00     0.222 C 
BRANCH   5   6
HETATM    6  N   UNL     1      41.626 -13.796   0.892  1.00  0.00    -0.389 N 
HETATM    7  H   UNL     1      42.429 -13.878   0.241  1.00  0.00     0.159 HD
HETATM    8  C   UNL     1      40.452 -14.012   0.415  1.00  0.00     0.097 C 
BRANCH   8   9
HETATM    9  C   UNL     1      40.202 -14.415  -0.980  1.00  0.00     0.012 A 
HETATM   10  C   UNL     1      39.188 -13.848  -1.765  1.00  0.00     0.077 A 
HETATM   11  C   UNL     1      39.001 -14.261  -3.083  1.00  0.00     0.037 A 
HETATM   12  C   UNL     1      39.830 -15.248  -3.619  1.00  0.00     0.003 A 
HETATM   13  C   UNL     1      40.841 -15.818  -2.842  1.00  0.00     0.001 A 
HETATM   14  C   UNL     1      41.031 -15.403  -1.523  1.00  0.00     0.016 A 
BRANCH  10  15
HETATM   15  O   UNL     1      38.379 -12.881  -1.228  1.00  0.00    -0.360 OA
HETATM   16  H   UNL     1      38.610 -12.778  -0.281  1.00  0.00     0.217 HD
ENDBRANCH  10  15
ENDBRANCH   8   9
ENDBRANCH   5   6
ENDBRANCH   2   5
BRANCH   1  17
HETATM   17  C   UNL     1      43.117 -16.840   3.286  1.00  0.00     0.046 A 
HETATM   18  C   UNL     1      43.160 -17.130   4.666  1.00  0.00    -0.034 A 
HETATM   19  C   UNL     1      43.766 -18.331   5.098  1.00  0.00     0.015 A 
HETATM   20  C   UNL     1      42.558 -16.281   5.753  1.00  0.00     0.050 C 
HETATM   21  C   UNL     1      44.277 -19.264   4.197  1.00  0.00    -0.061 A 
HETATM   22  C   UNL     1      44.863 -20.562   4.672  1.00  0.00     0.048 C 
HETATM   23  C   UNL     1      44.182 -18.997   2.834  1.00  0.00     0.015 A 
HETATM   24  C   UNL     1      43.616 -17.799   2.365  1.00  0.00    -0.034 A 
HETATM   25  C   UNL     1      43.587 -17.591   0.870  1.00  0.00     0.050 C 
ENDBRANCH   1  17
TORSDOF 5
ENDMDL
MODEL 10
REMARK VINA RESULT:      -7.1      1.673      1.974
REMARK  5 active torsions:
REMARK  status: ('A' for Active; 'I' for Inactive)
REMARK    1  A    between atoms: C_6  and  N_7 
REMARK       I    between atoms: N_7  and  C_8 
REMARK    2  A    between atoms: C_8  and  C_9 
REMARK    3  A    between atoms: C_9  and  N_10 
REMARK    4  A    between atoms: C_12  and  C_13 
REMARK    5  A    between atoms: C_14  and  O_15 
ROOT
HETATM    1  N   UNL     1      42.351 -16.610   3.980  1.00  0.00    -0.325 N 
HETATM    2  C   UNL     1      42.841 -15.329   3.824  1.00  0.00     0.239 C 
HETATM    3  O   UNL     1      43.786 -14.967   3.128  1.00  0.00    -0.271 OA
HETATM    4  H   UNL     1      41.374 -16.684   4.238  1.00  0.00     0.169 HD
ENDROOT
BRANCH   2   5
HETATM    5  C   UNL     1      42.049 -14.293   4.604  1.00  0.00     0.222 C 
BRANCH   5   6
HETATM    6  N   UNL     1      40.815 -14.019   3.840  1.00  0.00    -0.389 N 
HETATM    7  H   UNL     1      39.950 -14.427   4.242  1.00  0.00     0.159 HD
HETATM    8  C   UNL     1      40.711 -13.396   2.721  1.00  0.00     0.097 C 
BRANCH   8   9
HETATM    9  C   UNL     1      39.431 -13.192   2.018  1.00  0.00     0.012 A 
HETATM   10  C   UNL     1      38.831 -11.933   1.880  1.00  0.00     0.077 A 
HETATM   11  C   UNL     1      37.625 -11.797   1.197  1.00  0.00     0.037 A 
HETATM   12  C   UNL     1      37.012 -12.927   0.651  1.00  0.00     0.003 A 
HETATM   13  C   UNL     1      37.602 -14.184   0.787  1.00  0.00     0.001 A 
HETATM   14  C   UNL     1      38.813 -14.321   1.469  1.00  0.00     0.016 A 
BRANCH  10  15
HETATM   15  O   UNL     1      39.441 -10.831   2.420  1.00  0.00    -0.360 OA
HETATM   16  H   UNL     1      40.230 -11.130   2.919  1.00  0.00     0.217 HD
ENDBRANCH  10  15
ENDBRANCH   8   9
ENDBRANCH   5   6
ENDBRANCH   2   5
BRANCH   1  17
HETATM   17  C   UNL     1      42.928 -17.828   3.532  1.00  0.00     0.046 A 
HETATM   18  C   UNL     1      43.869 -18.579   4.268  1.00  0.00    -0.034 A 
HETATM   19  C   UNL     1      44.364 -19.785   3.726  1.00  0.00     0.015 A 
HETATM   20  C   UNL     1      44.374 -18.232   5.643  1.00  0.00     0.050 C 
HETATM   21  C   UNL     1      43.909 -20.285   2.505  1.00  0.00    -0.061 A 
HETATM   22  C   UNL     1      44.402 -21.599   1.974  1.00  0.00     0.048 C 
HETATM   23  C   UNL     1      42.941 -19.567   1.810  1.00  0.00     0.015 A 
HETATM   24  C   UNL     1      42.447 -18.345   2.300  1.00  0.00    -0.034 A 
HETATM   25  C   UNL     1      41.421 -17.629   1.456  1.00  0.00     0.050 C 
ENDBRANCH   1  17
TORSDOF 5
ENDMDL
