MODEL 1
REMARK VINA RESULT:      -9.0      0.000      0.000
REMARK  6 active torsions:
REMARK  status: ('A' for Active; 'I' for Inactive)
REMARK    1  A    between atoms: C_2  and  O_3 
REMARK    2  A    between atoms: C_2  and  C_4 
REMARK    3  A    between atoms: C_2  and  C_11 
REMARK    4  A    between atoms: C_11  and  N_12 
REMARK       I    between atoms: N_12  and  C_13 
REMARK    5  A    between atoms: C_13  and  C_14 
REMARK    6  A    between atoms: C_18  and  C_19 
ROOT
HETATM    1  N   UNL     1      44.563 -13.922   7.754  1.00  0.00    -0.352 N 
HETATM    2  C   UNL     1      45.488 -12.933   7.995  1.00  0.00     0.272 C 
HETATM    3  O   UNL     1      46.540 -12.823   7.370  1.00  0.00    -0.266 OA
HETATM    4  H   UNL     1      43.678 -13.839   8.249  1.00  0.00     0.162 HD
ENDROOT
BRANCH   2   5
HETATM    5  C   UNL     1      45.096 -12.001   9.062  1.00  0.00     0.146 A 
HETATM    6  N   UNL     1      45.663 -10.787   9.209  1.00  0.00    -0.169 NA
HETATM    7  N   UNL     1      45.045 -10.269  10.284  1.00  0.00    -0.277 N 
HETATM    8  H   UNL     1      45.337  -9.351  10.602  1.00  0.00     0.189 HD
HETATM    9  C   UNL     1      44.089 -11.079  10.840  1.00  0.00     0.063 A 
HETATM   10  C   UNL     1      44.115 -12.222  10.063  1.00  0.00     0.071 A 
BRANCH   9  11
HETATM   11  C   UNL     1      43.295 -10.727  12.016  1.00  0.00    -0.008 A 
HETATM   12  C   UNL     1      42.062 -11.346  12.275  1.00  0.00     0.017 A 
HETATM   13  C   UNL     1      41.316 -11.000  13.406  1.00  0.00     0.043 A 
HETATM   14  C   UNL     1      41.800 -10.036  14.280  1.00  0.00     0.116 A 
HETATM   15  F   UNL     1      41.083  -9.705  15.362  1.00  0.00    -0.206 F 
HETATM   16  C   UNL     1      43.019  -9.413  14.048  1.00  0.00     0.043 A 
HETATM   17  C   UNL     1      43.765  -9.760  12.919  1.00  0.00     0.017 A 
ENDBRANCH   9  11
ENDBRANCH   2   5
BRANCH   1  18
HETATM   18  C   UNL     1      44.668 -14.868   6.658  1.00  0.00     0.165 C 
BRANCH  18  19
HETATM   19  C   UNL     1      43.322 -15.587   6.322  1.00  0.00     0.099 C 
HETATM   20  C   UNL     1      42.280 -14.552   5.867  1.00  0.00     0.053 C 
BRANCH  19  21
HETATM   21  O   UNL     1      42.896 -16.155   7.575  1.00  0.00    -0.384 OA
HETATM   22  H   UNL     1      42.231 -15.555   7.955  1.00  0.00     0.211 HD
ENDBRANCH  19  21
BRANCH  19  23
HETATM   23  C   UNL     1      43.451 -16.698   5.262  1.00  0.00    -0.001 A 
HETATM   24  C   UNL     1      44.227 -17.864   5.450  1.00  0.00     0.043 A 
HETATM   25 CL   UNL     1      45.139 -18.175   6.891  1.00  0.00    -0.084 Cl
HETATM   26  C   UNL     1      44.295 -18.863   4.466  1.00  0.00     0.024 A 
HETATM   27  C   UNL     1      43.589 -18.735   3.276  1.00  0.00     0.002 A 
HETATM   28  C   UNL     1      42.807 -17.608   3.067  1.00  0.00     0.001 A 
HETATM   29  C   UNL     1      42.737 -16.609   4.045  1.00  0.00     0.012 A 
ENDBRANCH  19  23
ENDBRANCH  18  19
ENDBRANCH   1  18
TORSDOF 6
ENDMDL
MODEL 2
REMARK VINA RESULT:      -8.7      4.502      9.513
REMARK  6 active torsions:
REMARK  status: ('A' for Active; 'I' for Inactive)
REMARK    1  A    between atoms: C_2  and  O_3 
REMARK    2  A    between atoms: C_2  and  C_4 
REMARK    3  A    between atoms: C_2  and  C_11 
REMARK    4  A    between atoms: C_11  and  N_12 
REMARK       I    between atoms: N_12  and  C_13 
REMARK    5  A    between atoms: C_13  and  C_14 
REMARK    6  A    between atoms: C_18  and  C_19 
ROOT
HETATM    1  N   UNL     1      44.148 -13.606   8.275  1.00  0.00    -0.352 N 
HETATM    2  C   UNL     1      44.702 -14.321   7.239  1.00  0.00     0.272 C 
HETATM    3  O   UNL     1      45.436 -13.824   6.389  1.00  0.00    -0.266 OA
HETATM    4  H   UNL     1      43.659 -14.147   8.984  1.00  0.00     0.162 HD
ENDROOT
BRANCH   2   5
HETATM    5  C   UNL     1      44.351 -15.749   7.251  1.00  0.00     0.146 A 
HETATM    6  N   UNL     1      43.524 -16.285   8.170  1.00  0.00    -0.169 NA
HETATM    7  N   UNL     1      43.476 -17.587   7.843  1.00  0.00    -0.277 N 
HETATM    8  H   UNL     1      42.922 -18.203   8.428  1.00  0.00     0.189 HD
HETATM    9  C   UNL     1      44.220 -17.928   6.743  1.00  0.00     0.063 A 
HETATM   10  C   UNL     1      44.810 -16.742   6.348  1.00  0.00     0.071 A 
BRANCH   9  11
HETATM   11  C   UNL     1      44.323 -19.284   6.208  1.00  0.00    -0.008 A 
HETATM   12  C   UNL     1      44.935 -19.536   4.969  1.00  0.00     0.017 A 
HETATM   13  C   UNL     1      45.028 -20.839   4.472  1.00  0.00     0.043 A 
HETATM   14  C   UNL     1      44.510 -21.894   5.212  1.00  0.00     0.116 A 
HETATM   15  F   UNL     1      44.600 -23.142   4.733  1.00  0.00    -0.206 F 
HETATM   16  C   UNL     1      43.905 -21.672   6.441  1.00  0.00     0.043 A 
HETATM   17  C   UNL     1      43.815 -20.370   6.938  1.00  0.00     0.017 A 
ENDBRANCH   9  11
ENDBRANCH   2   5
BRANCH   1  18
HETATM   18  C   UNL     1      44.464 -12.215   8.548  1.00  0.00     0.165 C 
BRANCH  18  19
HETATM   19  C   UNL     1      44.160 -11.783  10.019  1.00  0.00     0.099 C 
HETATM   20  C   UNL     1      45.390 -11.081  10.619  1.00  0.00     0.053 C 
BRANCH  19  21
HETATM   21  O   UNL     1      43.944 -13.022  10.720  1.00  0.00    -0.384 OA
HETATM   22  H   UNL     1      43.525 -13.640  10.095  1.00  0.00     0.211 HD
ENDBRANCH  19  21
BRANCH  19  23
HETATM   23  C   UNL     1      42.921 -10.878  10.164  1.00  0.00    -0.001 A 
HETATM   24  C   UNL     1      42.375 -10.502  11.412  1.00  0.00     0.043 A 
HETATM   25 CL   UNL     1      43.026 -11.031  12.930  1.00  0.00    -0.084 Cl
HETATM   26  C   UNL     1      41.260  -9.654  11.498  1.00  0.00     0.024 A 
HETATM   27  C   UNL     1      40.665  -9.149  10.347  1.00  0.00     0.002 A 
HETATM   28  C   UNL     1      41.186  -9.487   9.107  1.00  0.00     0.001 A 
HETATM   29  C   UNL     1      42.298 -10.334   9.018  1.00  0.00     0.012 A 
ENDBRANCH  19  23
ENDBRANCH  18  19
ENDBRANCH   1  18
TORSDOF 6
ENDMDL
MODEL 3
REMARK VINA RESULT:      -8.6      1.830      2.254
REMARK  6 active torsions:
REMARK  status: ('A' for Active; 'I' for Inactive)
REMARK    1  A    between atoms: C_2  and  O_3 
REMARK    2  A    between atoms: C_2  and  C_4 
REMARK    3  A    between atoms: C_2  and  C_11 
REMARK    4  A    between atoms: C_11  and  N_12 
REMARK       I    between atoms: N_12  and  C_13 
REMARK    5  A    between atoms: C_13  and  C_14 
REMARK    6  A    between atoms: C_18  and  C_19 
ROOT
HETATM    1  N   UNL     1      44.378 -13.600   8.037  1.00  0.00    -0.352 N 
HETATM    2  C   UNL     1      45.049 -12.652   8.774  1.00  0.00     0.272 C 
HETATM    3  O   UNL     1      46.081 -12.106   8.395  1.00  0.00    -0.266 OA
HETATM    4  H   UNL     1      43.472 -13.890   8.397  1.00  0.00     0.162 HD
ENDROOT
BRANCH   2   5
HETATM    5  C   UNL     1      44.405 -12.334  10.057  1.00  0.00     0.146 A 
HETATM    6  N   UNL     1      44.416 -13.184  11.103  1.00  0.00    -0.169 NA
HETATM    7  N   UNL     1      43.724 -12.535  12.055  1.00  0.00    -0.277 N 
HETATM    8  H   UNL     1      43.578 -13.006  12.941  1.00  0.00     0.189 HD
HETATM    9  C   UNL     1      43.274 -11.293  11.688  1.00  0.00     0.063 A 
HETATM   10  C   UNL     1      43.699 -11.148  10.380  1.00  0.00     0.071 A 
BRANCH   9  11
HETATM   11  C   UNL     1      42.497 -10.410  12.555  1.00  0.00    -0.008 A 
HETATM   12  C   UNL     1      42.580 -10.503  13.954  1.00  0.00     0.017 A 
HETATM   13  C   UNL     1      41.831  -9.649  14.770  1.00  0.00     0.043 A 
HETATM   14  C   UNL     1      41.000  -8.700  14.191  1.00  0.00     0.116 A 
HETATM   15  F   UNL     1      40.283  -7.883  14.975  1.00  0.00    -0.206 F 
HETATM   16  C   UNL     1      40.904  -8.585  12.811  1.00  0.00     0.043 A 
HETATM   17  C   UNL     1      41.653  -9.436  11.996  1.00  0.00     0.017 A 
ENDBRANCH   9  11
ENDBRANCH   2   5
BRANCH   1  18
HETATM   18  C   UNL     1      44.747 -13.971   6.682  1.00  0.00     0.165 C 
BRANCH  18  19
HETATM   19  C   UNL     1      43.575 -14.610   5.869  1.00  0.00     0.099 C 
HETATM   20  C   UNL     1      43.599 -14.086   4.423  1.00  0.00     0.053 C 
BRANCH  19  21
HETATM   21  O   UNL     1      42.383 -14.130   6.518  1.00  0.00    -0.384 OA
HETATM   22  H   UNL     1      42.243 -14.678   7.311  1.00  0.00     0.211 HD
ENDBRANCH  19  21
BRANCH  19  23
HETATM   23  C   UNL     1      43.583 -16.152   5.864  1.00  0.00    -0.001 A 
HETATM   24  C   UNL     1      42.591 -16.931   5.227  1.00  0.00     0.043 A 
HETATM   25 CL   UNL     1      41.238 -16.244   4.389  1.00  0.00    -0.084 Cl
HETATM   26  C   UNL     1      42.652 -18.334   5.225  1.00  0.00     0.024 A 
HETATM   27  C   UNL     1      43.703 -18.997   5.847  1.00  0.00     0.002 A 
HETATM   28  C   UNL     1      44.700 -18.260   6.470  1.00  0.00     0.001 A 
HETATM   29  C   UNL     1      44.642 -16.861   6.474  1.00  0.00     0.012 A 
ENDBRANCH  19  23
ENDBRANCH  18  19
ENDBRANCH   1  18
TORSDOF 6
ENDMDL
MODEL 4
REMARK VINA RESULT:      -8.5      4.412     10.000
REMARK  6 active torsions:
REMARK  status: ('A' for Active; 'I' for Inactive)
REMARK    1  A    between atoms: C_2  and  O_3 
REMARK    2  A    between atoms: C_2  and  C_4 
REMARK    3  A    between atoms: C_2  and  C_11 
REMARK    4  A    between atoms: C_11  and  N_12 
REMARK       I    between atoms: N_12  and  C_13 
REMARK    5  A    between atoms: C_13  and  C_14 
REMARK    6  A    between atoms: C_18  and  C_19 
ROOT
HETATM    1  N   UNL     1      44.013 -13.577   7.642  1.00  0.00    -0.352 N 
HETATM    2  C   UNL     1      43.390 -14.010   6.495  1.00  0.00     0.272 C 
HETATM    3  O   UNL     1      42.662 -13.297   5.809  1.00  0.00    -0.266 OA
HETATM    4  H   UNL     1      44.687 -14.218   8.056  1.00  0.00     0.162 HD
ENDROOT
BRANCH   2   5
HETATM    5  C   UNL     1      43.689 -15.407   6.149  1.00  0.00     0.146 A 
HETATM    6  N   UNL     1      44.265 -16.262   7.017  1.00  0.00    -0.169 NA
HETATM    7  N   UNL     1      44.375 -17.406   6.322  1.00  0.00    -0.277 N 
HETATM    8  H   UNL     1      44.814 -18.198   6.777  1.00  0.00     0.189 HD
HETATM    9  C   UNL     1      43.882 -17.347   5.043  1.00  0.00     0.063 A 
HETATM   10  C   UNL     1      43.440 -16.045   4.907  1.00  0.00     0.071 A 
BRANCH   9  11
HETATM   11  C   UNL     1      43.899 -18.466   4.103  1.00  0.00    -0.008 A 
HETATM   12  C   UNL     1      43.257 -18.383   2.857  1.00  0.00     0.017 A 
HETATM   13  C   UNL     1      43.284 -19.461   1.968  1.00  0.00     0.043 A 
HETATM   14  C   UNL     1      43.954 -20.625   2.321  1.00  0.00     0.116 A 
HETATM   15  F   UNL     1      43.979 -21.657   1.467  1.00  0.00    -0.206 F 
HETATM   16  C   UNL     1      44.601 -20.731   3.544  1.00  0.00     0.043 A 
HETATM   17  C   UNL     1      44.576 -19.652   4.431  1.00  0.00     0.017 A 
ENDBRANCH   9  11
ENDBRANCH   2   5
BRANCH   1  18
HETATM   18  C   UNL     1      43.979 -12.201   8.103  1.00  0.00     0.165 C 
BRANCH  18  19
HETATM   19  C   UNL     1      44.429 -12.028   9.589  1.00  0.00     0.099 C 
HETATM   20  C   UNL     1      45.939 -11.743   9.645  1.00  0.00     0.053 C 
BRANCH  19  21
HETATM   21  O   UNL     1      44.176 -13.310  10.192  1.00  0.00    -0.384 OA
HETATM   22  H   UNL     1      44.096 -13.169  11.153  1.00  0.00     0.211 HD
ENDBRANCH  19  21
BRANCH  19  23
HETATM   23  C   UNL     1      43.663 -10.930  10.354  1.00  0.00    -0.001 A 
HETATM   24  C   UNL     1      42.532 -10.265   9.829  1.00  0.00     0.043 A 
HETATM   25 CL   UNL     1      41.883 -10.594   8.255  1.00  0.00    -0.084 Cl
HETATM   26  C   UNL     1      41.848  -9.289  10.571  1.00  0.00     0.024 A 
HETATM   27  C   UNL     1      42.264  -8.956  11.855  1.00  0.00     0.002 A 
HETATM   28  C   UNL     1      43.362  -9.601  12.404  1.00  0.00     0.001 A 
HETATM   29  C   UNL     1      44.047 -10.575  11.667  1.00  0.00     0.012 A 
ENDBRANCH  19  23
ENDBRANCH  18  19
ENDBRANCH   1  18
TORSDOF 6
ENDMDL
MODEL 5
REMARK VINA RESULT:      -8.5      9.403     11.741
REMARK  6 active torsions:
REMARK  status: ('A' for Active; 'I' for Inactive)
REMARK    1  A    between atoms: C_2  and  O_3 
REMARK    2  A    between atoms: C_2  and  C_4 
REMARK    3  A    between atoms: C_2  and  C_11 
REMARK    4  A    between atoms: C_11  and  N_12 
REMARK       I    between atoms: N_12  and  C_13 
REMARK    5  A    between atoms: C_13  and  C_14 
REMARK    6  A    between atoms: C_18  and  C_19 
ROOT
HETATM    1  N   UNL     1      41.665 -15.055  -0.523  1.00  0.00    -0.352 N 
HETATM    2  C   UNL     1      42.035 -14.817   0.780  1.00  0.00     0.272 C 
HETATM    3  O   UNL     1      42.211 -13.692   1.240  1.00  0.00    -0.266 OA
HETATM    4  H   UNL     1      41.429 -16.017  -0.755  1.00  0.00     0.162 HD
ENDROOT
BRANCH   2   5
HETATM    5  C   UNL     1      42.183 -16.038   1.586  1.00  0.00     0.146 A 
HETATM    6  N   UNL     1      41.532 -16.220   2.752  1.00  0.00    -0.169 NA
HETATM    7  N   UNL     1      41.943 -17.430   3.167  1.00  0.00    -0.277 N 
HETATM    8  H   UNL     1      41.595 -17.770   4.057  1.00  0.00     0.189 HD
HETATM    9  C   UNL     1      42.819 -18.058   2.320  1.00  0.00     0.063 A 
HETATM   10  C   UNL     1      42.998 -17.159   1.286  1.00  0.00     0.071 A 
BRANCH   9  11
HETATM   11  C   UNL     1      43.401 -19.376   2.568  1.00  0.00    -0.008 A 
HETATM   12  C   UNL     1      43.217 -20.436   1.666  1.00  0.00     0.017 A 
HETATM   13  C   UNL     1      43.782 -21.690   1.916  1.00  0.00     0.043 A 
HETATM   14  C   UNL     1      44.534 -21.887   3.067  1.00  0.00     0.116 A 
HETATM   15  F   UNL     1      45.075 -23.089   3.305  1.00  0.00    -0.206 F 
HETATM   16  C   UNL     1      44.735 -20.853   3.971  1.00  0.00     0.043 A 
HETATM   17  C   UNL     1      44.172 -19.600   3.720  1.00  0.00     0.017 A 
ENDBRANCH   9  11
ENDBRANCH   2   5
BRANCH   1  18
HETATM   18  C   UNL     1      41.325 -14.003  -1.465  1.00  0.00     0.165 C 
BRANCH  18  19
HETATM   19  C   UNL     1      40.832 -14.538  -2.848  1.00  0.00     0.099 C 
HETATM   20  C   UNL     1      40.885 -16.074  -2.860  1.00  0.00     0.053 C 
BRANCH  19  21
HETATM   21  O   UNL     1      41.795 -14.032  -3.792  1.00  0.00    -0.384 OA
HETATM   22  H   UNL     1      41.352 -13.344  -4.319  1.00  0.00     0.211 HD
ENDBRANCH  19  21
BRANCH  19  23
HETATM   23  C   UNL     1      39.419 -14.062  -3.238  1.00  0.00    -0.001 A 
HETATM   24  C   UNL     1      39.061 -12.699  -3.345  1.00  0.00     0.043 A 
HETATM   25 CL   UNL     1      40.166 -11.400  -3.033  1.00  0.00    -0.084 Cl
HETATM   26  C   UNL     1      37.767 -12.310  -3.728  1.00  0.00     0.024 A 
HETATM   27  C   UNL     1      36.801 -13.264  -4.025  1.00  0.00     0.002 A 
HETATM   28  C   UNL     1      37.125 -14.610  -3.943  1.00  0.00     0.001 A 
HETATM   29  C   UNL     1      38.414 -15.002  -3.560  1.00  0.00     0.012 A 
ENDBRANCH  19  23
ENDBRANCH  18  19
ENDBRANCH   1  18
TORSDOF 6
ENDMDL
MODEL 6
REMARK VINA RESULT:      -8.4      4.210      9.742
REMARK  6 active torsions:
REMARK  status: ('A' for Active; 'I' for Inactive)
REMARK    1  A    between atoms: C_2  and  O_3 
REMARK    2  A    between atoms: C_2  and  C_4 
REMARK    3  A    between atoms: C_2  and  C_11 
REMARK    4  A    between atoms: C_11  and  N_12 
REMARK       I    between atoms: N_12  and  C_13 
REMARK    5  A    between atoms: C_13  and  C_14 
REMARK    6  A    between atoms: C_18  and  C_19 
ROOT
HETATM    1  N   UNL     1      43.750 -11.805   8.597  1.00  0.00    -0.352 N 
HETATM    2  C   UNL     1      44.597 -12.812   8.195  1.00  0.00     0.272 C 
HETATM    3  O   UNL     1      45.712 -12.992   8.677  1.00  0.00    -0.266 OA
HETATM    4  H   UNL     1      42.808 -11.831   8.213  1.00  0.00     0.162 HD
ENDROOT
BRANCH   2   5
HETATM    5  C   UNL     1      44.037 -13.672   7.142  1.00  0.00     0.146 A 
HETATM    6  N   UNL     1      42.993 -13.296   6.378  1.00  0.00    -0.169 NA
HETATM    7  N   UNL     1      42.790 -14.348   5.567  1.00  0.00    -0.277 N 
HETATM    8  H   UNL     1      42.020 -14.299   4.909  1.00  0.00     0.189 HD
HETATM    9  C   UNL     1      43.662 -15.390   5.752  1.00  0.00     0.063 A 
HETATM   10  C   UNL     1      44.478 -14.972   6.787  1.00  0.00     0.071 A 
BRANCH   9  11
HETATM   11  C   UNL     1      43.628 -16.637   4.990  1.00  0.00    -0.008 A 
HETATM   12  C   UNL     1      43.313 -16.647   3.621  1.00  0.00     0.017 A 
HETATM   13  C   UNL     1      43.287 -17.848   2.906  1.00  0.00     0.043 A 
HETATM   14  C   UNL     1      43.576 -19.040   3.555  1.00  0.00     0.116 A 
HETATM   15  F   UNL     1      43.551 -20.190   2.868  1.00  0.00    -0.206 F 
HETATM   16  C   UNL     1      43.895 -19.056   4.906  1.00  0.00     0.043 A 
HETATM   17  C   UNL     1      43.923 -17.856   5.620  1.00  0.00     0.017 A 
ENDBRANCH   9  11
ENDBRANCH   2   5
BRANCH   1  18
HETATM   18  C   UNL     1      44.029 -10.922   9.715  1.00  0.00     0.165 C 
BRANCH  18  19
HETATM   19  C   UNL     1      43.138 -11.200  10.968  1.00  0.00     0.099 C 
HETATM   20  C   UNL     1      43.762 -12.327  11.809  1.00  0.00     0.053 C 
BRANCH  19  21
HETATM   21  O   UNL     1      41.888 -11.664  10.424  1.00  0.00    -0.384 OA
HETATM   22  H   UNL     1      41.445 -12.184  11.118  1.00  0.00     0.211 HD
ENDBRANCH  19  21
BRANCH  19  23
HETATM   23  C   UNL     1      42.896  -9.962  11.854  1.00  0.00    -0.001 A 
HETATM   24  C   UNL     1      42.146  -8.840  11.431  1.00  0.00     0.043 A 
HETATM   25 CL   UNL     1      41.425  -8.719   9.859  1.00  0.00    -0.084 Cl
HETATM   26  C   UNL     1      41.929  -7.744  12.281  1.00  0.00     0.024 A 
HETATM   27  C   UNL     1      42.440  -7.738  13.573  1.00  0.00     0.002 A 
HETATM   28  C   UNL     1      43.169  -8.830  14.022  1.00  0.00     0.001 A 
HETATM   29  C   UNL     1      43.388  -9.924  13.178  1.00  0.00     0.012 A 
ENDBRANCH  19  23
ENDBRANCH  18  19
ENDBRANCH   1  18
TORSDOF 6
ENDMDL
MODEL 7
REMARK VINA RESULT:      -8.4      1.760      2.200
REMARK  6 active torsions:
REMARK  status: ('A' for Active; 'I' for Inactive)
REMARK    1  A    between atoms: C_2  and  O_3 
REMARK    2  A    between atoms: C_2  and  C_4 
REMARK    3  A    between atoms: C_2  and  C_11 
REMARK    4  A    between atoms: C_11  and  N_12 
REMARK       I    between atoms: N_12  and  C_13 
REMARK    5  A    between atoms: C_13  and  C_14 
REMARK    6  A    between atoms: C_18  and  C_19 
ROOT
HETATM    1  N   UNL     1      43.748 -14.369   7.064  1.00  0.00    -0.352 N 
HETATM    2  C   UNL     1      44.843 -13.556   7.238  1.00  0.00     0.272 C 
HETATM    3  O   UNL     1      45.771 -13.488   6.435  1.00  0.00    -0.266 OA
HETATM    4  H   UNL     1      42.989 -14.249   7.731  1.00  0.00     0.162 HD
ENDROOT
BRANCH   2   5
HETATM    5  C   UNL     1      44.798 -12.755   8.470  1.00  0.00     0.146 A 
HETATM    6  N   UNL     1      45.783 -12.784   9.390  1.00  0.00    -0.169 NA
HETATM    7  N   UNL     1      45.358 -11.940  10.346  1.00  0.00    -0.277 N 
HETATM    8  H   UNL     1      45.940 -11.822  11.168  1.00  0.00     0.189 HD
HETATM    9  C   UNL     1      44.149 -11.347  10.089  1.00  0.00     0.063 A 
HETATM   10  C   UNL     1      43.760 -11.876   8.872  1.00  0.00     0.071 A 
BRANCH   9  11
HETATM   11  C   UNL     1      43.490 -10.400  10.987  1.00  0.00    -0.008 A 
HETATM   12  C   UNL     1      43.861 -10.296  12.337  1.00  0.00     0.017 A 
HETATM   13  C   UNL     1      43.222  -9.384  13.183  1.00  0.00     0.043 A 
HETATM   14  C   UNL     1      42.213  -8.573  12.681  1.00  0.00     0.116 A 
HETATM   15  F   UNL     1      41.602  -7.700  13.492  1.00  0.00    -0.206 F 
HETATM   16  C   UNL     1      41.832  -8.654  11.348  1.00  0.00     0.043 A 
HETATM   17  C   UNL     1      42.471  -9.563  10.503  1.00  0.00     0.017 A 
ENDBRANCH   9  11
ENDBRANCH   2   5
BRANCH   1  18
HETATM   18  C   UNL     1      43.507 -15.142   5.859  1.00  0.00     0.165 C 
BRANCH  18  19
HETATM   19  C   UNL     1      43.235 -16.657   6.133  1.00  0.00     0.099 C 
HETATM   20  C   UNL     1      41.873 -16.822   6.828  1.00  0.00     0.053 C 
BRANCH  19  21
HETATM   21  O   UNL     1      44.275 -17.048   7.048  1.00  0.00    -0.384 OA
HETATM   22  H   UNL     1      43.893 -17.036   7.944  1.00  0.00     0.211 HD
ENDBRANCH  19  21
BRANCH  19  23
HETATM   23  C   UNL     1      43.288 -17.542   4.872  1.00  0.00    -0.001 A 
HETATM   24  C   UNL     1      42.445 -17.350   3.754  1.00  0.00     0.043 A 
HETATM   25 CL   UNL     1      41.240 -16.106   3.676  1.00  0.00    -0.084 Cl
HETATM   26  C   UNL     1      42.545 -18.164   2.615  1.00  0.00     0.024 A 
HETATM   27  C   UNL     1      43.490 -19.182   2.553  1.00  0.00     0.002 A 
HETATM   28  C   UNL     1      44.341 -19.386   3.629  1.00  0.00     0.001 A 
HETATM   29  C   UNL     1      44.244 -18.577   4.767  1.00  0.00     0.012 A 
ENDBRANCH  19  23
ENDBRANCH  18  19
ENDBRANCH   1  18
TORSDOF 6
ENDMDL
MODEL 8
REMARK VINA RESULT:      -8.4      8.155     10.718
REMARK  6 active torsions:
REMARK  status: ('A' for Active; 'I' for Inactive)
REMARK    1  A    between atoms: C_2  and  O_3 
REMARK    2  A    between atoms: C_2  and  C_4 
REMARK    3  A    between atoms: C_2  and  C_11 
REMARK    4  A    between atoms: C_11  and  N_12 
REMARK       I    between atoms: N_12  and  C_13 
REMARK    5  A    between atoms: C_13  and  C_14 
REMARK    6  A    between atoms: C_18  and  C_19 
ROOT
HETATM    1  N   UNL     1      42.085 -14.580   1.649  1.00  0.00    -0.352 N 
HETATM    2  C   UNL     1      42.983 -14.508   2.688  1.00  0.00     0.272 C 
HETATM    3  O   UNL     1      43.492 -13.458   3.072  1.00  0.00    -0.266 OA
HETATM    4  H   UNL     1      41.639 -15.482   1.502  1.00  0.00     0.162 HD
ENDROOT
BRANCH   2   5
HETATM    5  C   UNL     1      43.267 -15.806   3.317  1.00  0.00     0.146 A 
HETATM    6  N   UNL     1      43.318 -15.968   4.654  1.00  0.00    -0.169 NA
HETATM    7  N   UNL     1      43.610 -17.270   4.812  1.00  0.00    -0.277 N 
HETATM    8  H   UNL     1      43.727 -17.619   5.757  1.00  0.00     0.189 HD
HETATM    9  C   UNL     1      43.737 -17.973   3.642  1.00  0.00     0.063 A 
HETATM   10  C   UNL     1      43.528 -17.031   2.652  1.00  0.00     0.071 A 
BRANCH   9  11
HETATM   11  C   UNL     1      44.056 -19.398   3.569  1.00  0.00    -0.008 A 
HETATM   12  C   UNL     1      44.540 -20.096   4.688  1.00  0.00     0.017 A 
HETATM   13  C   UNL     1      44.838 -21.459   4.602  1.00  0.00     0.043 A 
HETATM   14  C   UNL     1      44.654 -22.128   3.399  1.00  0.00     0.116 A 
HETATM   15  F   UNL     1      44.941 -23.434   3.319  1.00  0.00    -0.206 F 
HETATM   16  C   UNL     1      44.173 -21.462   2.281  1.00  0.00     0.043 A 
HETATM   17  C   UNL     1      43.873 -20.100   2.367  1.00  0.00     0.017 A 
ENDBRANCH   9  11
ENDBRANCH   2   5
BRANCH   1  18
HETATM   18  C   UNL     1      41.548 -13.413   0.971  1.00  0.00     0.165 C 
BRANCH  18  19
HETATM   19  C   UNL     1      41.297 -13.638  -0.556  1.00  0.00     0.099 C 
HETATM   20  C   UNL     1      39.790 -13.797  -0.816  1.00  0.00     0.053 C 
BRANCH  19  21
HETATM   21  O   UNL     1      41.954 -14.885  -0.847  1.00  0.00    -0.384 OA
HETATM   22  H   UNL     1      41.389 -15.599  -0.501  1.00  0.00     0.211 HD
ENDBRANCH  19  21
BRANCH  19  23
HETATM   23  C   UNL     1      41.867 -12.524  -1.456  1.00  0.00    -0.001 A 
HETATM   24  C   UNL     1      41.742 -12.523  -2.863  1.00  0.00     0.043 A 
HETATM   25 CL   UNL     1      40.946 -13.786  -3.746  1.00  0.00    -0.084 Cl
HETATM   26  C   UNL     1      42.254 -11.474  -3.643  1.00  0.00     0.024 A 
HETATM   27  C   UNL     1      42.895 -10.395  -3.044  1.00  0.00     0.002 A 
HETATM   28  C   UNL     1      43.021 -10.360  -1.663  1.00  0.00     0.001 A 
HETATM   29  C   UNL     1      42.512 -11.404  -0.883  1.00  0.00     0.012 A 
ENDBRANCH  19  23
ENDBRANCH  18  19
ENDBRANCH   1  18
TORSDOF 6
ENDMDL
MODEL 9
REMARK VINA RESULT:      -8.3      6.346      9.703
REMARK  6 active torsions:
REMARK  status: ('A' for Active; 'I' for Inactive)
REMARK    1  A    between atoms: C_2  and  O_3 
REMARK    2  A    between atoms: C_2  and  C_4 
REMARK    3  A    between atoms: C_2  and  C_11 
REMARK    4  A    between atoms: C_11  and  N_12 
REMARK       I    between atoms: N_12  and  C_13 
REMARK    5  A    between atoms: C_13  and  C_14 
REMARK    6  A    between atoms: C_18  and  C_19 
ROOT
HETATM    1  N   UNL     1      41.308 -14.488   3.335  1.00  0.00    -0.352 N 
HETATM    2  C   UNL     1      42.498 -14.583   2.654  1.00  0.00     0.272 C 
HETATM    3  O   UNL     1      43.212 -13.616   2.399  1.00  0.00    -0.266 OA
HETATM    4  H   UNL     1      40.867 -15.367   3.594  1.00  0.00     0.162 HD
ENDROOT
BRANCH   2   5
HETATM    5  C   UNL     1      42.854 -15.957   2.270  1.00  0.00     0.146 A 
HETATM    6  N   UNL     1      42.879 -16.367   0.987  1.00  0.00    -0.169 NA
HETATM    7  N   UNL     1      43.231 -17.661   1.067  1.00  0.00    -0.277 N 
HETATM    8  H   UNL     1      43.288 -18.193   0.205  1.00  0.00     0.189 HD
HETATM    9  C   UNL     1      43.454 -18.115   2.342  1.00  0.00     0.063 A 
HETATM   10  C   UNL     1      43.200 -17.018   3.144  1.00  0.00     0.071 A 
BRANCH   9  11
HETATM   11  C   UNL     1      43.840 -19.486   2.671  1.00  0.00    -0.008 A 
HETATM   12  C   UNL     1      43.641 -20.539   1.764  1.00  0.00     0.017 A 
HETATM   13  C   UNL     1      44.018 -21.844   2.093  1.00  0.00     0.043 A 
HETATM   14  C   UNL     1      44.596 -22.100   3.329  1.00  0.00     0.116 A 
HETATM   15  F   UNL     1      44.957 -23.352   3.643  1.00  0.00    -0.206 F 
HETATM   16  C   UNL     1      44.808 -21.076   4.242  1.00  0.00     0.043 A 
HETATM   17  C   UNL     1      44.433 -19.772   3.912  1.00  0.00     0.017 A 
ENDBRANCH   9  11
ENDBRANCH   2   5
BRANCH   1  18
HETATM   18  C   UNL     1      40.823 -13.257   3.934  1.00  0.00     0.165 C 
BRANCH  18  19
HETATM   19  C   UNL     1      41.146 -13.134   5.458  1.00  0.00     0.099 C 
HETATM   20  C   UNL     1      39.852 -13.274   6.277  1.00  0.00     0.053 C 
BRANCH  19  21
HETATM   21  O   UNL     1      41.650 -11.794   5.611  1.00  0.00    -0.384 OA
HETATM   22  H   UNL     1      42.377 -11.682   4.973  1.00  0.00     0.211 HD
ENDBRANCH  19  21
BRANCH  19  23
HETATM   23  C   UNL     1      42.193 -14.147   5.961  1.00  0.00    -0.001 A 
HETATM   24  C   UNL     1      41.893 -15.499   6.241  1.00  0.00     0.043 A 
HETATM   25 CL   UNL     1      40.305 -16.173   6.070  1.00  0.00    -0.084 Cl
HETATM   26  C   UNL     1      42.884 -16.394   6.672  1.00  0.00     0.024 A 
HETATM   27  C   UNL     1      44.200 -15.973   6.826  1.00  0.00     0.002 A 
HETATM   28  C   UNL     1      44.530 -14.655   6.545  1.00  0.00     0.001 A 
HETATM   29  C   UNL     1      43.544 -13.759   6.115  1.00  0.00     0.012 A 
ENDBRANCH  19  23
ENDBRANCH  18  19
ENDBRANCH   1  18
TORSDOF 6
ENDMDL
MODEL 10
REMARK VINA RESULT:      -8.2      7.558     10.328
REMARK  6 active torsions:
REMARK  status: ('A' for Active; 'I' for Inactive)
REMARK    1  A    between atoms: C_2  and  O_3 
REMARK    2  A    between atoms: C_2  and  C_4 
REMARK    3  A    between atoms: C_2  and  C_11 
REMARK    4  A    between atoms: C_11  and  N_12 
REMARK       I    between atoms: N_12  and  C_13 
REMARK    5  A    between atoms: C_13  and  C_14 
REMARK    6  A    between atoms: C_18  and  C_19 
ROOT
HETATM    1  N   UNL     1      42.667 -15.464   3.601  1.00  0.00    -0.352 N 
HETATM    2  C   UNL     1      43.112 -14.303   3.016  1.00  0.00     0.272 C 
HETATM    3  O   UNL     1      44.023 -13.619   3.475  1.00  0.00    -0.266 OA
HETATM    4  H   UNL     1      41.993 -16.007   3.065  1.00  0.00     0.162 HD
ENDROOT
BRANCH   2   5
HETATM    5  C   UNL     1      42.410 -13.958   1.771  1.00  0.00     0.146 A 
HETATM    6  N   UNL     1      42.349 -12.697   1.299  1.00  0.00    -0.169 NA
HETATM    7  N   UNL     1      41.622 -12.807   0.174  1.00  0.00    -0.277 N 
HETATM    8  H   UNL     1      41.421 -11.960  -0.346  1.00  0.00     0.189 HD
HETATM    9  C   UNL     1      41.217 -14.083  -0.122  1.00  0.00     0.063 A 
HETATM   10  C   UNL     1      41.711 -14.848   0.917  1.00  0.00     0.071 A 
BRANCH   9  11
HETATM   11  C   UNL     1      40.413 -14.440  -1.290  1.00  0.00    -0.008 A 
HETATM   12  C   UNL     1      40.904 -15.313  -2.274  1.00  0.00     0.017 A 
HETATM   13  C   UNL     1      40.122 -15.647  -3.384  1.00  0.00     0.043 A 
HETATM   14  C   UNL     1      38.848 -15.111  -3.512  1.00  0.00     0.116 A 
HETATM   15  F   UNL     1      38.100 -15.433  -4.576  1.00  0.00    -0.206 F 
HETATM   16  C   UNL     1      38.338 -14.250  -2.550  1.00  0.00     0.043 A 
HETATM   17  C   UNL     1      39.118 -13.918  -1.440  1.00  0.00     0.017 A 
ENDBRANCH   9  11
ENDBRANCH   2   5
BRANCH   1  18
HETATM   18  C   UNL     1      43.301 -16.075   4.755  1.00  0.00     0.165 C 
BRANCH  18  19
HETATM   19  C   UNL     1      42.735 -17.490   5.104  1.00  0.00     0.099 C 
HETATM   20  C   UNL     1      41.223 -17.528   4.823  1.00  0.00     0.053 C 
BRANCH  19  21
HETATM   21  O   UNL     1      42.948 -17.623   6.521  1.00  0.00    -0.384 OA
HETATM   22  H   UNL     1      42.142 -17.306   6.967  1.00  0.00     0.211 HD
ENDBRANCH  19  21
BRANCH  19  23
HETATM   23  C   UNL     1      43.432 -18.645   4.359  1.00  0.00    -0.001 A 
HETATM   24  C   UNL     1      43.163 -18.975   3.011  1.00  0.00     0.043 A 
HETATM   25 CL   UNL     1      42.003 -18.127   2.041  1.00  0.00    -0.084 Cl
HETATM   26  C   UNL     1      43.841 -20.020   2.365  1.00  0.00     0.024 A 
HETATM   27  C   UNL     1      44.810 -20.757   3.036  1.00  0.00     0.002 A 
HETATM   28  C   UNL     1      45.107 -20.449   4.355  1.00  0.00     0.001 A 
HETATM   29  C   UNL     1      44.432 -19.408   5.004  1.00  0.00     0.012 A 
ENDBRANCH  19  23
ENDBRANCH  18  19
ENDBRANCH   1  18
TORSDOF 6
ENDMDL
