MODEL 1
REMARK VINA RESULT:      -8.0      0.000      0.000
REMARK  7 active torsions:
REMARK  status: ('A' for Active; 'I' for Inactive)
REMARK    1  A    between atoms: O_2  and  C_3 
REMARK    2  A    between atoms: C_5  and  C_6 
REMARK    3  A    between atoms: C_6  and  O_7 
REMARK    4  A    between atoms: C_6  and  C_8 
REMARK    5  A    between atoms: C_8  and  N_9 
REMARK       I    between atoms: N_9  and  C_10 
REMARK    6  A    between atoms: C_10  and  C_11 
REMARK    7  A    between atoms: C_12  and  C_13 
ROOT
HETATM    1  C   UNL     1      44.269 -19.195   3.856  1.00  0.00     0.089 C 
HETATM    2  C   UNL     1      42.927 -19.171   3.061  1.00  0.00     0.068 C 
HETATM    3  C   UNL     1      42.981 -19.982   1.746  1.00  0.00     0.013 C 
HETATM    4  C   UNL     1      43.564 -21.373   1.916  1.00  0.00     0.001 C 
HETATM    5  C   UNL     1      44.955 -21.279   2.514  1.00  0.00     0.001 C 
HETATM    6  C   UNL     1      44.900 -20.604   3.876  1.00  0.00     0.015 C 
ENDROOT
BRANCH   1   7
HETATM    7  C   UNL     1      44.055 -18.629   5.285  1.00  0.00     0.222 C 
HETATM    8  N   UNL     1      44.602 -17.406   5.588  1.00  0.00    -0.358 N 
HETATM    9  H   UNL     1      45.024 -16.847   4.861  1.00  0.00     0.162 HD
HETATM   10  O   UNL     1      43.400 -19.234   6.132  1.00  0.00    -0.273 OA
BRANCH   8  11
HETATM   11  C   UNL     1      44.330 -16.711   6.841  1.00  0.00     0.159 C 
BRANCH  11  12
HETATM   12  C   UNL     1      44.022 -15.197   6.769  1.00  0.00     0.169 C 
BRANCH  12  13
HETATM   13  C   UNL     1      42.642 -14.868   6.235  1.00  0.00    -0.025 A 
HETATM   14  C   UNL     1      42.319 -13.562   5.822  1.00  0.00     0.046 A 
HETATM   15  C   UNL     1      41.056 -13.269   5.308  1.00  0.00     0.068 A 
HETATM   16  C   UNL     1      40.101 -14.284   5.219  1.00  0.00     0.037 A 
HETATM   17  C   UNL     1      40.404 -15.583   5.628  1.00  0.00     0.003 A 
HETATM   18  C   UNL     1      41.671 -15.873   6.130  1.00  0.00     0.010 A 
BRANCH  15  19
HETATM   19  O   UNL     1      40.634 -12.046   4.864  1.00  0.00    -0.356 OA
HETATM   20  C   UNL     1      39.276 -11.949   4.449  1.00  0.00     0.210 C 
ENDBRANCH  15  19
ENDBRANCH  12  13
BRANCH  12  21
HETATM   21  O   UNL     1      44.142 -14.646   8.088  1.00  0.00    -0.389 OA
HETATM   22  H   UNL     1      45.057 -14.819   8.375  1.00  0.00     0.210 HD
ENDBRANCH  12  21
ENDBRANCH  11  12
ENDBRANCH   8  11
ENDBRANCH   1   7
BRANCH   2  23
HETATM   23  C   UNL     1      42.465 -17.769   2.720  1.00  0.00     0.110 A 
HETATM   24  N   UNL     1      43.188 -16.665   2.718  1.00  0.00    -0.233 NA
HETATM   25  C   UNL     1      42.340 -15.661   2.310  1.00  0.00     0.087 A 
HETATM   26  C   UNL     1      41.071 -16.159   2.052  1.00  0.00     0.062 A 
HETATM   27  C   UNL     1      42.587 -14.291   2.145  1.00  0.00     0.057 A 
HETATM   28  N   UNL     1      41.178 -17.497   2.320  1.00  0.00    -0.342 N 
HETATM   29  C   UNL     1      39.996 -15.369   1.638  1.00  0.00     0.034 A 
HETATM   30  H   UNL     1      40.414 -18.158   2.361  1.00  0.00     0.167 HD
HETATM   31  C   UNL     1      40.257 -14.005   1.477  1.00  0.00     0.026 A 
HETATM   32  C   UNL     1      41.528 -13.479   1.727  1.00  0.00     0.036 A 
HETATM   33 CL   UNL     1      41.794 -11.789   1.519  1.00  0.00    -0.084 Cl
ENDBRANCH   2  23
TORSDOF 7
ENDMDL
MODEL 2
REMARK VINA RESULT:      -8.0      1.778      2.573
REMARK  7 active torsions:
REMARK  status: ('A' for Active; 'I' for Inactive)
REMARK    1  A    between atoms: O_2  and  C_3 
REMARK    2  A    between atoms: C_5  and  C_6 
REMARK    3  A    between atoms: C_6  and  O_7 
REMARK    4  A    between atoms: C_6  and  C_8 
REMARK    5  A    between atoms: C_8  and  N_9 
REMARK       I    between atoms: N_9  and  C_10 
REMARK    6  A    between atoms: C_10  and  C_11 
REMARK    7  A    between atoms: C_12  and  C_13 
ROOT
HETATM    1  C   UNL     1      43.644 -18.226   3.743  1.00  0.00     0.089 C 
HETATM    2  C   UNL     1      42.467 -18.709   2.841  1.00  0.00     0.068 C 
HETATM    3  C   UNL     1      42.907 -19.705   1.744  1.00  0.00     0.013 C 
HETATM    4  C   UNL     1      43.780 -20.833   2.264  1.00  0.00     0.001 C 
HETATM    5  C   UNL     1      45.004 -20.261   2.954  1.00  0.00     0.001 C 
HETATM    6  C   UNL     1      44.589 -19.385   4.125  1.00  0.00     0.015 C 
ENDROOT
BRANCH   1   7
HETATM    7  C   UNL     1      43.094 -17.483   4.990  1.00  0.00     0.222 C 
HETATM    8  N   UNL     1      43.146 -16.111   5.005  1.00  0.00    -0.358 N 
HETATM    9  H   UNL     1      43.425 -15.607   4.176  1.00  0.00     0.162 HD
HETATM   10  O   UNL     1      42.601 -18.088   5.941  1.00  0.00    -0.273 OA
BRANCH   8  11
HETATM   11  C   UNL     1      42.516 -15.311   6.048  1.00  0.00     0.159 C 
BRANCH  11  12
HETATM   12  C   UNL     1      41.065 -14.832   5.807  1.00  0.00     0.169 C 
BRANCH  12  13
HETATM   13  C   UNL     1      40.931 -13.772   4.732  1.00  0.00    -0.025 A 
HETATM   14  C   UNL     1      41.879 -13.668   3.698  1.00  0.00     0.046 A 
HETATM   15  C   UNL     1      41.739 -12.706   2.696  1.00  0.00     0.068 A 
HETATM   16  C   UNL     1      40.651 -11.831   2.735  1.00  0.00     0.037 A 
HETATM   17  C   UNL     1      39.705 -11.919   3.757  1.00  0.00     0.003 A 
HETATM   18  C   UNL     1      39.843 -12.888   4.748  1.00  0.00     0.010 A 
BRANCH  15  19
HETATM   19  O   UNL     1      42.584 -12.520   1.638  1.00  0.00    -0.356 OA
HETATM   20  C   UNL     1      42.162 -11.605   0.634  1.00  0.00     0.210 C 
ENDBRANCH  15  19
ENDBRANCH  12  13
BRANCH  12  21
HETATM   21  O   UNL     1      40.270 -15.965   5.430  1.00  0.00    -0.389 OA
HETATM   22  H   UNL     1      40.839 -16.528   4.875  1.00  0.00     0.210 HD
ENDBRANCH  12  21
ENDBRANCH  11  12
ENDBRANCH   8  11
ENDBRANCH   1   7
BRANCH   2  23
HETATM   23  C   UNL     1      41.732 -17.570   2.164  1.00  0.00     0.110 A 
HETATM   24  N   UNL     1      42.068 -16.951   1.049  1.00  0.00    -0.233 NA
HETATM   25  C   UNL     1      41.079 -16.021   0.822  1.00  0.00     0.087 A 
HETATM   26  C   UNL     1      40.113 -16.074   1.817  1.00  0.00     0.062 A 
HETATM   27  C   UNL     1      40.946 -15.088  -0.215  1.00  0.00     0.057 A 
HETATM   28  N   UNL     1      40.552 -17.064   2.654  1.00  0.00    -0.342 N 
HETATM   29  C   UNL     1      38.997 -15.235   1.861  1.00  0.00     0.034 A 
HETATM   30  H   UNL     1      40.161 -17.294   3.558  1.00  0.00     0.167 HD
HETATM   31  C   UNL     1      38.877 -14.310   0.820  1.00  0.00     0.026 A 
HETATM   32  C   UNL     1      39.834 -14.240  -0.196  1.00  0.00     0.036 A 
HETATM   33 CL   UNL     1      39.643 -13.076  -1.453  1.00  0.00    -0.084 Cl
ENDBRANCH   2  23
TORSDOF 7
ENDMDL
MODEL 3
REMARK VINA RESULT:      -7.6      3.058      7.115
REMARK  7 active torsions:
REMARK  status: ('A' for Active; 'I' for Inactive)
REMARK    1  A    between atoms: O_2  and  C_3 
REMARK    2  A    between atoms: C_5  and  C_6 
REMARK    3  A    between atoms: C_6  and  O_7 
REMARK    4  A    between atoms: C_6  and  C_8 
REMARK    5  A    between atoms: C_8  and  N_9 
REMARK       I    between atoms: N_9  and  C_10 
REMARK    6  A    between atoms: C_10  and  C_11 
REMARK    7  A    between atoms: C_12  and  C_13 
ROOT
HETATM    1  C   UNL     1      42.153 -13.180  -0.723  1.00  0.00     0.089 C 
HETATM    2  C   UNL     1      41.617 -12.155   0.324  1.00  0.00     0.068 C 
HETATM    3  C   UNL     1      42.102 -10.710   0.069  1.00  0.00     0.013 C 
HETATM    4  C   UNL     1      41.930 -10.258  -1.371  1.00  0.00     0.001 C 
HETATM    5  C   UNL     1      42.658 -11.212  -2.300  1.00  0.00     0.001 C 
HETATM    6  C   UNL     1      42.096 -12.618  -2.160  1.00  0.00     0.015 C 
ENDROOT
BRANCH   1   7
HETATM    7  C   UNL     1      41.396 -14.527  -0.590  1.00  0.00     0.222 C 
HETATM    8  N   UNL     1      42.039 -15.577   0.018  1.00  0.00    -0.358 N 
HETATM    9  H   UNL     1      42.930 -15.431   0.470  1.00  0.00     0.162 HD
HETATM   10  O   UNL     1      40.243 -14.667  -0.996  1.00  0.00    -0.273 OA
BRANCH   8  11
HETATM   11  C   UNL     1      41.368 -16.832   0.338  1.00  0.00     0.159 C 
BRANCH  11  12
HETATM   12  C   UNL     1      40.969 -17.077   1.812  1.00  0.00     0.169 C 
BRANCH  12  13
HETATM   13  C   UNL     1      42.017 -17.810   2.626  1.00  0.00    -0.025 A 
HETATM   14  C   UNL     1      42.772 -18.853   2.061  1.00  0.00     0.046 A 
HETATM   15  C   UNL     1      43.753 -19.509   2.807  1.00  0.00     0.068 A 
HETATM   16  C   UNL     1      43.972 -19.129   4.133  1.00  0.00     0.037 A 
HETATM   17  C   UNL     1      43.228 -18.098   4.709  1.00  0.00     0.003 A 
HETATM   18  C   UNL     1      42.258 -17.440   3.957  1.00  0.00     0.010 A 
BRANCH  15  19
HETATM   19  O   UNL     1      44.556 -20.523   2.363  1.00  0.00    -0.356 OA
HETATM   20  C   UNL     1      43.905 -21.659   1.806  1.00  0.00     0.210 C 
ENDBRANCH  15  19
ENDBRANCH  12  13
BRANCH  12  21
HETATM   21  O   UNL     1      40.718 -15.808   2.431  1.00  0.00    -0.389 OA
HETATM   22  H   UNL     1      39.796 -15.576   2.217  1.00  0.00     0.210 HD
ENDBRANCH  12  21
ENDBRANCH  11  12
ENDBRANCH   8  11
ENDBRANCH   1   7
BRANCH   2  23
HETATM   23  C   UNL     1      41.978 -12.519   1.749  1.00  0.00     0.110 A 
HETATM   24  N   UNL     1      42.863 -13.412   2.148  1.00  0.00    -0.233 NA
HETATM   25  C   UNL     1      42.859 -13.357   3.523  1.00  0.00     0.087 A 
HETATM   26  C   UNL     1      41.956 -12.406   3.978  1.00  0.00     0.062 A 
HETATM   27  C   UNL     1      43.600 -14.100   4.452  1.00  0.00     0.057 A 
HETATM   28  N   UNL     1      41.412 -11.891   2.833  1.00  0.00    -0.342 N 
HETATM   29  C   UNL     1      41.724 -12.141   5.329  1.00  0.00     0.034 A 
HETATM   30  H   UNL     1      40.623 -11.260   2.782  1.00  0.00     0.167 HD
HETATM   31  C   UNL     1      42.470 -12.888   6.244  1.00  0.00     0.026 A 
HETATM   32  C   UNL     1      43.389 -13.849   5.812  1.00  0.00     0.036 A 
HETATM   33 CL   UNL     1      44.279 -14.748   6.982  1.00  0.00    -0.084 Cl
ENDBRANCH   2  23
TORSDOF 7
ENDMDL
MODEL 4
REMARK VINA RESULT:      -7.6      3.220      5.843
REMARK  7 active torsions:
REMARK  status: ('A' for Active; 'I' for Inactive)
REMARK    1  A    between atoms: O_2  and  C_3 
REMARK    2  A    between atoms: C_5  and  C_6 
REMARK    3  A    between atoms: C_6  and  O_7 
REMARK    4  A    between atoms: C_6  and  C_8 
REMARK    5  A    between atoms: C_8  and  N_9 
REMARK       I    between atoms: N_9  and  C_10 
REMARK    6  A    between atoms: C_10  and  C_11 
REMARK    7  A    between atoms: C_12  and  C_13 
ROOT
HETATM    1  C   UNL     1      40.953 -15.754   3.045  1.00  0.00     0.089 C 
HETATM    2  C   UNL     1      42.217 -16.102   2.200  1.00  0.00     0.068 C 
HETATM    3  C   UNL     1      41.950 -16.116   0.678  1.00  0.00     0.013 C 
HETATM    4  C   UNL     1      41.204 -14.890   0.183  1.00  0.00     0.001 C 
HETATM    5  C   UNL     1      39.891 -14.750   0.930  1.00  0.00     0.001 C 
HETATM    6  C   UNL     1      40.145 -14.597   2.421  1.00  0.00     0.015 C 
ENDROOT
BRANCH   1   7
HETATM    7  C   UNL     1      41.355 -15.462   4.515  1.00  0.00     0.222 C 
HETATM    8  N   UNL     1      42.411 -14.614   4.745  1.00  0.00    -0.358 N 
HETATM    9  H   UNL     1      42.828 -14.108   3.978  1.00  0.00     0.162 HD
HETATM   10  O   UNL     1      40.744 -15.951   5.465  1.00  0.00    -0.273 OA
BRANCH   8  11
HETATM   11  C   UNL     1      42.769 -14.147   6.079  1.00  0.00     0.159 C 
BRANCH  11  12
HETATM   12  C   UNL     1      44.086 -14.675   6.694  1.00  0.00     0.169 C 
BRANCH  12  13
HETATM   13  C   UNL     1      44.916 -13.615   7.390  1.00  0.00    -0.025 A 
HETATM   14  C   UNL     1      44.425 -12.942   8.524  1.00  0.00     0.046 A 
HETATM   15  C   UNL     1      45.202 -11.984   9.176  1.00  0.00     0.068 A 
HETATM   16  C   UNL     1      46.475 -11.685   8.685  1.00  0.00     0.037 A 
HETATM   17  C   UNL     1      46.974 -12.341   7.560  1.00  0.00     0.003 A 
HETATM   18  C   UNL     1      46.199 -13.304   6.918  1.00  0.00     0.010 A 
BRANCH  15  19
HETATM   19  O   UNL     1      44.839 -11.278  10.290  1.00  0.00    -0.356 OA
HETATM   20  C   UNL     1      43.973 -11.932  11.209  1.00  0.00     0.210 C 
ENDBRANCH  15  19
ENDBRANCH  12  13
BRANCH  12  21
HETATM   21  O   UNL     1      43.764 -15.698   7.647  1.00  0.00    -0.389 OA
HETATM   22  H   UNL     1      44.303 -15.517   8.438  1.00  0.00     0.210 HD
ENDBRANCH  12  21
ENDBRANCH  11  12
ENDBRANCH   8  11
ENDBRANCH   1   7
BRANCH   2  23
HETATM   23  C   UNL     1      42.832 -17.436   2.574  1.00  0.00     0.110 A 
HETATM   24  N   UNL     1      43.365 -17.776   3.732  1.00  0.00    -0.233 NA
HETATM   25  C   UNL     1      43.751 -19.089   3.596  1.00  0.00     0.087 A 
HETATM   26  C   UNL     1      43.445 -19.567   2.330  1.00  0.00     0.062 A 
HETATM   27  C   UNL     1      44.381 -19.938   4.517  1.00  0.00     0.057 A 
HETATM   28  N   UNL     1      42.864 -18.499   1.703  1.00  0.00    -0.342 N 
HETATM   29  C   UNL     1      43.737 -20.863   1.898  1.00  0.00     0.034 A 
HETATM   30  H   UNL     1      42.627 -18.442   0.722  1.00  0.00     0.167 HD
HETATM   31  C   UNL     1      44.364 -21.699   2.826  1.00  0.00     0.026 A 
HETATM   32  C   UNL     1      44.679 -21.243   4.110  1.00  0.00     0.036 A 
HETATM   33 CL   UNL     1      45.458 -22.312   5.215  1.00  0.00    -0.084 Cl
ENDBRANCH   2  23
TORSDOF 7
ENDMDL
MODEL 5
REMARK VINA RESULT:      -7.5      2.846      7.373
REMARK  7 active torsions:
REMARK  status: ('A' for Active; 'I' for Inactive)
REMARK    1  A    between atoms: O_2  and  C_3 
REMARK    2  A    between atoms: C_5  and  C_6 
REMARK    3  A    between atoms: C_6  and  O_7 
REMARK    4  A    between atoms: C_6  and  C_8 
REMARK    5  A    between atoms: C_8  and  N_9 
REMARK       I    between atoms: N_9  and  C_10 
REMARK    6  A    between atoms: C_10  and  C_11 
REMARK    7  A    between atoms: C_12  and  C_13 
ROOT
HETATM    1  C   UNL     1      40.343 -12.078   4.015  1.00  0.00     0.089 C 
HETATM    2  C   UNL     1      40.031 -12.942   5.276  1.00  0.00     0.068 C 
HETATM    3  C   UNL     1      40.172 -12.161   6.602  1.00  0.00     0.013 C 
HETATM    4  C   UNL     1      39.463 -10.818   6.593  1.00  0.00     0.001 C 
HETATM    5  C   UNL     1      39.981  -9.971   5.446  1.00  0.00     0.001 C 
HETATM    6  C   UNL     1      39.725 -10.667   4.118  1.00  0.00     0.015 C 
ENDROOT
BRANCH   1   7
HETATM    7  C   UNL     1      39.893 -12.822   2.730  1.00  0.00     0.222 C 
HETATM    8  N   UNL     1      40.792 -13.658   2.115  1.00  0.00    -0.358 N 
HETATM    9  H   UNL     1      41.673 -13.868   2.561  1.00  0.00     0.162 HD
HETATM   10  O   UNL     1      38.759 -12.695   2.269  1.00  0.00    -0.273 OA
BRANCH   8  11
HETATM   11  C   UNL     1      40.425 -14.525   1.001  1.00  0.00     0.159 C 
BRANCH  11  12
HETATM   12  C   UNL     1      40.279 -16.038   1.287  1.00  0.00     0.169 C 
BRANCH  12  13
HETATM   13  C   UNL     1      41.586 -16.742   1.593  1.00  0.00    -0.025 A 
HETATM   14  C   UNL     1      41.664 -18.146   1.610  1.00  0.00     0.046 A 
HETATM   15  C   UNL     1      42.874 -18.790   1.868  1.00  0.00     0.068 A 
HETATM   16  C   UNL     1      44.014 -18.026   2.127  1.00  0.00     0.037 A 
HETATM   17  C   UNL     1      43.952 -16.633   2.118  1.00  0.00     0.003 A 
HETATM   18  C   UNL     1      42.744 -15.994   1.849  1.00  0.00     0.010 A 
BRANCH  15  19
HETATM   19  O   UNL     1      43.074 -20.143   1.896  1.00  0.00    -0.356 OA
HETATM   20  C   UNL     1      44.221 -20.607   2.598  1.00  0.00     0.210 C 
ENDBRANCH  15  19
ENDBRANCH  12  13
BRANCH  12  21
HETATM   21  O   UNL     1      39.399 -16.205   2.408  1.00  0.00    -0.389 OA
HETATM   22  H   UNL     1      39.929 -16.619   3.113  1.00  0.00     0.210 HD
ENDBRANCH  12  21
ENDBRANCH  11  12
ENDBRANCH   8  11
ENDBRANCH   1   7
BRANCH   2  23
HETATM   23  C   UNL     1      40.897 -14.181   5.375  1.00  0.00     0.110 A 
HETATM   24  N   UNL     1      42.177 -14.240   5.688  1.00  0.00    -0.233 NA
HETATM   25  C   UNL     1      42.504 -15.577   5.680  1.00  0.00     0.087 A 
HETATM   26  C   UNL     1      41.400 -16.355   5.361  1.00  0.00     0.062 A 
HETATM   27  C   UNL     1      43.734 -16.200   5.931  1.00  0.00     0.057 A 
HETATM   28  N   UNL     1      40.396 -15.445   5.171  1.00  0.00    -0.342 N 
HETATM   29  C   UNL     1      41.435 -17.747   5.260  1.00  0.00     0.034 A 
HETATM   30  H   UNL     1      39.476 -15.643   4.803  1.00  0.00     0.167 HD
HETATM   31  C   UNL     1      42.668 -18.356   5.513  1.00  0.00     0.026 A 
HETATM   32  C   UNL     1      43.794 -17.595   5.841  1.00  0.00     0.036 A 
HETATM   33 CL   UNL     1      45.292 -18.394   6.138  1.00  0.00    -0.084 Cl
ENDBRANCH   2  23
TORSDOF 7
ENDMDL
MODEL 6
REMARK VINA RESULT:      -7.3      2.859      7.492
REMARK  7 active torsions:
REMARK  status: ('A' for Active; 'I' for Inactive)
REMARK    1  A    between atoms: O_2  and  C_3 
REMARK    2  A    between atoms: C_5  and  C_6 
REMARK    3  A    between atoms: C_6  and  O_7 
REMARK    4  A    between atoms: C_6  and  C_8 
REMARK    5  A    between atoms: C_8  and  N_9 
REMARK       I    between atoms: N_9  and  C_10 
REMARK    6  A    between atoms: C_10  and  C_11 
REMARK    7  A    between atoms: C_12  and  C_13 
ROOT
HETATM    1  C   UNL     1      40.444 -12.797   2.936  1.00  0.00     0.089 C 
HETATM    2  C   UNL     1      39.870 -13.288   4.301  1.00  0.00     0.068 C 
HETATM    3  C   UNL     1      39.465 -12.134   5.245  1.00  0.00     0.013 C 
HETATM    4  C   UNL     1      38.615 -11.070   4.573  1.00  0.00     0.001 C 
HETATM    5  C   UNL     1      39.348 -10.511   3.368  1.00  0.00     0.001 C 
HETATM    6  C   UNL     1      39.632 -11.616   2.363  1.00  0.00     0.015 C 
ENDROOT
BRANCH   1   7
HETATM    7  C   UNL     1      40.541 -13.981   1.938  1.00  0.00     0.222 C 
HETATM    8  N   UNL     1      41.708 -14.703   1.897  1.00  0.00    -0.358 N 
HETATM    9  H   UNL     1      42.429 -14.537   2.583  1.00  0.00     0.162 HD
HETATM   10  O   UNL     1      39.601 -14.293   1.207  1.00  0.00    -0.273 OA
BRANCH   8  11
HETATM   11  C   UNL     1      41.849 -15.927   1.116  1.00  0.00     0.159 C 
BRANCH  11  12
HETATM   12  C   UNL     1      41.311 -17.238   1.735  1.00  0.00     0.169 C 
BRANCH  12  13
HETATM   13  C   UNL     1      42.383 -18.134   2.322  1.00  0.00    -0.025 A 
HETATM   14  C   UNL     1      42.611 -19.423   1.806  1.00  0.00     0.046 A 
HETATM   15  C   UNL     1      43.615 -20.235   2.334  1.00  0.00     0.068 A 
HETATM   16  C   UNL     1      44.390 -19.763   3.396  1.00  0.00     0.037 A 
HETATM   17  C   UNL     1      44.174 -18.489   3.921  1.00  0.00     0.003 A 
HETATM   18  C   UNL     1      43.177 -17.677   3.384  1.00  0.00     0.010 A 
BRANCH  15  19
HETATM   19  O   UNL     1      43.937 -21.494   1.907  1.00  0.00    -0.356 OA
HETATM   20  C   UNL     1      44.552 -22.355   2.858  1.00  0.00     0.210 C 
ENDBRANCH  15  19
ENDBRANCH  12  13
BRANCH  12  21
HETATM   21  O   UNL     1      40.380 -16.902   2.774  1.00  0.00    -0.389 OA
HETATM   22  H   UNL     1      40.601 -15.997   3.058  1.00  0.00     0.210 HD
ENDBRANCH  12  21
ENDBRANCH  11  12
ENDBRANCH   8  11
ENDBRANCH   1   7
BRANCH   2  23
HETATM   23  C   UNL     1      40.824 -14.190   5.056  1.00  0.00     0.110 A 
HETATM   24  N   UNL     1      40.579 -15.395   5.535  1.00  0.00    -0.233 NA
HETATM   25  C   UNL     1      41.757 -15.821   6.103  1.00  0.00     0.087 A 
HETATM   26  C   UNL     1      42.749 -14.859   5.966  1.00  0.00     0.062 A 
HETATM   27  C   UNL     1      42.051 -17.021   6.764  1.00  0.00     0.057 A 
HETATM   28  N   UNL     1      42.130 -13.837   5.300  1.00  0.00    -0.342 N 
HETATM   29  C   UNL     1      44.046 -15.007   6.463  1.00  0.00     0.034 A 
HETATM   30  H   UNL     1      42.514 -12.916   5.137  1.00  0.00     0.167 HD
HETATM   31  C   UNL     1      44.325 -16.209   7.118  1.00  0.00     0.026 A 
HETATM   32  C   UNL     1      43.345 -17.195   7.265  1.00  0.00     0.036 A 
HETATM   33 CL   UNL     1      43.740 -18.657   8.089  1.00  0.00    -0.084 Cl
ENDBRANCH   2  23
TORSDOF 7
ENDMDL
MODEL 7
REMARK VINA RESULT:      -7.3      2.592      5.736
REMARK  7 active torsions:
REMARK  status: ('A' for Active; 'I' for Inactive)
REMARK    1  A    between atoms: O_2  and  C_3 
REMARK    2  A    between atoms: C_5  and  C_6 
REMARK    3  A    between atoms: C_6  and  O_7 
REMARK    4  A    between atoms: C_6  and  C_8 
REMARK    5  A    between atoms: C_8  and  N_9 
REMARK       I    between atoms: N_9  and  C_10 
REMARK    6  A    between atoms: C_10  and  C_11 
REMARK    7  A    between atoms: C_12  and  C_13 
ROOT
HETATM    1  C   UNL     1      40.774 -14.062   1.012  1.00  0.00     0.089 C 
HETATM    2  C   UNL     1      41.788 -14.936   0.211  1.00  0.00     0.068 C 
HETATM    3  C   UNL     1      41.171 -15.589  -1.047  1.00  0.00     0.013 C 
HETATM    4  C   UNL     1      40.386 -14.618  -1.911  1.00  0.00     0.001 C 
HETATM    5  C   UNL     1      39.292 -13.965  -1.088  1.00  0.00     0.001 C 
HETATM    6  C   UNL     1      39.895 -13.200   0.080  1.00  0.00     0.015 C 
ENDROOT
BRANCH   1   7
HETATM    7  C   UNL     1      41.522 -13.206   2.068  1.00  0.00     0.222 C 
HETATM    8  N   UNL     1      41.139 -13.315   3.383  1.00  0.00    -0.358 N 
HETATM    9  H   UNL     1      40.473 -14.023   3.658  1.00  0.00     0.162 HD
HETATM   10  O   UNL     1      42.449 -12.458   1.760  1.00  0.00    -0.273 OA
BRANCH   8  11
HETATM   11  C   UNL     1      41.874 -12.683   4.472  1.00  0.00     0.159 C 
BRANCH  11  12
HETATM   12  C   UNL     1      43.098 -13.436   5.043  1.00  0.00     0.169 C 
BRANCH  12  13
HETATM   13  C   UNL     1      42.755 -14.723   5.766  1.00  0.00    -0.025 A 
HETATM   14  C   UNL     1      43.660 -15.308   6.670  1.00  0.00     0.046 A 
HETATM   15  C   UNL     1      43.331 -16.480   7.351  1.00  0.00     0.068 A 
HETATM   16  C   UNL     1      42.092 -17.082   7.117  1.00  0.00     0.037 A 
HETATM   17  C   UNL     1      41.185 -16.517   6.221  1.00  0.00     0.003 A 
HETATM   18  C   UNL     1      41.515 -15.341   5.551  1.00  0.00     0.010 A 
BRANCH  15  19
HETATM   19  O   UNL     1      44.119 -17.130   8.260  1.00  0.00    -0.356 OA
HETATM   20  C   UNL     1      43.956 -18.539   8.359  1.00  0.00     0.210 C 
ENDBRANCH  15  19
ENDBRANCH  12  13
BRANCH  12  21
HETATM   21  O   UNL     1      43.987 -13.746   3.960  1.00  0.00    -0.389 OA
HETATM   22  H   UNL     1      43.554 -13.424   3.149  1.00  0.00     0.210 HD
ENDBRANCH  12  21
ENDBRANCH  11  12
ENDBRANCH   8  11
ENDBRANCH   1   7
BRANCH   2  23
HETATM   23  C   UNL     1      42.411 -16.036   1.045  1.00  0.00     0.110 A 
HETATM   24  N   UNL     1      42.823 -15.957   2.296  1.00  0.00    -0.233 NA
HETATM   25  C   UNL     1      43.277 -17.214   2.622  1.00  0.00     0.087 A 
HETATM   26  C   UNL     1      43.137 -18.085   1.550  1.00  0.00     0.062 A 
HETATM   27  C   UNL     1      43.834 -17.683   3.820  1.00  0.00     0.057 A 
HETATM   28  N   UNL     1      42.587 -17.312   0.564  1.00  0.00    -0.342 N 
HETATM   29  C   UNL     1      43.531 -19.424   1.582  1.00  0.00     0.034 A 
HETATM   30  H   UNL     1      42.460 -17.582  -0.402  1.00  0.00     0.167 HD
HETATM   31  C   UNL     1      44.082 -19.879   2.783  1.00  0.00     0.026 A 
HETATM   32  C   UNL     1      44.231 -19.023   3.878  1.00  0.00     0.036 A 
HETATM   33 CL   UNL     1      44.924 -19.633   5.334  1.00  0.00    -0.084 Cl
ENDBRANCH   2  23
TORSDOF 7
ENDMDL
MODEL 8
REMARK VINA RESULT:      -6.9      2.552      6.831
REMARK  7 active torsions:
REMARK  status: ('A' for Active; 'I' for Inactive)
REMARK    1  A    between atoms: O_2  and  C_3 
REMARK    2  A    between atoms: C_5  and  C_6 
REMARK    3  A    between atoms: C_6  and  O_7 
REMARK    4  A    between atoms: C_6  and  C_8 
REMARK    5  A    between atoms: C_8  and  N_9 
REMARK       I    between atoms: N_9  and  C_10 
REMARK    6  A    between atoms: C_10  and  C_11 
REMARK    7  A    between atoms: C_12  and  C_13 
ROOT
HETATM    1  C   UNL     1      40.324 -13.490   4.887  1.00  0.00     0.089 C 
HETATM    2  C   UNL     1      40.927 -12.514   3.831  1.00  0.00     0.068 C 
HETATM    3  C   UNL     1      40.337 -11.088   3.909  1.00  0.00     0.013 C 
HETATM    4  C   UNL     1      40.308 -10.520   5.317  1.00  0.00     0.001 C 
HETATM    5  C   UNL     1      39.526 -11.446   6.229  1.00  0.00     0.001 C 
HETATM    6  C   UNL     1      40.176 -12.820   6.270  1.00  0.00     0.015 C 
ENDROOT
BRANCH   1   7
HETATM    7  C   UNL     1      41.163 -14.793   4.955  1.00  0.00     0.222 C 
HETATM    8  N   UNL     1      40.617 -15.946   4.444  1.00  0.00    -0.358 N 
HETATM    9  H   UNL     1      39.747 -15.909   3.935  1.00  0.00     0.162 HD
HETATM   10  O   UNL     1      42.298 -14.812   5.430  1.00  0.00    -0.273 OA
BRANCH   8  11
HETATM   11  C   UNL     1      41.376 -17.184   4.311  1.00  0.00     0.159 C 
BRANCH  11  12
HETATM   12  C   UNL     1      42.290 -17.335   3.073  1.00  0.00     0.169 C 
BRANCH  12  13
HETATM   13  C   UNL     1      43.042 -18.650   3.013  1.00  0.00    -0.025 A 
HETATM   14  C   UNL     1      43.779 -19.112   4.118  1.00  0.00     0.046 A 
HETATM   15  C   UNL     1      44.451 -20.334   4.067  1.00  0.00     0.068 A 
HETATM   16  C   UNL     1      44.398 -21.095   2.897  1.00  0.00     0.037 A 
HETATM   17  C   UNL     1      43.675 -20.648   1.791  1.00  0.00     0.003 A 
HETATM   18  C   UNL     1      42.998 -19.433   1.851  1.00  0.00     0.010 A 
BRANCH  15  19
HETATM   19  O   UNL     1      45.183 -20.891   5.078  1.00  0.00    -0.356 OA
HETATM   20  C   UNL     1      45.147 -22.308   5.191  1.00  0.00     0.210 C 
ENDBRANCH  15  19
ENDBRANCH  12  13
BRANCH  12  21
HETATM   21  O   UNL     1      41.480 -17.221   1.894  1.00  0.00    -0.389 OA
HETATM   22  H   UNL     1      41.886 -16.523   1.349  1.00  0.00     0.210 HD
ENDBRANCH  12  21
ENDBRANCH  11  12
ENDBRANCH   8  11
ENDBRANCH   1   7
BRANCH   2  23
HETATM   23  C   UNL     1      40.763 -13.005   2.407  1.00  0.00     0.110 A 
HETATM   24  N   UNL     1      41.435 -13.970   1.810  1.00  0.00    -0.233 NA
HETATM   25  C   UNL     1      40.906 -14.070   0.544  1.00  0.00     0.087 A 
HETATM   26  C   UNL     1      39.883 -13.150   0.361  1.00  0.00     0.062 A 
HETATM   27  C   UNL     1      41.258 -14.923  -0.511  1.00  0.00     0.057 A 
HETATM   28  N   UNL     1      39.814 -12.488   1.557  1.00  0.00    -0.342 N 
HETATM   29  C   UNL     1      39.172 -13.007  -0.832  1.00  0.00     0.034 A 
HETATM   30  H   UNL     1      39.264 -11.662   1.748  1.00  0.00     0.167 HD
HETATM   31  C   UNL     1      39.533 -13.865  -1.875  1.00  0.00     0.026 A 
HETATM   32  C   UNL     1      40.556 -14.803  -1.715  1.00  0.00     0.036 A 
HETATM   33 CL   UNL     1      40.967 -15.833  -3.034  1.00  0.00    -0.084 Cl
ENDBRANCH   2  23
TORSDOF 7
ENDMDL
MODEL 9
REMARK VINA RESULT:      -6.9      3.139      6.225
REMARK  7 active torsions:
REMARK  status: ('A' for Active; 'I' for Inactive)
REMARK    1  A    between atoms: O_2  and  C_3 
REMARK    2  A    between atoms: C_5  and  C_6 
REMARK    3  A    between atoms: C_6  and  O_7 
REMARK    4  A    between atoms: C_6  and  C_8 
REMARK    5  A    between atoms: C_8  and  N_9 
REMARK       I    between atoms: N_9  and  C_10 
REMARK    6  A    between atoms: C_10  and  C_11 
REMARK    7  A    between atoms: C_12  and  C_13 
ROOT
HETATM    1  C   UNL     1      39.354 -13.888  -0.867  1.00  0.00     0.089 C 
HETATM    2  C   UNL     1      40.589 -14.734  -1.306  1.00  0.00     0.068 C 
HETATM    3  C   UNL     1      40.280 -15.713  -2.462  1.00  0.00     0.013 C 
HETATM    4  C   UNL     1      39.539 -15.068  -3.620  1.00  0.00     0.001 C 
HETATM    5  C   UNL     1      38.249 -14.444  -3.122  1.00  0.00     0.001 C 
HETATM    6  C   UNL     1      38.546 -13.378  -2.080  1.00  0.00     0.015 C 
ENDROOT
BRANCH   1   7
HETATM    7  C   UNL     1      39.800 -12.733   0.068  1.00  0.00     0.222 C 
HETATM    8  N   UNL     1      39.745 -12.937   1.425  1.00  0.00    -0.358 N 
HETATM    9  H   UNL     1      39.535 -13.854   1.789  1.00  0.00     0.162 HD
HETATM   10  O   UNL     1      40.214 -11.662  -0.375  1.00  0.00    -0.273 OA
BRANCH   8  11
HETATM   11  C   UNL     1      40.288 -11.984   2.386  1.00  0.00     0.159 C 
BRANCH  11  12
HETATM   12  C   UNL     1      41.776 -12.132   2.780  1.00  0.00     0.169 C 
BRANCH  12  13
HETATM   13  C   UNL     1      42.039 -13.199   3.825  1.00  0.00    -0.025 A 
HETATM   14  C   UNL     1      40.983 -13.767   4.560  1.00  0.00     0.046 A 
HETATM   15  C   UNL     1      41.227 -14.766   5.503  1.00  0.00     0.068 A 
HETATM   16  C   UNL     1      42.539 -15.191   5.726  1.00  0.00     0.037 A 
HETATM   17  C   UNL     1      43.597 -14.634   5.008  1.00  0.00     0.003 A 
HETATM   18  C   UNL     1      43.347 -13.645   4.059  1.00  0.00     0.010 A 
BRANCH  15  19
HETATM   19  O   UNL     1      40.284 -15.400   6.264  1.00  0.00    -0.356 OA
HETATM   20  C   UNL     1      40.566 -16.740   6.649  1.00  0.00     0.210 C 
ENDBRANCH  15  19
ENDBRANCH  12  13
BRANCH  12  21
HETATM   21  O   UNL     1      42.528 -12.455   1.602  1.00  0.00    -0.389 OA
HETATM   22  H   UNL     1      42.280 -11.796   0.929  1.00  0.00     0.210 HD
ENDBRANCH  12  21
ENDBRANCH  11  12
ENDBRANCH   8  11
ENDBRANCH   1   7
BRANCH   2  23
HETATM   23  C   UNL     1      41.193 -15.535  -0.171  1.00  0.00     0.110 A 
HETATM   24  N   UNL     1      40.600 -15.917   0.944  1.00  0.00    -0.233 NA
HETATM   25  C   UNL     1      41.539 -16.644   1.638  1.00  0.00     0.087 A 
HETATM   26  C   UNL     1      42.733 -16.714   0.933  1.00  0.00     0.062 A 
HETATM   27  C   UNL     1      41.443 -17.270   2.889  1.00  0.00     0.057 A 
HETATM   28  N   UNL     1      42.485 -16.002  -0.209  1.00  0.00    -0.342 N 
HETATM   29  C   UNL     1      43.872 -17.372   1.400  1.00  0.00     0.034 A 
HETATM   30  H   UNL     1      43.170 -15.735  -0.903  1.00  0.00     0.167 HD
HETATM   31  C   UNL     1      43.762 -17.993   2.647  1.00  0.00     0.026 A 
HETATM   32  C   UNL     1      42.570 -17.940   3.376  1.00  0.00     0.036 A 
HETATM   33 CL   UNL     1      42.489 -18.716   4.913  1.00  0.00    -0.084 Cl
ENDBRANCH   2  23
TORSDOF 7
ENDMDL
MODEL 10
REMARK VINA RESULT:      -6.8      3.848      5.066
REMARK  7 active torsions:
REMARK  status: ('A' for Active; 'I' for Inactive)
REMARK    1  A    between atoms: O_2  and  C_3 
REMARK    2  A    between atoms: C_5  and  C_6 
REMARK    3  A    between atoms: C_6  and  O_7 
REMARK    4  A    between atoms: C_6  and  C_8 
REMARK    5  A    between atoms: C_8  and  N_9 
REMARK       I    between atoms: N_9  and  C_10 
REMARK    6  A    between atoms: C_10  and  C_11 
REMARK    7  A    between atoms: C_12  and  C_13 
ROOT
HETATM    1  C   UNL     1      43.822 -15.622   6.089  1.00  0.00     0.089 C 
HETATM    2  C   UNL     1      42.330 -16.075   6.154  1.00  0.00     0.068 C 
HETATM    3  C   UNL     1      42.152 -17.607   6.054  1.00  0.00     0.013 C 
HETATM    4  C   UNL     1      43.067 -18.386   6.982  1.00  0.00     0.001 C 
HETATM    5  C   UNL     1      44.513 -18.022   6.703  1.00  0.00     0.001 C 
HETATM    6  C   UNL     1      44.738 -16.535   6.932  1.00  0.00     0.015 C 
ENDROOT
BRANCH   1   7
HETATM    7  C   UNL     1      43.947 -14.130   6.495  1.00  0.00     0.222 C 
HETATM    8  N   UNL     1      44.178 -13.834   7.816  1.00  0.00    -0.358 N 
HETATM    9  H   UNL     1      44.378 -14.574   8.472  1.00  0.00     0.162 HD
HETATM   10  O   UNL     1      43.865 -13.222   5.669  1.00  0.00    -0.273 OA
BRANCH   8  11
HETATM   11  C   UNL     1      44.471 -12.482   8.280  1.00  0.00     0.159 C 
BRANCH  11  12
HETATM   12  C   UNL     1      44.567 -12.253   9.806  1.00  0.00     0.169 C 
BRANCH  12  13
HETATM   13  C   UNL     1      43.735 -11.092  10.314  1.00  0.00    -0.025 A 
HETATM   14  C   UNL     1      42.656 -10.593   9.562  1.00  0.00     0.046 A 
HETATM   15  C   UNL     1      41.878  -9.540  10.044  1.00  0.00     0.068 A 
HETATM   16  C   UNL     1      42.188  -8.970  11.281  1.00  0.00     0.037 A 
HETATM   17  C   UNL     1      43.258  -9.451  12.036  1.00  0.00     0.003 A 
HETATM   18  C   UNL     1      44.025 -10.509  11.555  1.00  0.00     0.010 A 
BRANCH  15  19
HETATM   19  O   UNL     1      40.800  -8.983   9.413  1.00  0.00    -0.356 OA
HETATM   20  C   UNL     1      40.655  -7.572   9.517  1.00  0.00     0.210 C 
ENDBRANCH  15  19
ENDBRANCH  12  13
BRANCH  12  21
HETATM   21  O   UNL     1      44.135 -13.447  10.473  1.00  0.00    -0.389 OA
HETATM   22  H   UNL     1      43.362 -13.774   9.978  1.00  0.00     0.210 HD
ENDBRANCH  12  21
ENDBRANCH  11  12
ENDBRANCH   8  11
ENDBRANCH   1   7
BRANCH   2  23
HETATM   23  C   UNL     1      41.469 -15.438   5.083  1.00  0.00     0.110 A 
HETATM   24  N   UNL     1      41.007 -16.005   3.985  1.00  0.00    -0.233 NA
HETATM   25  C   UNL     1      40.253 -15.043   3.353  1.00  0.00     0.087 A 
HETATM   26  C   UNL     1      40.249 -13.861   4.081  1.00  0.00     0.062 A 
HETATM   27  C   UNL     1      39.548 -15.107   2.144  1.00  0.00     0.057 A 
HETATM   28  N   UNL     1      41.027 -14.140   5.172  1.00  0.00    -0.342 N 
HETATM   29  C   UNL     1      39.582 -12.703   3.677  1.00  0.00     0.034 A 
HETATM   30  H   UNL     1      41.349 -13.471   5.858  1.00  0.00     0.167 HD
HETATM   31  C   UNL     1      38.881 -12.782   2.470  1.00  0.00     0.026 A 
HETATM   32  C   UNL     1      38.867 -13.962   1.720  1.00  0.00     0.036 A 
HETATM   33 CL   UNL     1      37.993 -14.004   0.235  1.00  0.00    -0.084 Cl
ENDBRANCH   2  23
TORSDOF 7
ENDMDL
