MODEL 1
REMARK VINA RESULT:      -8.5      0.000      0.000
REMARK  7 active torsions:
REMARK  status: ('A' for Active; 'I' for Inactive)
REMARK    1  A    between atoms: O_2  and  C_3 
REMARK    2  A    between atoms: C_6  and  C_7 
REMARK    3  A    between atoms: C_7  and  N_8 
REMARK    4  A    between atoms: C_7  and  C_23 
REMARK       I    between atoms: N_8  and  C_9 
REMARK    5  A    between atoms: C_9  and  C_10 
REMARK    6  A    between atoms: C_10  and  S_11 
REMARK    7  A    between atoms: S_11  and  C_12 
ROOT
HETATM    1  N   UNL     1      43.654 -18.590   5.229  1.00  0.00    -0.348 N 
HETATM    2  C   UNL     1      44.582 -18.433   6.237  1.00  0.00     0.228 C 
HETATM    3  O   UNL     1      45.763 -18.168   6.036  1.00  0.00    -0.273 OA
HETATM    4  H   UNL     1      42.742 -18.961   5.459  1.00  0.00     0.163 HD
ENDROOT
BRANCH   1   5
HETATM    5  C   UNL     1      44.029 -18.550   3.826  1.00  0.00     0.151 C 
BRANCH   5   6
HETATM    6  C   UNL     1      43.085 -17.710   2.971  1.00  0.00    -0.031 A 
HETATM    7  C   UNL     1      43.624 -16.714   2.139  1.00  0.00     0.012 A 
HETATM    8  C   UNL     1      42.800 -15.967   1.294  1.00  0.00     0.037 A 
HETATM    9  C   UNL     1      41.426 -16.206   1.246  1.00  0.00     0.068 A 
HETATM   10  C   UNL     1      40.876 -17.179   2.079  1.00  0.00     0.037 A 
HETATM   11  C   UNL     1      41.698 -17.925   2.934  1.00  0.00     0.012 A 
BRANCH   9  12
HETATM   12  O   UNL     1      40.739 -15.424   0.360  1.00  0.00    -0.356 OA
HETATM   13  C   UNL     1      41.521 -14.629  -0.523  1.00  0.00     0.210 C 
ENDBRANCH   9  12
ENDBRANCH   5   6
BRANCH   5  14
HETATM   14  C   UNL     1      44.179 -19.975   3.300  1.00  0.00    -0.031 A 
HETATM   15  C   UNL     1      43.833 -20.271   1.973  1.00  0.00     0.009 A 
HETATM   16  C   UNL     1      43.970 -21.568   1.473  1.00  0.00     0.001 A 
HETATM   17  C   UNL     1      44.461 -22.584   2.290  1.00  0.00     0.000 A 
HETATM   18  C   UNL     1      44.818 -22.305   3.607  1.00  0.00     0.001 A 
HETATM   19  C   UNL     1      44.681 -21.011   4.109  1.00  0.00     0.009 A 
ENDBRANCH   5  14
ENDBRANCH   1   5
BRANCH   2  20
HETATM   20  C   UNL     1      44.020 -18.650   7.629  1.00  0.00     0.185 C 
BRANCH  20  21
HETATM   21  S   UNL     1      43.455 -17.047   8.277  1.00  0.00    -0.081 SA
BRANCH  21  22
HETATM   22  C   UNL     1      42.230 -16.657   7.124  1.00  0.00     0.192 A 
HETATM   23  N   UNL     1      42.327 -15.629   6.222  1.00  0.00    -0.311 N 
HETATM   24  C   UNL     1      41.110 -15.598   5.579  1.00  0.00     0.130 A 
HETATM   25  C   UNL     1      43.454 -14.737   6.046  1.00  0.00     0.133 C 
HETATM   26  C   UNL     1      40.680 -14.605   4.552  1.00  0.00     0.081 C 
HETATM   27  N   UNL     1      40.363 -16.587   6.033  1.00  0.00    -0.134 NA
HETATM   28  C   UNL     1      41.147 -13.188   4.864  1.00  0.00     0.008 C 
HETATM   29  C   UNL     1      42.597 -12.919   4.459  1.00  0.00     0.002 C 
HETATM   30  C   UNL     1      43.570 -14.077   4.675  1.00  0.00     0.020 C 
HETATM   31  N   UNL     1      41.067 -17.248   7.005  1.00  0.00    -0.123 NA
ENDBRANCH  21  22
ENDBRANCH  20  21
ENDBRANCH   2  20
TORSDOF 7
ENDMDL
MODEL 2
REMARK VINA RESULT:      -8.5      2.799      7.029
REMARK  7 active torsions:
REMARK  status: ('A' for Active; 'I' for Inactive)
REMARK    1  A    between atoms: O_2  and  C_3 
REMARK    2  A    between atoms: C_6  and  C_7 
REMARK    3  A    between atoms: C_7  and  N_8 
REMARK    4  A    between atoms: C_7  and  C_23 
REMARK       I    between atoms: N_8  and  C_9 
REMARK    5  A    between atoms: C_9  and  C_10 
REMARK    6  A    between atoms: C_10  and  S_11 
REMARK    7  A    between atoms: S_11  and  C_12 
ROOT
HETATM    1  N   UNL     1      42.964 -13.868   6.026  1.00  0.00    -0.348 N 
HETATM    2  C   UNL     1      42.646 -13.324   4.799  1.00  0.00     0.228 C 
HETATM    3  O   UNL     1      43.421 -13.297   3.848  1.00  0.00    -0.273 OA
HETATM    4  H   UNL     1      42.338 -13.714   6.805  1.00  0.00     0.163 HD
ENDROOT
BRANCH   1   5
HETATM    5  C   UNL     1      44.296 -14.370   6.322  1.00  0.00     0.151 C 
BRANCH   5   6
HETATM    6  C   UNL     1      44.304 -15.821   6.793  1.00  0.00    -0.031 A 
HETATM    7  C   UNL     1      43.386 -16.223   7.777  1.00  0.00     0.012 A 
HETATM    8  C   UNL     1      43.319 -17.556   8.189  1.00  0.00     0.037 A 
HETATM    9  C   UNL     1      44.150 -18.520   7.619  1.00  0.00     0.068 A 
HETATM   10  C   UNL     1      45.079 -18.132   6.653  1.00  0.00     0.037 A 
HETATM   11  C   UNL     1      45.154 -16.794   6.243  1.00  0.00     0.012 A 
BRANCH   9  12
HETATM   12  O   UNL     1      43.966 -19.789   8.092  1.00  0.00    -0.356 OA
HETATM   13  C   UNL     1      43.593 -20.774   7.135  1.00  0.00     0.210 C 
ENDBRANCH   9  12
ENDBRANCH   5   6
BRANCH   5  14
HETATM   14  C   UNL     1      44.982 -13.432   7.312  1.00  0.00    -0.031 A 
HETATM   15  C   UNL     1      46.302 -13.014   7.078  1.00  0.00     0.009 A 
HETATM   16  C   UNL     1      46.943 -12.150   7.969  1.00  0.00     0.001 A 
HETATM   17  C   UNL     1      46.274 -11.688   9.100  1.00  0.00     0.000 A 
HETATM   18  C   UNL     1      44.961 -12.086   9.342  1.00  0.00     0.001 A 
HETATM   19  C   UNL     1      44.319 -12.950   8.454  1.00  0.00     0.009 A 
ENDBRANCH   5  14
ENDBRANCH   1   5
BRANCH   2  20
HETATM   20  C   UNL     1      41.253 -12.727   4.734  1.00  0.00     0.185 C 
BRANCH  20  21
HETATM   21  S   UNL     1      40.046 -14.045   5.070  1.00  0.00    -0.081 SA
BRANCH  21  22
HETATM   22  C   UNL     1      40.216 -14.999   3.640  1.00  0.00     0.192 A 
HETATM   23  N   UNL     1      40.956 -16.150   3.570  1.00  0.00    -0.311 N 
HETATM   24  C   UNL     1      40.917 -16.525   2.246  1.00  0.00     0.130 A 
HETATM   25  C   UNL     1      41.674 -16.784   4.658  1.00  0.00     0.133 C 
HETATM   26  C   UNL     1      41.634 -17.682   1.636  1.00  0.00     0.081 C 
HETATM   27  N   UNL     1      40.149 -15.679   1.587  1.00  0.00    -0.134 NA
HETATM   28  C   UNL     1      43.039 -17.872   2.194  1.00  0.00     0.008 C 
HETATM   29  C   UNL     1      43.071 -18.611   3.532  1.00  0.00     0.002 C 
HETATM   30  C   UNL     1      41.935 -18.278   4.499  1.00  0.00     0.020 C 
HETATM   31  N   UNL     1      39.713 -14.719   2.463  1.00  0.00    -0.123 NA
ENDBRANCH  21  22
ENDBRANCH  20  21
ENDBRANCH   2  20
TORSDOF 7
ENDMDL
MODEL 3
REMARK VINA RESULT:      -8.2      2.781      4.912
REMARK  7 active torsions:
REMARK  status: ('A' for Active; 'I' for Inactive)
REMARK    1  A    between atoms: O_2  and  C_3 
REMARK    2  A    between atoms: C_6  and  C_7 
REMARK    3  A    between atoms: C_7  and  N_8 
REMARK    4  A    between atoms: C_7  and  C_23 
REMARK       I    between atoms: N_8  and  C_9 
REMARK    5  A    between atoms: C_9  and  C_10 
REMARK    6  A    between atoms: C_10  and  S_11 
REMARK    7  A    between atoms: S_11  and  C_12 
ROOT
HETATM    1  N   UNL     1      42.320 -17.120   2.167  1.00  0.00    -0.348 N 
HETATM    2  C   UNL     1      41.143 -16.916   1.479  1.00  0.00     0.228 C 
HETATM    3  O   UNL     1      40.054 -17.333   1.860  1.00  0.00    -0.273 OA
HETATM    4  H   UNL     1      43.195 -16.887   1.718  1.00  0.00     0.163 HD
ENDROOT
BRANCH   1   5
HETATM    5  C   UNL     1      42.378 -17.943   3.364  1.00  0.00     0.151 C 
BRANCH   5   6
HETATM    6  C   UNL     1      42.867 -17.187   4.595  1.00  0.00    -0.031 A 
HETATM    7  C   UNL     1      43.456 -15.923   4.428  1.00  0.00     0.012 A 
HETATM    8  C   UNL     1      43.860 -15.171   5.534  1.00  0.00     0.037 A 
HETATM    9  C   UNL     1      43.668 -15.653   6.829  1.00  0.00     0.068 A 
HETATM   10  C   UNL     1      43.101 -16.913   7.010  1.00  0.00     0.037 A 
HETATM   11  C   UNL     1      42.703 -17.674   5.902  1.00  0.00     0.012 A 
BRANCH   9  12
HETATM   12  O   UNL     1      44.082 -14.809   7.822  1.00  0.00    -0.356 OA
HETATM   13  C   UNL     1      44.921 -13.730   7.427  1.00  0.00     0.210 C 
ENDBRANCH   9  12
ENDBRANCH   5   6
BRANCH   5  14
HETATM   14  C   UNL     1      43.207 -19.193   3.080  1.00  0.00    -0.031 A 
HETATM   15  C   UNL     1      42.911 -19.989   1.962  1.00  0.00     0.009 A 
HETATM   16  C   UNL     1      43.663 -21.133   1.683  1.00  0.00     0.001 A 
HETATM   17  C   UNL     1      44.723 -21.492   2.512  1.00  0.00     0.000 A 
HETATM   18  C   UNL     1      45.036 -20.708   3.619  1.00  0.00     0.001 A 
HETATM   19  C   UNL     1      44.285 -19.566   3.902  1.00  0.00     0.009 A 
ENDBRANCH   5  14
ENDBRANCH   1   5
BRANCH   2  20
HETATM   20  C   UNL     1      41.315 -16.149   0.181  1.00  0.00     0.185 C 
BRANCH  20  21
HETATM   21  S   UNL     1      40.322 -14.628   0.275  1.00  0.00    -0.081 SA
BRANCH  21  22
HETATM   22  C   UNL     1      41.232 -13.732   1.438  1.00  0.00     0.192 A 
HETATM   23  N   UNL     1      40.919 -13.665   2.771  1.00  0.00    -0.311 N 
HETATM   24  C   UNL     1      41.818 -12.772   3.309  1.00  0.00     0.130 A 
HETATM   25  C   UNL     1      39.827 -14.346   3.437  1.00  0.00     0.133 C 
HETATM   26  C   UNL     1      41.849 -12.296   4.722  1.00  0.00     0.081 C 
HETATM   27  N   UNL     1      42.650 -12.383   2.361  1.00  0.00    -0.134 NA
HETATM   28  C   UNL     1      40.459 -12.055   5.298  1.00  0.00     0.008 C 
HETATM   29  C   UNL     1      39.770 -13.329   5.786  1.00  0.00     0.002 C 
HETATM   30  C   UNL     1      40.005 -14.576   4.935  1.00  0.00     0.020 C 
HETATM   31  N   UNL     1      42.278 -12.983   1.187  1.00  0.00    -0.123 NA
ENDBRANCH  21  22
ENDBRANCH  20  21
ENDBRANCH   2  20
TORSDOF 7
ENDMDL
MODEL 4
REMARK VINA RESULT:      -8.1      2.466      4.812
REMARK  7 active torsions:
REMARK  status: ('A' for Active; 'I' for Inactive)
REMARK    1  A    between atoms: O_2  and  C_3 
REMARK    2  A    between atoms: C_6  and  C_7 
REMARK    3  A    between atoms: C_7  and  N_8 
REMARK    4  A    between atoms: C_7  and  C_23 
REMARK       I    between atoms: N_8  and  C_9 
REMARK    5  A    between atoms: C_9  and  C_10 
REMARK    6  A    between atoms: C_10  and  S_11 
REMARK    7  A    between atoms: S_11  and  C_12 
ROOT
HETATM    1  N   UNL     1      41.205 -14.383   1.940  1.00  0.00    -0.348 N 
HETATM    2  C   UNL     1      41.861 -13.454   2.720  1.00  0.00     0.228 C 
HETATM    3  O   UNL     1      42.979 -13.020   2.461  1.00  0.00    -0.273 OA
HETATM    4  H   UNL     1      40.361 -14.810   2.297  1.00  0.00     0.163 HD
ENDROOT
BRANCH   1   5
HETATM    5  C   UNL     1      41.837 -15.003   0.788  1.00  0.00     0.151 C 
BRANCH   5   6
HETATM    6  C   UNL     1      40.971 -14.971  -0.468  1.00  0.00    -0.031 A 
HETATM    7  C   UNL     1      39.828 -14.155  -0.485  1.00  0.00     0.012 A 
HETATM    8  C   UNL     1      39.044 -14.048  -1.636  1.00  0.00     0.037 A 
HETATM    9  C   UNL     1      39.390 -14.738  -2.799  1.00  0.00     0.068 A 
HETATM   10  C   UNL     1      40.513 -15.565  -2.790  1.00  0.00     0.037 A 
HETATM   11  C   UNL     1      41.297 -15.680  -1.635  1.00  0.00     0.012 A 
BRANCH   9  12
HETATM   12  O   UNL     1      38.556 -14.527  -3.861  1.00  0.00    -0.356 OA
HETATM   13  C   UNL     1      37.237 -15.049  -3.744  1.00  0.00     0.210 C 
ENDBRANCH   9  12
ENDBRANCH   5   6
BRANCH   5  14
HETATM   14  C   UNL     1      42.283 -16.417   1.153  1.00  0.00    -0.031 A 
HETATM   15  C   UNL     1      43.640 -16.682   1.395  1.00  0.00     0.009 A 
HETATM   16  C   UNL     1      44.064 -17.968   1.737  1.00  0.00     0.001 A 
HETATM   17  C   UNL     1      43.139 -19.003   1.849  1.00  0.00     0.000 A 
HETATM   18  C   UNL     1      41.787 -18.755   1.622  1.00  0.00     0.001 A 
HETATM   19  C   UNL     1      41.361 -17.472   1.278  1.00  0.00     0.009 A 
ENDBRANCH   5  14
ENDBRANCH   1   5
BRANCH   2  20
HETATM   20  C   UNL     1      41.089 -13.033   3.955  1.00  0.00     0.185 C 
BRANCH  20  21
HETATM   21  S   UNL     1      42.015 -13.571   5.425  1.00  0.00    -0.081 SA
BRANCH  21  22
HETATM   22  C   UNL     1      41.840 -15.285   5.295  1.00  0.00     0.192 A 
HETATM   23  N   UNL     1      42.774 -16.186   5.734  1.00  0.00    -0.311 N 
HETATM   24  C   UNL     1      42.299 -17.418   5.343  1.00  0.00     0.130 A 
HETATM   25  C   UNL     1      44.022 -15.881   6.405  1.00  0.00     0.133 C 
HETATM   26  C   UNL     1      42.992 -18.727   5.520  1.00  0.00     0.081 C 
HETATM   27  N   UNL     1      41.125 -17.257   4.763  1.00  0.00    -0.134 NA
HETATM   28  C   UNL     1      44.494 -18.641   5.276  1.00  0.00     0.008 C 
HETATM   29  C   UNL     1      45.279 -18.111   6.476  1.00  0.00     0.002 C 
HETATM   30  C   UNL     1      44.599 -16.996   7.271  1.00  0.00     0.020 C 
HETATM   31  N   UNL     1      40.840 -15.917   4.730  1.00  0.00    -0.123 NA
ENDBRANCH  21  22
ENDBRANCH  20  21
ENDBRANCH   2  20
TORSDOF 7
ENDMDL
MODEL 5
REMARK VINA RESULT:      -7.9      1.910      6.225
REMARK  7 active torsions:
REMARK  status: ('A' for Active; 'I' for Inactive)
REMARK    1  A    between atoms: O_2  and  C_3 
REMARK    2  A    between atoms: C_6  and  C_7 
REMARK    3  A    between atoms: C_7  and  N_8 
REMARK    4  A    between atoms: C_7  and  C_23 
REMARK       I    between atoms: N_8  and  C_9 
REMARK    5  A    between atoms: C_9  and  C_10 
REMARK    6  A    between atoms: C_10  and  S_11 
REMARK    7  A    between atoms: S_11  and  C_12 
ROOT
HETATM    1  N   UNL     1      41.674 -15.251   5.902  1.00  0.00    -0.348 N 
HETATM    2  C   UNL     1      41.393 -16.470   6.481  1.00  0.00     0.228 C 
HETATM    3  O   UNL     1      40.343 -17.079   6.304  1.00  0.00    -0.273 OA
HETATM    4  H   UNL     1      42.486 -14.737   6.215  1.00  0.00     0.163 HD
ENDROOT
BRANCH   1   5
HETATM    5  C   UNL     1      40.693 -14.535   5.103  1.00  0.00     0.151 C 
BRANCH   5   6
HETATM    6  C   UNL     1      40.949 -14.632   3.602  1.00  0.00    -0.031 A 
HETATM    7  C   UNL     1      40.225 -15.569   2.847  1.00  0.00     0.012 A 
HETATM    8  C   UNL     1      40.383 -15.645   1.461  1.00  0.00     0.037 A 
HETATM    9  C   UNL     1      41.252 -14.780   0.796  1.00  0.00     0.068 A 
HETATM   10  C   UNL     1      41.990 -13.856   1.535  1.00  0.00     0.037 A 
HETATM   11  C   UNL     1      41.839 -13.783   2.926  1.00  0.00     0.012 A 
BRANCH   9  12
HETATM   12  O   UNL     1      41.295 -14.941  -0.561  1.00  0.00    -0.356 OA
HETATM   13  C   UNL     1      41.624 -13.789  -1.327  1.00  0.00     0.210 C 
ENDBRANCH   9  12
ENDBRANCH   5   6
BRANCH   5  14
HETATM   14  C   UNL     1      40.602 -13.091   5.587  1.00  0.00    -0.031 A 
HETATM   15  C   UNL     1      41.682 -12.514   6.273  1.00  0.00     0.009 A 
HETATM   16  C   UNL     1      41.618 -11.191   6.718  1.00  0.00     0.001 A 
HETATM   17  C   UNL     1      40.479 -10.426   6.477  1.00  0.00     0.000 A 
HETATM   18  C   UNL     1      39.402 -10.981   5.790  1.00  0.00     0.001 A 
HETATM   19  C   UNL     1      39.462 -12.302   5.346  1.00  0.00     0.009 A 
ENDBRANCH   5  14
ENDBRANCH   1   5
BRANCH   2  20
HETATM   20  C   UNL     1      42.491 -16.986   7.391  1.00  0.00     0.185 C 
BRANCH  20  21
HETATM   21  S   UNL     1      44.098 -16.600   6.631  1.00  0.00    -0.081 SA
BRANCH  21  22
HETATM   22  C   UNL     1      44.336 -18.013   5.668  1.00  0.00     0.192 A 
HETATM   23  N   UNL     1      44.118 -18.066   4.315  1.00  0.00    -0.311 N 
HETATM   24  C   UNL     1      44.317 -19.383   3.968  1.00  0.00     0.130 A 
HETATM   25  C   UNL     1      43.702 -16.970   3.464  1.00  0.00     0.133 C 
HETATM   26  C   UNL     1      44.128 -19.975   2.613  1.00  0.00     0.081 C 
HETATM   27  N   UNL     1      44.690 -20.054   5.041  1.00  0.00    -0.134 NA
HETATM   28  C   UNL     1      42.910 -19.418   1.886  1.00  0.00     0.008 C 
HETATM   29  C   UNL     1      43.162 -18.068   1.215  1.00  0.00     0.002 C 
HETATM   30  C   UNL     1      44.061 -17.103   1.988  1.00  0.00     0.020 C 
HETATM   31  N   UNL     1      44.698 -19.194   6.107  1.00  0.00    -0.123 NA
ENDBRANCH  21  22
ENDBRANCH  20  21
ENDBRANCH   2  20
TORSDOF 7
ENDMDL
MODEL 6
REMARK VINA RESULT:      -7.9      4.140      6.597
REMARK  7 active torsions:
REMARK  status: ('A' for Active; 'I' for Inactive)
REMARK    1  A    between atoms: O_2  and  C_3 
REMARK    2  A    between atoms: C_6  and  C_7 
REMARK    3  A    between atoms: C_7  and  N_8 
REMARK    4  A    between atoms: C_7  and  C_23 
REMARK       I    between atoms: N_8  and  C_9 
REMARK    5  A    between atoms: C_9  and  C_10 
REMARK    6  A    between atoms: C_10  and  S_11 
REMARK    7  A    between atoms: S_11  and  C_12 
ROOT
HETATM    1  N   UNL     1      42.595 -17.176   2.098  1.00  0.00    -0.348 N 
HETATM    2  C   UNL     1      41.465 -16.776   1.415  1.00  0.00     0.228 C 
HETATM    3  O   UNL     1      40.323 -16.983   1.813  1.00  0.00    -0.273 OA
HETATM    4  H   UNL     1      43.492 -17.113   1.637  1.00  0.00     0.163 HD
ENDROOT
BRANCH   1   5
HETATM    5  C   UNL     1      42.518 -17.973   3.312  1.00  0.00     0.151 C 
BRANCH   5   6
HETATM    6  C   UNL     1      42.991 -17.227   4.555  1.00  0.00    -0.031 A 
HETATM    7  C   UNL     1      43.379 -15.883   4.437  1.00  0.00     0.012 A 
HETATM    8  C   UNL     1      43.758 -15.147   5.562  1.00  0.00     0.037 A 
HETATM    9  C   UNL     1      43.742 -15.728   6.830  1.00  0.00     0.068 A 
HETATM   10  C   UNL     1      43.376 -17.067   6.961  1.00  0.00     0.037 A 
HETATM   11  C   UNL     1      43.003 -17.810   5.833  1.00  0.00     0.012 A 
BRANCH   9  12
HETATM   12  O   UNL     1      44.110 -14.892   7.848  1.00  0.00    -0.356 OA
HETATM   13  C   UNL     1      44.880 -13.752   7.486  1.00  0.00     0.210 C 
ENDBRANCH   9  12
ENDBRANCH   5   6
BRANCH   5  14
HETATM   14  C   UNL     1      43.261 -19.289   3.102  1.00  0.00    -0.031 A 
HETATM   15  C   UNL     1      44.186 -19.730   4.061  1.00  0.00     0.009 A 
HETATM   16  C   UNL     1      44.871 -20.935   3.889  1.00  0.00     0.001 A 
HETATM   17  C   UNL     1      44.636 -21.718   2.761  1.00  0.00     0.000 A 
HETATM   18  C   UNL     1      43.715 -21.300   1.805  1.00  0.00     0.001 A 
HETATM   19  C   UNL     1      43.031 -20.096   1.973  1.00  0.00     0.009 A 
ENDBRANCH   5  14
ENDBRANCH   1   5
BRANCH   2  20
HETATM   20  C   UNL     1      41.757 -16.079   0.100  1.00  0.00     0.185 C 
BRANCH  20  21
HETATM   21  S   UNL     1      40.634 -14.657  -0.059  1.00  0.00    -0.081 SA
BRANCH  21  22
HETATM   22  C   UNL     1      41.027 -14.124  -1.654  1.00  0.00     0.192 A 
HETATM   23  N   UNL     1      41.678 -12.949  -1.931  1.00  0.00    -0.311 N 
HETATM   24  C   UNL     1      41.691 -12.859  -3.305  1.00  0.00     0.130 A 
HETATM   25  C   UNL     1      42.177 -11.990  -0.967  1.00  0.00     0.133 C 
HETATM   26  C   UNL     1      42.221 -11.720  -4.108  1.00  0.00     0.081 C 
HETATM   27  N   UNL     1      41.136 -13.945  -3.808  1.00  0.00    -0.134 NA
HETATM   28  C   UNL     1      41.904 -10.362  -3.495  1.00  0.00     0.008 C 
HETATM   29  C   UNL     1      42.859  -9.960  -2.371  1.00  0.00     0.002 C 
HETATM   30  C   UNL     1      43.312 -11.093  -1.450  1.00  0.00     0.020 C 
HETATM   31  N   UNL     1      40.717 -14.736  -2.770  1.00  0.00    -0.123 NA
ENDBRANCH  21  22
ENDBRANCH  20  21
ENDBRANCH   2  20
TORSDOF 7
ENDMDL
MODEL 7
REMARK VINA RESULT:      -7.8      2.221      5.939
REMARK  7 active torsions:
REMARK  status: ('A' for Active; 'I' for Inactive)
REMARK    1  A    between atoms: O_2  and  C_3 
REMARK    2  A    between atoms: C_6  and  C_7 
REMARK    3  A    between atoms: C_7  and  N_8 
REMARK    4  A    between atoms: C_7  and  C_23 
REMARK       I    between atoms: N_8  and  C_9 
REMARK    5  A    between atoms: C_9  and  C_10 
REMARK    6  A    between atoms: C_10  and  S_11 
REMARK    7  A    between atoms: S_11  and  C_12 
ROOT
HETATM    1  N   UNL     1      40.946 -14.680   2.065  1.00  0.00    -0.348 N 
HETATM    2  C   UNL     1      39.734 -14.175   2.488  1.00  0.00     0.228 C 
HETATM    3  O   UNL     1      38.650 -14.627   2.131  1.00  0.00    -0.273 OA
HETATM    4  H   UNL     1      41.789 -14.163   2.273  1.00  0.00     0.163 HD
ENDROOT
BRANCH   1   5
HETATM    5  C   UNL     1      41.034 -15.739   1.073  1.00  0.00     0.151 C 
BRANCH   5   6
HETATM    6  C   UNL     1      42.051 -16.818   1.429  1.00  0.00    -0.031 A 
HETATM    7  C   UNL     1      41.597 -18.118   1.706  1.00  0.00     0.012 A 
HETATM    8  C   UNL     1      42.500 -19.149   1.973  1.00  0.00     0.037 A 
HETATM    9  C   UNL     1      43.875 -18.912   1.954  1.00  0.00     0.068 A 
HETATM   10  C   UNL     1      44.340 -17.623   1.698  1.00  0.00     0.037 A 
HETATM   11  C   UNL     1      43.436 -16.585   1.437  1.00  0.00     0.012 A 
BRANCH   9  12
HETATM   12  O   UNL     1      44.649 -20.011   2.206  1.00  0.00    -0.356 OA
HETATM   13  C   UNL     1      44.705 -20.450   3.558  1.00  0.00     0.210 C 
ENDBRANCH   9  12
ENDBRANCH   5   6
BRANCH   5  14
HETATM   14  C   UNL     1      41.290 -15.125  -0.301  1.00  0.00    -0.031 A 
HETATM   15  C   UNL     1      40.988 -15.857  -1.460  1.00  0.00     0.009 A 
HETATM   16  C   UNL     1      41.209 -15.309  -2.726  1.00  0.00     0.001 A 
HETATM   17  C   UNL     1      41.729 -14.022  -2.850  1.00  0.00     0.000 A 
HETATM   18  C   UNL     1      42.025 -13.280  -1.710  1.00  0.00     0.001 A 
HETATM   19  C   UNL     1      41.807 -13.825  -0.444  1.00  0.00     0.009 A 
ENDBRANCH   5  14
ENDBRANCH   1   5
BRANCH   2  20
HETATM   20  C   UNL     1      39.855 -12.981   3.415  1.00  0.00     0.185 C 
BRANCH  20  21
HETATM   21  S   UNL     1      39.666 -13.563   5.128  1.00  0.00    -0.081 SA
BRANCH  21  22
HETATM   22  C   UNL     1      41.320 -13.803   5.563  1.00  0.00     0.192 A 
HETATM   23  N   UNL     1      41.891 -15.034   5.755  1.00  0.00    -0.311 N 
HETATM   24  C   UNL     1      43.171 -14.775   6.190  1.00  0.00     0.130 A 
HETATM   25  C   UNL     1      41.245 -16.321   5.593  1.00  0.00     0.133 C 
HETATM   26  C   UNL     1      44.182 -15.788   6.610  1.00  0.00     0.081 C 
HETATM   27  N   UNL     1      43.363 -13.470   6.195  1.00  0.00    -0.134 NA
HETATM   28  C   UNL     1      43.576 -16.935   7.411  1.00  0.00     0.008 C 
HETATM   29  C   UNL     1      42.921 -18.008   6.542  1.00  0.00     0.002 C 
HETATM   30  C   UNL     1      42.174 -17.498   5.311  1.00  0.00     0.020 C 
HETATM   31  N   UNL     1      42.199 -12.861   5.805  1.00  0.00    -0.123 NA
ENDBRANCH  21  22
ENDBRANCH  20  21
ENDBRANCH   2  20
TORSDOF 7
ENDMDL
MODEL 8
REMARK VINA RESULT:      -7.8      3.472      6.309
REMARK  7 active torsions:
REMARK  status: ('A' for Active; 'I' for Inactive)
REMARK    1  A    between atoms: O_2  and  C_3 
REMARK    2  A    between atoms: C_6  and  C_7 
REMARK    3  A    between atoms: C_7  and  N_8 
REMARK    4  A    between atoms: C_7  and  C_23 
REMARK       I    between atoms: N_8  and  C_9 
REMARK    5  A    between atoms: C_9  and  C_10 
REMARK    6  A    between atoms: C_10  and  S_11 
REMARK    7  A    between atoms: S_11  and  C_12 
ROOT
HETATM    1  N   UNL     1      41.256 -15.685   3.470  1.00  0.00    -0.348 N 
HETATM    2  C   UNL     1      40.209 -14.873   3.852  1.00  0.00     0.228 C 
HETATM    3  O   UNL     1      39.811 -14.779   5.009  1.00  0.00    -0.273 OA
HETATM    4  H   UNL     1      41.425 -15.832   2.484  1.00  0.00     0.163 HD
ENDROOT
BRANCH   1   5
HETATM    5  C   UNL     1      41.915 -16.580   4.406  1.00  0.00     0.151 C 
BRANCH   5   6
HETATM    6  C   UNL     1      42.858 -15.863   5.367  1.00  0.00    -0.031 A 
HETATM    7  C   UNL     1      43.535 -14.714   4.927  1.00  0.00     0.012 A 
HETATM    8  C   UNL     1      44.358 -13.992   5.795  1.00  0.00     0.037 A 
HETATM    9  C   UNL     1      44.511 -14.389   7.124  1.00  0.00     0.068 A 
HETATM   10  C   UNL     1      43.859 -15.538   7.570  1.00  0.00     0.037 A 
HETATM   11  C   UNL     1      43.039 -16.269   6.699  1.00  0.00     0.012 A 
BRANCH   9  12
HETATM   12  O   UNL     1      45.321 -13.583   7.873  1.00  0.00    -0.356 OA
HETATM   13  C   UNL     1      44.673 -12.620   8.695  1.00  0.00     0.210 C 
ENDBRANCH   9  12
ENDBRANCH   5   6
BRANCH   5  14
HETATM   14  C   UNL     1      42.609 -17.699   3.634  1.00  0.00    -0.031 A 
HETATM   15  C   UNL     1      42.387 -17.838   2.255  1.00  0.00     0.009 A 
HETATM   16  C   UNL     1      43.020 -18.852   1.531  1.00  0.00     0.001 A 
HETATM   17  C   UNL     1      43.886 -19.734   2.172  1.00  0.00     0.000 A 
HETATM   18  C   UNL     1      44.124 -19.604   3.538  1.00  0.00     0.001 A 
HETATM   19  C   UNL     1      43.493 -18.593   4.264  1.00  0.00     0.009 A 
ENDBRANCH   5  14
ENDBRANCH   1   5
BRANCH   2  20
HETATM   20  C   UNL     1      39.563 -14.121   2.704  1.00  0.00     0.185 C 
BRANCH  20  21
HETATM   21  S   UNL     1      40.823 -13.064   1.927  1.00  0.00    -0.081 SA
BRANCH  21  22
HETATM   22  C   UNL     1      41.057 -13.901   0.434  1.00  0.00     0.192 A 
HETATM   23  N   UNL     1      41.519 -13.308  -0.712  1.00  0.00    -0.311 N 
HETATM   24  C   UNL     1      41.451 -14.287  -1.678  1.00  0.00     0.130 A 
HETATM   25  C   UNL     1      41.925 -11.926  -0.868  1.00  0.00     0.133 C 
HETATM   26  C   UNL     1      41.774 -14.123  -3.124  1.00  0.00     0.081 C 
HETATM   27  N   UNL     1      41.031 -15.407  -1.119  1.00  0.00    -0.134 NA
HETATM   28  C   UNL     1      41.299 -12.791  -3.692  1.00  0.00     0.008 C 
HETATM   29  C   UNL     1      42.242 -11.626  -3.391  1.00  0.00     0.002 C 
HETATM   30  C   UNL     1      42.896 -11.644  -2.010  1.00  0.00     0.020 C 
HETATM   31  N   UNL     1      40.781 -15.161   0.205  1.00  0.00    -0.123 NA
ENDBRANCH  21  22
ENDBRANCH  20  21
ENDBRANCH   2  20
TORSDOF 7
ENDMDL
MODEL 9
REMARK VINA RESULT:      -7.6      3.428      7.300
REMARK  7 active torsions:
REMARK  status: ('A' for Active; 'I' for Inactive)
REMARK    1  A    between atoms: O_2  and  C_3 
REMARK    2  A    between atoms: C_6  and  C_7 
REMARK    3  A    between atoms: C_7  and  N_8 
REMARK    4  A    between atoms: C_7  and  C_23 
REMARK       I    between atoms: N_8  and  C_9 
REMARK    5  A    between atoms: C_9  and  C_10 
REMARK    6  A    between atoms: C_10  and  S_11 
REMARK    7  A    between atoms: S_11  and  C_12 
ROOT
HETATM    1  N   UNL     1      41.811 -15.123  -0.408  1.00  0.00    -0.348 N 
HETATM    2  C   UNL     1      41.569 -15.984   0.642  1.00  0.00     0.228 C 
HETATM    3  O   UNL     1      40.534 -15.975   1.301  1.00  0.00    -0.273 OA
HETATM    4  H   UNL     1      42.742 -15.082  -0.801  1.00  0.00     0.163 HD
ENDROOT
BRANCH   1   5
HETATM    5  C   UNL     1      40.887 -14.058  -0.758  1.00  0.00     0.151 C 
BRANCH   5   6
HETATM    6  C   UNL     1      39.887 -14.455  -1.840  1.00  0.00    -0.031 A 
HETATM    7  C   UNL     1      38.627 -13.835  -1.864  1.00  0.00     0.012 A 
HETATM    8  C   UNL     1      37.708 -14.124  -2.875  1.00  0.00     0.037 A 
HETATM    9  C   UNL     1      38.029 -15.023  -3.892  1.00  0.00     0.068 A 
HETATM   10  C   UNL     1      39.269 -15.660  -3.871  1.00  0.00     0.037 A 
HETATM   11  C   UNL     1      40.191 -15.378  -2.854  1.00  0.00     0.012 A 
BRANCH   9  12
HETATM   12  O   UNL     1      37.052 -15.198  -4.833  1.00  0.00    -0.356 OA
HETATM   13  C   UNL     1      35.963 -14.283  -4.793  1.00  0.00     0.210 C 
ENDBRANCH   9  12
ENDBRANCH   5   6
BRANCH   5  14
HETATM   14  C   UNL     1      41.674 -12.803  -1.124  1.00  0.00    -0.031 A 
HETATM   15  C   UNL     1      42.071 -11.908  -0.118  1.00  0.00     0.009 A 
HETATM   16  C   UNL     1      42.798 -10.758  -0.434  1.00  0.00     0.001 A 
HETATM   17  C   UNL     1      43.145 -10.491  -1.757  1.00  0.00     0.000 A 
HETATM   18  C   UNL     1      42.767 -11.373  -2.766  1.00  0.00     0.001 A 
HETATM   19  C   UNL     1      42.039 -12.522  -2.453  1.00  0.00     0.009 A 
ENDBRANCH   5  14
ENDBRANCH   1   5
BRANCH   2  20
HETATM   20  C   UNL     1      42.716 -16.932   0.937  1.00  0.00     0.185 C 
BRANCH  20  21
HETATM   21  S   UNL     1      43.639 -16.291   2.367  1.00  0.00    -0.081 SA
BRANCH  21  22
HETATM   22  C   UNL     1      43.731 -17.713   3.343  1.00  0.00     0.192 A 
HETATM   23  N   UNL     1      43.487 -17.735   4.692  1.00  0.00    -0.311 N 
HETATM   24  C   UNL     1      43.775 -19.020   5.091  1.00  0.00     0.130 A 
HETATM   25  C   UNL     1      43.077 -16.614   5.514  1.00  0.00     0.133 C 
HETATM   26  C   UNL     1      43.740 -19.538   6.489  1.00  0.00     0.081 C 
HETATM   27  N   UNL     1      44.111 -19.729   4.030  1.00  0.00    -0.134 NA
HETATM   28  C   UNL     1      44.276 -18.539   7.507  1.00  0.00     0.008 C 
HETATM   29  C   UNL     1      43.256 -17.477   7.918  1.00  0.00     0.002 C 
HETATM   30  C   UNL     1      42.342 -16.970   6.803  1.00  0.00     0.020 C 
HETATM   31  N   UNL     1      44.087 -18.907   2.935  1.00  0.00    -0.123 NA
ENDBRANCH  21  22
ENDBRANCH  20  21
ENDBRANCH   2  20
TORSDOF 7
ENDMDL
MODEL 10
REMARK VINA RESULT:      -7.5      3.695      6.480
REMARK  7 active torsions:
REMARK  status: ('A' for Active; 'I' for Inactive)
REMARK    1  A    between atoms: O_2  and  C_3 
REMARK    2  A    between atoms: C_6  and  C_7 
REMARK    3  A    between atoms: C_7  and  N_8 
REMARK    4  A    between atoms: C_7  and  C_23 
REMARK       I    between atoms: N_8  and  C_9 
REMARK    5  A    between atoms: C_9  and  C_10 
REMARK    6  A    between atoms: C_10  and  S_11 
REMARK    7  A    between atoms: S_11  and  C_12 
ROOT
HETATM    1  N   UNL     1      42.267 -16.488   2.615  1.00  0.00    -0.348 N 
HETATM    2  C   UNL     1      41.086 -16.382   1.910  1.00  0.00     0.228 C 
HETATM    3  O   UNL     1      40.041 -16.927   2.252  1.00  0.00    -0.273 OA
HETATM    4  H   UNL     1      43.119 -16.145   2.194  1.00  0.00     0.163 HD
ENDROOT
BRANCH   1   5
HETATM    5  C   UNL     1      42.392 -17.348   3.780  1.00  0.00     0.151 C 
BRANCH   5   6
HETATM    6  C   UNL     1      43.001 -16.644   4.989  1.00  0.00    -0.031 A 
HETATM    7  C   UNL     1      43.614 -15.393   4.810  1.00  0.00     0.012 A 
HETATM    8  C   UNL     1      44.128 -14.687   5.901  1.00  0.00     0.037 A 
HETATM    9  C   UNL     1      44.027 -15.203   7.193  1.00  0.00     0.068 A 
HETATM   10  C   UNL     1      43.437 -16.452   7.383  1.00  0.00     0.037 A 
HETATM   11  C   UNL     1      42.927 -17.166   6.290  1.00  0.00     0.012 A 
BRANCH   9  12
HETATM   12  O   UNL     1      44.545 -14.402   8.172  1.00  0.00    -0.356 OA
HETATM   13  C   UNL     1      44.469 -12.999   7.950  1.00  0.00     0.210 C 
ENDBRANCH   9  12
ENDBRANCH   5   6
BRANCH   5  14
HETATM   14  C   UNL     1      43.153 -18.614   3.397  1.00  0.00    -0.031 A 
HETATM   15  C   UNL     1      42.850 -19.276   2.197  1.00  0.00     0.009 A 
HETATM   16  C   UNL     1      43.542 -20.431   1.826  1.00  0.00     0.001 A 
HETATM   17  C   UNL     1      44.549 -20.937   2.646  1.00  0.00     0.000 A 
HETATM   18  C   UNL     1      44.868 -20.288   3.836  1.00  0.00     0.001 A 
HETATM   19  C   UNL     1      44.178 -19.134   4.209  1.00  0.00     0.009 A 
ENDBRANCH   5  14
ENDBRANCH   1   5
BRANCH   2  20
HETATM   20  C   UNL     1      41.197 -15.550   0.647  1.00  0.00     0.185 C 
BRANCH  20  21
HETATM   21  S   UNL     1      40.178 -14.057   0.849  1.00  0.00    -0.081 SA
BRANCH  21  22
HETATM   22  C   UNL     1      41.247 -12.859   0.212  1.00  0.00     0.192 A 
HETATM   23  N   UNL     1      41.137 -12.325  -1.046  1.00  0.00    -0.311 N 
HETATM   24  C   UNL     1      42.235 -11.506  -1.187  1.00  0.00     0.130 A 
HETATM   25  C   UNL     1      40.113 -12.625  -2.026  1.00  0.00     0.133 C 
HETATM   26  C   UNL     1      42.616 -10.747  -2.413  1.00  0.00     0.081 C 
HETATM   27  N   UNL     1      42.917 -11.510  -0.058  1.00  0.00    -0.134 NA
HETATM   28  C   UNL     1      42.379 -11.534  -3.696  1.00  0.00     0.008 C 
HETATM   29  C   UNL     1      40.928 -11.498  -4.176  1.00  0.00     0.002 C 
HETATM   30  C   UNL     1      39.866 -11.548  -3.078  1.00  0.00     0.020 C 
HETATM   31  N   UNL     1      42.298 -12.363   0.818  1.00  0.00    -0.123 NA
ENDBRANCH  21  22
ENDBRANCH  20  21
ENDBRANCH   2  20
TORSDOF 7
ENDMDL
