MODEL 1
REMARK VINA RESULT:      -8.3      0.000      0.000
REMARK  3 active torsions:
REMARK  status: ('A' for Active; 'I' for Inactive)
REMARK       I    between atoms: N_2  and  C_3 
REMARK    1  A    between atoms: C_3  and  C_4 
REMARK    2  A    between atoms: C_7  and  N_8 
REMARK       I    between atoms: N_8  and  C_9 
REMARK    3  A    between atoms: C_9  and  C_10 
ROOT
HETATM    1  N   UNL     1      43.960 -14.745   7.306  1.00  0.00    -0.321 N 
HETATM    2  C   UNL     1      44.868 -13.701   7.343  1.00  0.00     0.280 C 
HETATM    3  O   UNL     1      45.836 -13.572   6.602  1.00  0.00    -0.265 OA
HETATM    4  H   UNL     1      43.206 -14.672   7.982  1.00  0.00     0.169 HD
ENDROOT
BRANCH   1   5
HETATM    5  C   UNL     1      43.980 -15.891   6.491  1.00  0.00     0.035 A 
HETATM    6  C   UNL     1      43.302 -15.995   5.274  1.00  0.00     0.030 A 
HETATM    7  C   UNL     1      43.405 -17.156   4.498  1.00  0.00     0.019 A 
HETATM    8  C   UNL     1      44.193 -18.226   4.932  1.00  0.00     0.032 A 
HETATM    9  C   UNL     1      44.847 -18.141   6.164  1.00  0.00     0.019 A 
HETATM   10  C   UNL     1      44.745 -16.977   6.934  1.00  0.00     0.030 A 
BRANCH   8  11
HETATM   11  C   UNL     1      44.350 -19.465   4.125  1.00  0.00     0.251 C 
HETATM   12  N   UNL     1      43.617 -19.527   2.957  1.00  0.00    -0.361 N 
HETATM   13  C   UNL     1      43.788 -20.628   2.045  1.00  0.00     0.149 C 
HETATM   14  H   UNL     1      43.189 -18.682   2.606  1.00  0.00     0.162 HD
HETATM   15  O   UNL     1      45.130 -20.340   4.484  1.00  0.00    -0.268 OA
ENDBRANCH   8  11
ENDBRANCH   1   5
BRANCH   2  16
HETATM   16  C   UNL     1      44.568 -12.736   8.386  1.00  0.00     0.144 A 
HETATM   17  O   UNL     1      43.476 -11.915   8.252  1.00  0.00    -0.304 OA
HETATM   18  C   UNL     1      43.414 -11.146   9.374  1.00  0.00     0.086 A 
HETATM   19  C   UNL     1      44.461 -11.455  10.233  1.00  0.00     0.001 A 
HETATM   20  C   UNL     1      42.441 -10.186   9.642  1.00  0.00     0.038 A 
HETATM   21  C   UNL     1      45.203 -12.475   9.586  1.00  0.00     0.057 A 
HETATM   22  C   UNL     1      44.558 -10.762  11.453  1.00  0.00     0.014 A 
HETATM   23  C   UNL     1      43.590  -9.792  11.753  1.00  0.00     0.001 A 
HETATM   24  C   UNL     1      42.552  -9.510  10.862  1.00  0.00     0.003 A 
ENDBRANCH   2  16
TORSDOF 3
ENDMDL
MODEL 2
REMARK VINA RESULT:      -7.8      6.961      9.900
REMARK  3 active torsions:
REMARK  status: ('A' for Active; 'I' for Inactive)
REMARK       I    between atoms: N_2  and  C_3 
REMARK    1  A    between atoms: C_3  and  C_4 
REMARK    2  A    between atoms: C_7  and  N_8 
REMARK       I    between atoms: N_8  and  C_9 
REMARK    3  A    between atoms: C_9  and  C_10 
ROOT
HETATM    1  N   UNL     1      41.552 -17.143   1.777  1.00  0.00    -0.321 N 
HETATM    2  C   UNL     1      42.856 -17.119   2.240  1.00  0.00     0.280 C 
HETATM    3  O   UNL     1      43.549 -16.115   2.364  1.00  0.00    -0.265 OA
HETATM    4  H   UNL     1      41.126 -18.065   1.765  1.00  0.00     0.169 HD
ENDROOT
BRANCH   1   5
HETATM    5  C   UNL     1      40.778 -16.074   1.292  1.00  0.00     0.035 A 
HETATM    6  C   UNL     1      41.030 -15.411   0.088  1.00  0.00     0.030 A 
HETATM    7  C   UNL     1      40.187 -14.381  -0.349  1.00  0.00     0.019 A 
HETATM    8  C   UNL     1      39.080 -14.006   0.417  1.00  0.00     0.032 A 
HETATM    9  C   UNL     1      38.841 -14.642   1.637  1.00  0.00     0.019 A 
HETATM   10  C   UNL     1      39.683 -15.674   2.068  1.00  0.00     0.030 A 
BRANCH   8  11
HETATM   11  C   UNL     1      38.145 -12.936  -0.024  1.00  0.00     0.251 C 
HETATM   12  N   UNL     1      37.003 -12.776   0.735  1.00  0.00    -0.361 N 
HETATM   13  C   UNL     1      36.094 -11.692   0.465  1.00  0.00     0.149 C 
HETATM   14  H   UNL     1      36.953 -13.223   1.640  1.00  0.00     0.162 HD
HETATM   15  O   UNL     1      38.427 -12.229  -0.984  1.00  0.00    -0.268 OA
ENDBRANCH   8  11
ENDBRANCH   1   5
BRANCH   2  16
HETATM   16  C   UNL     1      43.356 -18.441   2.570  1.00  0.00     0.144 A 
HETATM   17  O   UNL     1      43.820 -18.690   3.838  1.00  0.00    -0.304 OA
HETATM   18  C   UNL     1      44.190 -19.999   3.879  1.00  0.00     0.086 A 
HETATM   19  C   UNL     1      43.979 -20.603   2.646  1.00  0.00     0.001 A 
HETATM   20  C   UNL     1      44.704 -20.659   4.993  1.00  0.00     0.038 A 
HETATM   21  C   UNL     1      43.448 -19.591   1.807  1.00  0.00     0.057 A 
HETATM   22  C   UNL     1      44.299 -21.964   2.498  1.00  0.00     0.014 A 
HETATM   23  C   UNL     1      44.816 -22.656   3.604  1.00  0.00     0.001 A 
HETATM   24  C   UNL     1      45.014 -22.013   4.828  1.00  0.00     0.003 A 
ENDBRANCH   2  16
TORSDOF 3
ENDMDL
MODEL 3
REMARK VINA RESULT:      -7.7      3.712      9.350
REMARK  3 active torsions:
REMARK  status: ('A' for Active; 'I' for Inactive)
REMARK       I    between atoms: N_2  and  C_3 
REMARK    1  A    between atoms: C_3  and  C_4 
REMARK    2  A    between atoms: C_7  and  N_8 
REMARK       I    between atoms: N_8  and  C_9 
REMARK    3  A    between atoms: C_9  and  C_10 
ROOT
HETATM    1  N   UNL     1      42.600 -16.385   4.767  1.00  0.00    -0.321 N 
HETATM    2  C   UNL     1      43.297 -16.660   3.603  1.00  0.00     0.280 C 
HETATM    3  O   UNL     1      43.596 -15.841   2.741  1.00  0.00    -0.265 OA
HETATM    4  H   UNL     1      42.465 -17.185   5.376  1.00  0.00     0.169 HD
ENDROOT
BRANCH   1   5
HETATM    5  C   UNL     1      42.034 -15.165   5.177  1.00  0.00     0.035 A 
HETATM    6  C   UNL     1      42.780 -14.041   5.540  1.00  0.00     0.030 A 
HETATM    7  C   UNL     1      42.142 -12.846   5.898  1.00  0.00     0.019 A 
HETATM    8  C   UNL     1      40.746 -12.766   5.894  1.00  0.00     0.032 A 
HETATM    9  C   UNL     1      39.994 -13.896   5.564  1.00  0.00     0.019 A 
HETATM   10  C   UNL     1      40.636 -15.086   5.202  1.00  0.00     0.030 A 
BRANCH   8  11
HETATM   11  C   UNL     1      40.030 -11.509   6.241  1.00  0.00     0.251 C 
HETATM   12  N   UNL     1      40.766 -10.559   6.921  1.00  0.00    -0.361 N 
HETATM   13  C   UNL     1      40.204  -9.262   7.198  1.00  0.00     0.149 C 
HETATM   14  H   UNL     1      41.770 -10.660   6.965  1.00  0.00     0.162 HD
HETATM   15  O   UNL     1      38.869 -11.343   5.888  1.00  0.00    -0.268 OA
ENDBRANCH   8  11
ENDBRANCH   1   5
BRANCH   2  16
HETATM   16  C   UNL     1      43.648 -18.063   3.480  1.00  0.00     0.144 A 
HETATM   17  O   UNL     1      44.095 -18.746   4.584  1.00  0.00    -0.304 OA
HETATM   18  C   UNL     1      44.314 -20.033   4.197  1.00  0.00     0.086 A 
HETATM   19  C   UNL     1      44.022 -20.191   2.848  1.00  0.00     0.001 A 
HETATM   20  C   UNL     1      44.762 -21.060   5.025  1.00  0.00     0.038 A 
HETATM   21  C   UNL     1      43.600 -18.917   2.393  1.00  0.00     0.057 A 
HETATM   22  C   UNL     1      44.184 -21.462   2.269  1.00  0.00     0.014 A 
HETATM   23  C   UNL     1      44.631 -22.517   3.078  1.00  0.00     0.001 A 
HETATM   24  C   UNL     1      44.915 -22.317   4.431  1.00  0.00     0.003 A 
ENDBRANCH   2  16
TORSDOF 3
ENDMDL
MODEL 4
REMARK VINA RESULT:      -7.7      4.807      9.578
REMARK  3 active torsions:
REMARK  status: ('A' for Active; 'I' for Inactive)
REMARK       I    between atoms: N_2  and  C_3 
REMARK    1  A    between atoms: C_3  and  C_4 
REMARK    2  A    between atoms: C_7  and  N_8 
REMARK       I    between atoms: N_8  and  C_9 
REMARK    3  A    between atoms: C_9  and  C_10 
ROOT
HETATM    1  N   UNL     1      41.579 -16.092   3.871  1.00  0.00    -0.321 N 
HETATM    2  C   UNL     1      42.836 -16.225   3.307  1.00  0.00     0.280 C 
HETATM    3  O   UNL     1      43.574 -15.300   2.985  1.00  0.00    -0.265 OA
HETATM    4  H   UNL     1      41.123 -16.970   4.096  1.00  0.00     0.169 HD
ENDROOT
BRANCH   1   5
HETATM    5  C   UNL     1      40.858 -14.912   4.126  1.00  0.00     0.035 A 
HETATM    6  C   UNL     1      40.705 -14.349   5.395  1.00  0.00     0.030 A 
HETATM    7  C   UNL     1      40.006 -13.147   5.563  1.00  0.00     0.019 A 
HETATM    8  C   UNL     1      39.453 -12.494   4.458  1.00  0.00     0.032 A 
HETATM    9  C   UNL     1      39.573 -13.069   3.190  1.00  0.00     0.019 A 
HETATM   10  C   UNL     1      40.276 -14.268   3.026  1.00  0.00     0.030 A 
BRANCH   8  11
HETATM   11  C   UNL     1      38.727 -11.203   4.589  1.00  0.00     0.251 C 
HETATM   12  N   UNL     1      38.011 -10.793   3.483  1.00  0.00    -0.361 N 
HETATM   13  C   UNL     1      37.177  -9.620   3.546  1.00  0.00     0.149 C 
HETATM   14  H   UNL     1      37.841 -11.456   2.739  1.00  0.00     0.162 HD
HETATM   15  O   UNL     1      38.749 -10.588   5.649  1.00  0.00    -0.268 OA
ENDBRANCH   8  11
ENDBRANCH   1   5
BRANCH   2  16
HETATM   16  C   UNL     1      43.217 -17.612   3.112  1.00  0.00     0.144 A 
HETATM   17  O   UNL     1      43.888 -18.274   4.110  1.00  0.00    -0.304 OA
HETATM   18  C   UNL     1      44.086 -19.551   3.680  1.00  0.00     0.086 A 
HETATM   19  C   UNL     1      43.556 -19.723   2.407  1.00  0.00     0.001 A 
HETATM   20  C   UNL     1      44.722 -20.557   4.403  1.00  0.00     0.038 A 
HETATM   21  C   UNL     1      43.005 -18.468   2.047  1.00  0.00     0.057 A 
HETATM   22  C   UNL     1      43.662 -20.986   1.799  1.00  0.00     0.014 A 
HETATM   23  C   UNL     1      44.294 -22.021   2.504  1.00  0.00     0.001 A 
HETATM   24  C   UNL     1      44.814 -21.808   3.783  1.00  0.00     0.003 A 
ENDBRANCH   2  16
TORSDOF 3
ENDMDL
MODEL 5
REMARK VINA RESULT:      -7.7      6.346      8.872
REMARK  3 active torsions:
REMARK  status: ('A' for Active; 'I' for Inactive)
REMARK       I    between atoms: N_2  and  C_3 
REMARK    1  A    between atoms: C_3  and  C_4 
REMARK    2  A    between atoms: C_7  and  N_8 
REMARK       I    between atoms: N_8  and  C_9 
REMARK    3  A    between atoms: C_9  and  C_10 
ROOT
HETATM    1  N   UNL     1      42.869 -16.235   1.061  1.00  0.00    -0.321 N 
HETATM    2  C   UNL     1      41.578 -15.873   0.716  1.00  0.00     0.280 C 
HETATM    3  O   UNL     1      40.557 -16.263   1.270  1.00  0.00    -0.265 OA
HETATM    4  H   UNL     1      43.594 -15.792   0.505  1.00  0.00     0.169 HD
ENDROOT
BRANCH   1   5
HETATM    5  C   UNL     1      43.285 -17.155   2.040  1.00  0.00     0.035 A 
HETATM    6  C   UNL     1      43.367 -16.860   3.403  1.00  0.00     0.030 A 
HETATM    7  C   UNL     1      43.751 -17.844   4.323  1.00  0.00     0.019 A 
HETATM    8  C   UNL     1      44.055 -19.136   3.886  1.00  0.00     0.032 A 
HETATM    9  C   UNL     1      44.007 -19.428   2.521  1.00  0.00     0.019 A 
HETATM   10  C   UNL     1      43.619 -18.444   1.605  1.00  0.00     0.030 A 
BRANCH   8  11
HETATM   11  C   UNL     1      44.440 -20.216   4.833  1.00  0.00     0.251 C 
HETATM   12  N   UNL     1      44.778 -21.429   4.267  1.00  0.00    -0.361 N 
HETATM   13  C   UNL     1      45.281 -22.502   5.086  1.00  0.00     0.149 C 
HETATM   14  H   UNL     1      44.950 -21.471   3.272  1.00  0.00     0.162 HD
HETATM   15  O   UNL     1      44.488 -19.993   6.037  1.00  0.00    -0.268 OA
ENDBRANCH   8  11
ENDBRANCH   1   5
BRANCH   2  16
HETATM   16  C   UNL     1      41.537 -14.961  -0.413  1.00  0.00     0.144 A 
HETATM   17  O   UNL     1      42.176 -13.749  -0.326  1.00  0.00    -0.304 OA
HETATM   18  C   UNL     1      42.007 -13.120  -1.521  1.00  0.00     0.086 A 
HETATM   19  C   UNL     1      41.255 -13.910  -2.383  1.00  0.00     0.001 A 
HETATM   20  C   UNL     1      42.513 -11.866  -1.853  1.00  0.00     0.038 A 
HETATM   21  C   UNL     1      40.951 -15.090  -1.659  1.00  0.00     0.057 A 
HETATM   22  C   UNL     1      40.981 -13.424  -3.674  1.00  0.00     0.014 A 
HETATM   23  C   UNL     1      41.481 -12.165  -4.039  1.00  0.00     0.001 A 
HETATM   24  C   UNL     1      42.233 -11.401  -3.142  1.00  0.00     0.003 A 
ENDBRANCH   2  16
TORSDOF 3
ENDMDL
MODEL 6
REMARK VINA RESULT:      -7.5      6.683      9.791
REMARK  3 active torsions:
REMARK  status: ('A' for Active; 'I' for Inactive)
REMARK       I    between atoms: N_2  and  C_3 
REMARK    1  A    between atoms: C_3  and  C_4 
REMARK    2  A    between atoms: C_7  and  N_8 
REMARK       I    between atoms: N_8  and  C_9 
REMARK    3  A    between atoms: C_9  and  C_10 
ROOT
HETATM    1  N   UNL     1      41.764 -17.140   1.718  1.00  0.00    -0.321 N 
HETATM    2  C   UNL     1      42.980 -17.029   2.371  1.00  0.00     0.280 C 
HETATM    3  O   UNL     1      43.639 -16.002   2.479  1.00  0.00    -0.265 OA
HETATM    4  H   UNL     1      41.351 -18.066   1.750  1.00  0.00     0.169 HD
ENDROOT
BRANCH   1   5
HETATM    5  C   UNL     1      41.069 -16.154   0.995  1.00  0.00     0.035 A 
HETATM    6  C   UNL     1      40.057 -15.357   1.536  1.00  0.00     0.030 A 
HETATM    7  C   UNL     1      39.439 -14.366   0.763  1.00  0.00     0.019 A 
HETATM    8  C   UNL     1      39.832 -14.162  -0.563  1.00  0.00     0.032 A 
HETATM    9  C   UNL     1      40.820 -14.977  -1.120  1.00  0.00     0.019 A 
HETATM   10  C   UNL     1      41.438 -15.963  -0.343  1.00  0.00     0.030 A 
BRANCH   8  11
HETATM   11  C   UNL     1      39.221 -13.102  -1.409  1.00  0.00     0.251 C 
HETATM   12  N   UNL     1      38.033 -13.431  -2.031  1.00  0.00    -0.361 N 
HETATM   13  C   UNL     1      37.299 -12.439  -2.774  1.00  0.00     0.149 C 
HETATM   14  H   UNL     1      37.539 -14.260  -1.731  1.00  0.00     0.162 HD
HETATM   15  O   UNL     1      39.746 -11.998  -1.490  1.00  0.00    -0.268 OA
ENDBRANCH   8  11
ENDBRANCH   1   5
BRANCH   2  16
HETATM   16  C   UNL     1      43.430 -18.291   2.929  1.00  0.00     0.144 A 
HETATM   17  O   UNL     1      43.501 -19.399   2.122  1.00  0.00    -0.304 OA
HETATM   18  C   UNL     1      43.980 -20.421   2.885  1.00  0.00     0.086 A 
HETATM   19  C   UNL     1      44.215 -19.987   4.184  1.00  0.00     0.001 A 
HETATM   20  C   UNL     1      44.215 -21.719   2.441  1.00  0.00     0.038 A 
HETATM   21  C   UNL     1      43.852 -18.617   4.205  1.00  0.00     0.057 A 
HETATM   22  C   UNL     1      44.721 -20.907   5.120  1.00  0.00     0.014 A 
HETATM   23  C   UNL     1      44.970 -22.223   4.701  1.00  0.00     0.001 A 
HETATM   24  C   UNL     1      44.720 -22.619   3.385  1.00  0.00     0.003 A 
ENDBRANCH   2  16
TORSDOF 3
ENDMDL
MODEL 7
REMARK VINA RESULT:      -7.5      3.699      9.465
REMARK  3 active torsions:
REMARK  status: ('A' for Active; 'I' for Inactive)
REMARK       I    between atoms: N_2  and  C_3 
REMARK    1  A    between atoms: C_3  and  C_4 
REMARK    2  A    between atoms: C_7  and  N_8 
REMARK       I    between atoms: N_8  and  C_9 
REMARK    3  A    between atoms: C_9  and  C_10 
ROOT
HETATM    1  N   UNL     1      41.898 -15.635   4.588  1.00  0.00    -0.321 N 
HETATM    2  C   UNL     1      41.909 -16.050   3.268  1.00  0.00     0.280 C 
HETATM    3  O   UNL     1      41.448 -15.424   2.320  1.00  0.00    -0.265 OA
HETATM    4  H   UNL     1      42.349 -16.274   5.235  1.00  0.00     0.169 HD
ENDROOT
BRANCH   1   5
HETATM    5  C   UNL     1      41.313 -14.478   5.134  1.00  0.00     0.035 A 
HETATM    6  C   UNL     1      39.942 -14.327   5.355  1.00  0.00     0.030 A 
HETATM    7  C   UNL     1      39.439 -13.159   5.943  1.00  0.00     0.019 A 
HETATM    8  C   UNL     1      40.307 -12.130   6.319  1.00  0.00     0.032 A 
HETATM    9  C   UNL     1      41.676 -12.262   6.070  1.00  0.00     0.019 A 
HETATM   10  C   UNL     1      42.174 -13.432   5.487  1.00  0.00     0.030 A 
BRANCH   8  11
HETATM   11  C   UNL     1      39.817 -10.886   6.970  1.00  0.00     0.251 C 
HETATM   12  N   UNL     1      40.433 -10.538   8.156  1.00  0.00    -0.361 N 
HETATM   13  C   UNL     1      40.116  -9.292   8.804  1.00  0.00     0.149 C 
HETATM   14  H   UNL     1      41.294 -11.001   8.411  1.00  0.00     0.162 HD
HETATM   15  O   UNL     1      38.946 -10.211   6.434  1.00  0.00    -0.268 OA
ENDBRANCH   8  11
ENDBRANCH   1   5
BRANCH   2  16
HETATM   16  C   UNL     1      42.530 -17.351   3.096  1.00  0.00     0.144 A 
HETATM   17  O   UNL     1      43.302 -17.868   4.107  1.00  0.00    -0.304 OA
HETATM   18  C   UNL     1      43.725 -19.096   3.699  1.00  0.00     0.086 A 
HETATM   19  C   UNL     1      43.242 -19.378   2.427  1.00  0.00     0.001 A 
HETATM   20  C   UNL     1      44.524 -19.963   4.440  1.00  0.00     0.038 A 
HETATM   21  C   UNL     1      42.480 -18.247   2.044  1.00  0.00     0.057 A 
HETATM   22  C   UNL     1      43.573 -20.612   1.839  1.00  0.00     0.014 A 
HETATM   23  C   UNL     1      44.374 -21.508   2.563  1.00  0.00     0.001 A 
HETATM   24  C   UNL     1      44.841 -21.186   3.840  1.00  0.00     0.003 A 
ENDBRANCH   2  16
TORSDOF 3
ENDMDL
MODEL 8
REMARK VINA RESULT:      -7.2      6.419     10.044
REMARK  3 active torsions:
REMARK  status: ('A' for Active; 'I' for Inactive)
REMARK       I    between atoms: N_2  and  C_3 
REMARK    1  A    between atoms: C_3  and  C_4 
REMARK    2  A    between atoms: C_7  and  N_8 
REMARK       I    between atoms: N_8  and  C_9 
REMARK    3  A    between atoms: C_9  and  C_10 
ROOT
HETATM    1  N   UNL     1      40.775 -15.467   2.430  1.00  0.00    -0.321 N 
HETATM    2  C   UNL     1      41.651 -16.081   1.552  1.00  0.00     0.280 C 
HETATM    3  O   UNL     1      41.827 -15.761   0.382  1.00  0.00    -0.265 OA
HETATM    4  H   UNL     1      40.781 -15.852   3.369  1.00  0.00     0.169 HD
ENDROOT
BRANCH   1   5
HETATM    5  C   UNL     1      39.868 -14.424   2.172  1.00  0.00     0.035 A 
HETATM    6  C   UNL     1      40.040 -13.111   2.616  1.00  0.00     0.030 A 
HETATM    7  C   UNL     1      39.112 -12.117   2.282  1.00  0.00     0.019 A 
HETATM    8  C   UNL     1      38.000 -12.429   1.495  1.00  0.00     0.032 A 
HETATM    9  C   UNL     1      37.804 -13.747   1.075  1.00  0.00     0.019 A 
HETATM   10  C   UNL     1      38.736 -14.736   1.407  1.00  0.00     0.030 A 
BRANCH   8  11
HETATM   11  C   UNL     1      37.005 -11.398   1.095  1.00  0.00     0.251 C 
HETATM   12  N   UNL     1      35.772 -11.868   0.689  1.00  0.00    -0.361 N 
HETATM   13  C   UNL     1      34.702 -10.950   0.396  1.00  0.00     0.149 C 
HETATM   14  H   UNL     1      35.534 -12.832   0.874  1.00  0.00     0.162 HD
HETATM   15  O   UNL     1      37.284 -10.208   1.178  1.00  0.00    -0.268 OA
ENDBRANCH   8  11
ENDBRANCH   1   5
BRANCH   2  16
HETATM   16  C   UNL     1      42.366 -17.189   2.159  1.00  0.00     0.144 A 
HETATM   17  O   UNL     1      42.492 -18.369   1.469  1.00  0.00    -0.304 OA
HETATM   18  C   UNL     1      43.226 -19.212   2.248  1.00  0.00     0.086 A 
HETATM   19  C   UNL     1      43.572 -18.591   3.442  1.00  0.00     0.001 A 
HETATM   20  C   UNL     1      43.593 -20.511   1.908  1.00  0.00     0.038 A 
HETATM   21  C   UNL     1      43.008 -17.292   3.379  1.00  0.00     0.057 A 
HETATM   22  C   UNL     1      44.340 -19.309   4.375  1.00  0.00     0.014 A 
HETATM   23  C   UNL     1      44.728 -20.620   4.060  1.00  0.00     0.001 A 
HETATM   24  C   UNL     1      44.359 -21.209   2.848  1.00  0.00     0.003 A 
ENDBRANCH   2  16
TORSDOF 3
ENDMDL
MODEL 9
REMARK VINA RESULT:      -7.2      7.060     10.350
REMARK  3 active torsions:
REMARK  status: ('A' for Active; 'I' for Inactive)
REMARK       I    between atoms: N_2  and  C_3 
REMARK    1  A    between atoms: C_3  and  C_4 
REMARK    2  A    between atoms: C_7  and  N_8 
REMARK       I    between atoms: N_8  and  C_9 
REMARK    3  A    between atoms: C_9  and  C_10 
ROOT
HETATM    1  N   UNL     1      41.927 -16.176   0.250  1.00  0.00    -0.321 N 
HETATM    2  C   UNL     1      41.305 -16.765   1.336  1.00  0.00     0.280 C 
HETATM    3  O   UNL     1      40.174 -16.511   1.734  1.00  0.00    -0.265 OA
HETATM    4  H   UNL     1      42.858 -16.530   0.053  1.00  0.00     0.169 HD
ENDROOT
BRANCH   1   5
HETATM    5  C   UNL     1      41.450 -15.139  -0.572  1.00  0.00     0.035 A 
HETATM    6  C   UNL     1      40.845 -15.343  -1.815  1.00  0.00     0.030 A 
HETATM    7  C   UNL     1      40.357 -14.260  -2.557  1.00  0.00     0.019 A 
HETATM    8  C   UNL     1      40.469 -12.959  -2.059  1.00  0.00     0.032 A 
HETATM    9  C   UNL     1      41.102 -12.745  -0.833  1.00  0.00     0.019 A 
HETATM   10  C   UNL     1      41.584 -13.830  -0.092  1.00  0.00     0.030 A 
BRANCH   8  11
HETATM   11  C   UNL     1      39.939 -11.784  -2.803  1.00  0.00     0.251 C 
HETATM   12  N   UNL     1      39.058 -12.062  -3.828  1.00  0.00    -0.361 N 
HETATM   13  C   UNL     1      38.396 -10.993  -4.531  1.00  0.00     0.149 C 
HETATM   14  H   UNL     1      38.660 -12.989  -3.892  1.00  0.00     0.162 HD
HETATM   15  O   UNL     1      40.254 -10.649  -2.467  1.00  0.00    -0.268 OA
ENDBRANCH   8  11
ENDBRANCH   1   5
BRANCH   2  16
HETATM   16  C   UNL     1      42.149 -17.743   2.000  1.00  0.00     0.144 A 
HETATM   17  O   UNL     1      42.362 -18.963   1.407  1.00  0.00    -0.304 OA
HETATM   18  C   UNL     1      43.206 -19.659   2.218  1.00  0.00     0.086 A 
HETATM   19  C   UNL     1      43.537 -18.906   3.337  1.00  0.00     0.001 A 
HETATM   20  C   UNL     1      43.685 -20.943   1.972  1.00  0.00     0.038 A 
HETATM   21  C   UNL     1      42.847 -17.676   3.192  1.00  0.00     0.057 A 
HETATM   22  C   UNL     1      44.409 -19.462   4.290  1.00  0.00     0.014 A 
HETATM   23  C   UNL     1      44.911 -20.753   4.068  1.00  0.00     0.001 A 
HETATM   24  C   UNL     1      44.553 -21.479   2.929  1.00  0.00     0.003 A 
ENDBRANCH   2  16
TORSDOF 3
ENDMDL
MODEL 10
REMARK VINA RESULT:      -7.0      3.620      9.100
REMARK  3 active torsions:
REMARK  status: ('A' for Active; 'I' for Inactive)
REMARK       I    between atoms: N_2  and  C_3 
REMARK    1  A    between atoms: C_3  and  C_4 
REMARK    2  A    between atoms: C_7  and  N_8 
REMARK       I    between atoms: N_8  and  C_9 
REMARK    3  A    between atoms: C_9  and  C_10 
ROOT
HETATM    1  N   UNL     1      42.200 -15.943   5.354  1.00  0.00    -0.321 N 
HETATM    2  C   UNL     1      43.128 -16.674   6.074  1.00  0.00     0.280 C 
HETATM    3  O   UNL     1      43.577 -16.369   7.173  1.00  0.00    -0.265 OA
HETATM    4  H   UNL     1      41.925 -16.363   4.472  1.00  0.00     0.169 HD
ENDROOT
BRANCH   1   5
HETATM    5  C   UNL     1      41.635 -14.695   5.672  1.00  0.00     0.035 A 
HETATM    6  C   UNL     1      42.380 -13.536   5.898  1.00  0.00     0.030 A 
HETATM    7  C   UNL     1      41.742 -12.319   6.169  1.00  0.00     0.019 A 
HETATM    8  C   UNL     1      40.346 -12.251   6.213  1.00  0.00     0.032 A 
HETATM    9  C   UNL     1      39.596 -13.414   6.021  1.00  0.00     0.019 A 
HETATM   10  C   UNL     1      40.238 -14.627   5.746  1.00  0.00     0.030 A 
BRANCH   8  11
HETATM   11  C   UNL     1      39.629 -10.974   6.471  1.00  0.00     0.251 C 
HETATM   12  N   UNL     1      39.480 -10.131   5.387  1.00  0.00    -0.361 N 
HETATM   13  C   UNL     1      38.698  -8.927   5.500  1.00  0.00     0.149 C 
HETATM   14  H   UNL     1      39.666 -10.491   4.461  1.00  0.00     0.162 HD
HETATM   15  O   UNL     1      39.170 -10.737   7.582  1.00  0.00    -0.268 OA
ENDBRANCH   8  11
ENDBRANCH   1   5
BRANCH   2  16
HETATM   16  C   UNL     1      43.551 -17.878   5.382  1.00  0.00     0.144 A 
HETATM   17  O   UNL     1      43.852 -19.003   6.107  1.00  0.00    -0.304 OA
HETATM   18  C   UNL     1      44.180 -19.979   5.215  1.00  0.00     0.086 A 
HETATM   19  C   UNL     1      44.103 -19.494   3.915  1.00  0.00     0.001 A 
HETATM   20  C   UNL     1      44.539 -21.284   5.542  1.00  0.00     0.038 A 
HETATM   21  C   UNL     1      43.704 -18.139   4.032  1.00  0.00     0.057 A 
HETATM   22  C   UNL     1      44.404 -20.365   2.853  1.00  0.00     0.014 A 
HETATM   23  C   UNL     1      44.765 -21.688   3.150  1.00  0.00     0.001 A 
HETATM   24  C   UNL     1      44.831 -22.137   4.472  1.00  0.00     0.003 A 
ENDBRANCH   2  16
TORSDOF 3
ENDMDL
