MODEL 1
REMARK VINA RESULT:      -8.7      0.000      0.000
REMARK  6 active torsions:
REMARK  status: ('A' for Active; 'I' for Inactive)
REMARK    1  A    between atoms: O_2  and  C_3 
REMARK    2  A    between atoms: C_5  and  O_6 
REMARK    3  A    between atoms: C_8  and  N_9 
REMARK       I    between atoms: N_9  and  C_10 
REMARK    4  A    between atoms: C_10  and  C_11 
REMARK    5  A    between atoms: C_11  and  N_12 
REMARK    6  A    between atoms: C_17  and  C_18 
ROOT
HETATM    1  N   UNL     1      43.543 -16.582   6.717  1.00  0.00    -0.326 N 
HETATM    2  C   UNL     1      43.584 -17.376   7.859  1.00  0.00     0.255 C 
HETATM    3  O   UNL     1      43.625 -17.011   9.019  1.00  0.00    -0.267 OA
HETATM    4  C   UNL     1      43.661 -18.775   7.422  1.00  0.00     0.040 A 
HETATM    5  C   UNL     1      43.741 -18.792   6.031  1.00  0.00    -0.015 A 
HETATM    6  C   UNL     1      43.758 -17.385   5.522  1.00  0.00     0.158 C 
HETATM    7  C   UNL     1      43.739 -19.922   8.190  1.00  0.00     0.017 A 
HETATM    8  C   UNL     1      43.890 -21.137   7.518  1.00  0.00     0.001 A 
HETATM    9  C   UNL     1      43.960 -21.173   6.112  1.00  0.00     0.001 A 
HETATM   10  C   UNL     1      43.891 -19.996   5.358  1.00  0.00     0.011 A 
ENDROOT
BRANCH   1  11
HETATM   11  C   UNL     1      44.046 -15.220   6.773  1.00  0.00     0.230 C 
BRANCH  11  12
HETATM   12  C   UNL     1      43.346 -14.172   5.904  1.00  0.00     0.240 C 
HETATM   13  N   UNL     1      42.129 -13.735   6.393  1.00  0.00    -0.323 N 
HETATM   14  H   UNL     1      41.856 -14.063   7.316  1.00  0.00     0.169 HD
HETATM   15  O   UNL     1      43.794 -13.941   4.781  1.00  0.00    -0.271 OA
BRANCH  13  16
HETATM   16  C   UNL     1      41.157 -12.961   5.709  1.00  0.00     0.068 A 
HETATM   17  C   UNL     1      40.906 -11.646   6.156  1.00  0.00     0.097 A 
HETATM   18  C   UNL     1      39.887 -10.882   5.561  1.00  0.00     0.075 A 
HETATM   19  C   UNL     1      39.137 -11.401   4.505  1.00  0.00     0.070 A 
HETATM   20  C   UNL     1      39.428 -12.674   4.026  1.00  0.00     0.039 A 
HETATM   21  C   UNL     1      40.423 -13.450   4.625  1.00  0.00     0.035 A 
BRANCH  17  22
HETATM   22  O   UNL     1      41.690 -11.203   7.199  1.00  0.00    -0.354 OA
HETATM   23  C   UNL     1      41.013 -10.569   8.278  1.00  0.00     0.210 C 
ENDBRANCH  17  22
BRANCH  19  24
HETATM   24  O   UNL     1      38.118 -10.765   3.852  1.00  0.00    -0.356 OA
HETATM   25  C   UNL     1      38.006 -10.996   2.454  1.00  0.00     0.210 C 
ENDBRANCH  19  24
ENDBRANCH  13  16
ENDBRANCH  11  12
ENDBRANCH   1  11
BRANCH   6  26
HETATM   26  C   UNL     1      42.623 -17.199   4.574  1.00  0.00    -0.003 A 
HETATM   27  C   UNL     1      42.727 -17.180   3.142  1.00  0.00     0.001 A 
HETATM   28  C   UNL     1      41.460 -16.899   2.630  1.00  0.00     0.043 A 
HETATM   29  C   UNL     1      43.791 -17.355   2.232  1.00  0.00     0.014 A 
HETATM   30  C   UNL     1      41.205 -16.772   1.260  1.00  0.00     0.030 A 
HETATM   31  N   UNL     1      40.608 -16.782   3.700  1.00  0.00    -0.365 N 
HETATM   32  C   UNL     1      42.278 -16.945   0.382  1.00  0.00     0.002 A 
HETATM   33  C   UNL     1      43.553 -17.238   0.858  1.00  0.00     0.001 A 
HETATM   34  H   UNL     1      39.622 -16.574   3.626  1.00  0.00     0.165 HD
HETATM   35  C   UNL     1      41.290 -16.958   4.871  1.00  0.00     0.099 A 
ENDBRANCH   6  26
TORSDOF 6
ENDMDL
MODEL 2
REMARK VINA RESULT:      -8.6      3.785      6.531
REMARK  6 active torsions:
REMARK  status: ('A' for Active; 'I' for Inactive)
REMARK    1  A    between atoms: O_2  and  C_3 
REMARK    2  A    between atoms: C_5  and  O_6 
REMARK    3  A    between atoms: C_8  and  N_9 
REMARK       I    between atoms: N_9  and  C_10 
REMARK    4  A    between atoms: C_10  and  C_11 
REMARK    5  A    between atoms: C_11  and  N_12 
REMARK    6  A    between atoms: C_17  and  C_18 
ROOT
HETATM    1  N   UNL     1      41.808 -17.184   2.587  1.00  0.00    -0.326 N 
HETATM    2  C   UNL     1      42.646 -18.277   2.393  1.00  0.00     0.255 C 
HETATM    3  O   UNL     1      42.743 -18.975   1.402  1.00  0.00    -0.267 OA
HETATM    4  C   UNL     1      43.358 -18.517   3.654  1.00  0.00     0.040 A 
HETATM    5  C   UNL     1      42.881 -17.613   4.602  1.00  0.00    -0.015 A 
HETATM    6  C   UNL     1      41.804 -16.777   3.985  1.00  0.00     0.158 C 
HETATM    7  C   UNL     1      44.281 -19.501   3.957  1.00  0.00     0.017 A 
HETATM    8  C   UNL     1      44.750 -19.560   5.271  1.00  0.00     0.001 A 
HETATM    9  C   UNL     1      44.287 -18.647   6.237  1.00  0.00     0.001 A 
HETATM   10  C   UNL     1      43.342 -17.668   5.909  1.00  0.00     0.011 A 
ENDROOT
BRANCH   1  11
HETATM   11  C   UNL     1      40.596 -17.060   1.794  1.00  0.00     0.230 C 
BRANCH  11  12
HETATM   12  C   UNL     1      40.451 -15.816   0.914  1.00  0.00     0.240 C 
HETATM   13  N   UNL     1      41.072 -15.905  -0.319  1.00  0.00    -0.323 N 
HETATM   14  H   UNL     1      41.475 -16.803  -0.570  1.00  0.00     0.169 HD
HETATM   15  O   UNL     1      39.984 -14.791   1.411  1.00  0.00    -0.271 OA
BRANCH  13  16
HETATM   16  C   UNL     1      41.308 -14.850  -1.237  1.00  0.00     0.068 A 
HETATM   17  C   UNL     1      40.916 -15.028  -2.582  1.00  0.00     0.097 A 
HETATM   18  C   UNL     1      41.216 -14.044  -3.539  1.00  0.00     0.075 A 
HETATM   19  C   UNL     1      41.875 -12.871  -3.167  1.00  0.00     0.070 A 
HETATM   20  C   UNL     1      42.205 -12.672  -1.831  1.00  0.00     0.039 A 
HETATM   21  C   UNL     1      41.932 -13.653  -0.876  1.00  0.00     0.035 A 
BRANCH  17  22
HETATM   22  O   UNL     1      40.266 -16.208  -2.871  1.00  0.00    -0.354 OA
HETATM   23  C   UNL     1      39.285 -16.158  -3.901  1.00  0.00     0.210 C 
ENDBRANCH  17  22
BRANCH  19  24
HETATM   24  O   UNL     1      42.230 -11.847  -4.002  1.00  0.00    -0.356 OA
HETATM   25  C   UNL     1      42.376 -10.560  -3.416  1.00  0.00     0.210 C 
ENDBRANCH  19  24
ENDBRANCH  13  16
ENDBRANCH  11  12
ENDBRANCH   1  11
BRANCH   6  26
HETATM   26  C   UNL     1      42.182 -15.340   4.097  1.00  0.00    -0.003 A 
HETATM   27  C   UNL     1      41.442 -14.336   4.808  1.00  0.00     0.001 A 
HETATM   28  C   UNL     1      42.081 -13.114   4.601  1.00  0.00     0.043 A 
HETATM   29  C   UNL     1      40.270 -14.352   5.595  1.00  0.00     0.014 A 
HETATM   30  C   UNL     1      41.604 -11.907   5.126  1.00  0.00     0.030 A 
HETATM   31  N   UNL     1      43.185 -13.361   3.822  1.00  0.00    -0.365 N 
HETATM   32  C   UNL     1      40.439 -11.952   5.897  1.00  0.00     0.002 A 
HETATM   33  C   UNL     1      39.783 -13.156   6.133  1.00  0.00     0.001 A 
HETATM   34  H   UNL     1      43.834 -12.653   3.509  1.00  0.00     0.165 HD
HETATM   35  C   UNL     1      43.258 -14.689   3.512  1.00  0.00     0.099 A 
ENDBRANCH   6  26
TORSDOF 6
ENDMDL
MODEL 3
REMARK VINA RESULT:      -8.3      4.590      8.793
REMARK  6 active torsions:
REMARK  status: ('A' for Active; 'I' for Inactive)
REMARK    1  A    between atoms: O_2  and  C_3 
REMARK    2  A    between atoms: C_5  and  O_6 
REMARK    3  A    between atoms: C_8  and  N_9 
REMARK       I    between atoms: N_9  and  C_10 
REMARK    4  A    between atoms: C_10  and  C_11 
REMARK    5  A    between atoms: C_11  and  N_12 
REMARK    6  A    between atoms: C_17  and  C_18 
ROOT
HETATM    1  N   UNL     1      40.903 -13.309   0.538  1.00  0.00    -0.326 N 
HETATM    2  C   UNL     1      42.051 -12.553   0.755  1.00  0.00     0.255 C 
HETATM    3  O   UNL     1      42.800 -12.596   1.712  1.00  0.00    -0.267 OA
HETATM    4  C   UNL     1      42.168 -11.599  -0.354  1.00  0.00     0.040 A 
HETATM    5  C   UNL     1      41.052 -11.748  -1.176  1.00  0.00    -0.015 A 
HETATM    6  C   UNL     1      40.148 -12.788  -0.593  1.00  0.00     0.158 C 
HETATM    7  C   UNL     1      43.131 -10.631  -0.569  1.00  0.00     0.017 A 
HETATM    8  C   UNL     1      42.962  -9.789  -1.670  1.00  0.00     0.001 A 
HETATM    9  C   UNL     1      41.846  -9.934  -2.517  1.00  0.00     0.001 A 
HETATM   10  C   UNL     1      40.879 -10.913  -2.271  1.00  0.00     0.011 A 
ENDROOT
BRANCH   1  11
HETATM   11  C   UNL     1      40.201 -13.887   1.671  1.00  0.00     0.230 C 
BRANCH  11  12
HETATM   12  C   UNL     1      40.550 -15.327   2.058  1.00  0.00     0.240 C 
HETATM   13  N   UNL     1      41.891 -15.548   2.315  1.00  0.00    -0.323 N 
HETATM   14  H   UNL     1      42.500 -14.734   2.324  1.00  0.00     0.169 HD
HETATM   15  O   UNL     1      39.691 -16.199   1.929  1.00  0.00    -0.271 OA
BRANCH  13  16
HETATM   16  C   UNL     1      42.541 -16.799   2.463  1.00  0.00     0.068 A 
HETATM   17  C   UNL     1      42.748 -17.300   3.766  1.00  0.00     0.097 A 
HETATM   18  C   UNL     1      43.470 -18.492   3.957  1.00  0.00     0.075 A 
HETATM   19  C   UNL     1      43.959 -19.206   2.862  1.00  0.00     0.070 A 
HETATM   20  C   UNL     1      43.700 -18.742   1.577  1.00  0.00     0.039 A 
HETATM   21  C   UNL     1      43.004 -17.548   1.378  1.00  0.00     0.035 A 
BRANCH  17  22
HETATM   22  O   UNL     1      42.232 -16.542   4.795  1.00  0.00    -0.354 OA
HETATM   23  C   UNL     1      41.133 -17.101   5.506  1.00  0.00     0.210 C 
ENDBRANCH  17  22
BRANCH  19  24
HETATM   24  O   UNL     1      44.680 -20.367   2.915  1.00  0.00    -0.356 OA
HETATM   25  C   UNL     1      44.197 -21.460   2.146  1.00  0.00     0.210 C 
ENDBRANCH  19  24
ENDBRANCH  13  16
ENDBRANCH  11  12
ENDBRANCH   1  11
BRANCH   6  26
HETATM   26  C   UNL     1      39.936 -13.865  -1.601  1.00  0.00    -0.003 A 
HETATM   27  C   UNL     1      38.848 -13.930  -2.536  1.00  0.00     0.001 A 
HETATM   28  C   UNL     1      38.968 -15.127  -3.241  1.00  0.00     0.043 A 
HETATM   29  C   UNL     1      37.757 -13.086  -2.834  1.00  0.00     0.014 A 
HETATM   30  C   UNL     1      38.048 -15.531  -4.216  1.00  0.00     0.030 A 
HETATM   31  N   UNL     1      40.098 -15.757  -2.781  1.00  0.00    -0.365 N 
HETATM   32  C   UNL     1      36.975 -14.679  -4.486  1.00  0.00     0.002 A 
HETATM   33  C   UNL     1      36.832 -13.470  -3.810  1.00  0.00     0.001 A 
HETATM   34  H   UNL     1      40.429 -16.653  -3.112  1.00  0.00     0.165 HD
HETATM   35  C   UNL     1      40.688 -15.014  -1.799  1.00  0.00     0.099 A 
ENDBRANCH   6  26
TORSDOF 6
ENDMDL
MODEL 4
REMARK VINA RESULT:      -8.3      1.992      2.948
REMARK  6 active torsions:
REMARK  status: ('A' for Active; 'I' for Inactive)
REMARK    1  A    between atoms: O_2  and  C_3 
REMARK    2  A    between atoms: C_5  and  O_6 
REMARK    3  A    between atoms: C_8  and  N_9 
REMARK       I    between atoms: N_9  and  C_10 
REMARK    4  A    between atoms: C_10  and  C_11 
REMARK    5  A    between atoms: C_11  and  N_12 
REMARK    6  A    between atoms: C_17  and  C_18 
ROOT
HETATM    1  N   UNL     1      42.947 -16.238   4.762  1.00  0.00    -0.326 N 
HETATM    2  C   UNL     1      43.498 -17.340   5.409  1.00  0.00     0.255 C 
HETATM    3  O   UNL     1      43.764 -17.455   6.590  1.00  0.00    -0.267 OA
HETATM    4  C   UNL     1      43.800 -18.348   4.384  1.00  0.00     0.040 A 
HETATM    5  C   UNL     1      43.495 -17.805   3.137  1.00  0.00    -0.015 A 
HETATM    6  C   UNL     1      43.018 -16.398   3.317  1.00  0.00     0.158 C 
HETATM    7  C   UNL     1      44.371 -19.598   4.537  1.00  0.00     0.017 A 
HETATM    8  C   UNL     1      44.631 -20.332   3.378  1.00  0.00     0.001 A 
HETATM    9  C   UNL     1      44.318 -19.803   2.111  1.00  0.00     0.001 A 
HETATM   10  C   UNL     1      43.752 -18.530   1.983  1.00  0.00     0.011 A 
ENDROOT
BRANCH   1  11
HETATM   11  C   UNL     1      43.088 -14.917   5.352  1.00  0.00     0.230 C 
BRANCH  11  12
HETATM   12  C   UNL     1      41.827 -14.059   5.472  1.00  0.00     0.240 C 
HETATM   13  N   UNL     1      42.036 -12.699   5.332  1.00  0.00    -0.323 N 
HETATM   14  H   UNL     1      42.971 -12.401   5.066  1.00  0.00     0.169 HD
HETATM   15  O   UNL     1      40.787 -14.589   5.865  1.00  0.00    -0.271 OA
BRANCH  13  16
HETATM   16  C   UNL     1      41.121 -11.656   5.622  1.00  0.00     0.068 A 
HETATM   17  C   UNL     1      41.300 -10.915   6.810  1.00  0.00     0.097 A 
HETATM   18  C   UNL     1      40.361  -9.935   7.178  1.00  0.00     0.075 A 
HETATM   19  C   UNL     1      39.264  -9.662   6.359  1.00  0.00     0.070 A 
HETATM   20  C   UNL     1      39.124 -10.351   5.158  1.00  0.00     0.039 A 
HETATM   21  C   UNL     1      40.039 -11.342   4.795  1.00  0.00     0.035 A 
BRANCH  17  22
HETATM   22  O   UNL     1      42.408 -11.238   7.563  1.00  0.00    -0.354 OA
HETATM   23  C   UNL     1      42.489 -10.652   8.858  1.00  0.00     0.210 C 
ENDBRANCH  17  22
BRANCH  19  24
HETATM   24  O   UNL     1      38.281  -8.745   6.608  1.00  0.00    -0.356 OA
HETATM   25  C   UNL     1      37.771  -8.029   5.491  1.00  0.00     0.210 C 
ENDBRANCH  19  24
ENDBRANCH  13  16
ENDBRANCH  11  12
ENDBRANCH   1  11
BRANCH   6  26
HETATM   26  C   UNL     1      41.658 -16.268   2.724  1.00  0.00    -0.003 A 
HETATM   27  C   UNL     1      41.124 -15.084   2.111  1.00  0.00     0.001 A 
HETATM   28  C   UNL     1      39.801 -15.348   1.761  1.00  0.00     0.043 A 
HETATM   29  C   UNL     1      41.642 -13.799   1.841  1.00  0.00     0.014 A 
HETATM   30  C   UNL     1      38.965 -14.394   1.169  1.00  0.00     0.030 A 
HETATM   31  N   UNL     1      39.541 -16.650   2.114  1.00  0.00    -0.365 N 
HETATM   32  C   UNL     1      39.503 -13.129   0.918  1.00  0.00     0.002 A 
HETATM   33  C   UNL     1      40.823 -12.835   1.244  1.00  0.00     0.001 A 
HETATM   34  H   UNL     1      38.652 -17.112   1.982  1.00  0.00     0.165 HD
HETATM   35  C   UNL     1      40.643 -17.213   2.692  1.00  0.00     0.099 A 
ENDBRANCH   6  26
TORSDOF 6
ENDMDL
MODEL 5
REMARK VINA RESULT:      -8.2      3.623      8.470
REMARK  6 active torsions:
REMARK  status: ('A' for Active; 'I' for Inactive)
REMARK    1  A    between atoms: O_2  and  C_3 
REMARK    2  A    between atoms: C_5  and  O_6 
REMARK    3  A    between atoms: C_8  and  N_9 
REMARK       I    between atoms: N_9  and  C_10 
REMARK    4  A    between atoms: C_10  and  C_11 
REMARK    5  A    between atoms: C_11  and  N_12 
REMARK    6  A    between atoms: C_17  and  C_18 
ROOT
HETATM    1  N   UNL     1      41.152 -15.325  -0.587  1.00  0.00    -0.326 N 
HETATM    2  C   UNL     1      41.012 -15.148  -1.960  1.00  0.00     0.255 C 
HETATM    3  O   UNL     1      40.651 -15.967  -2.784  1.00  0.00    -0.267 OA
HETATM    4  C   UNL     1      41.474 -13.791  -2.280  1.00  0.00     0.040 A 
HETATM    5  C   UNL     1      41.950 -13.207  -1.108  1.00  0.00    -0.015 A 
HETATM    6  C   UNL     1      41.846 -14.194   0.012  1.00  0.00     0.158 C 
HETATM    7  C   UNL     1      41.544 -13.165  -3.510  1.00  0.00     0.017 A 
HETATM    8  C   UNL     1      42.107 -11.887  -3.550  1.00  0.00     0.001 A 
HETATM    9  C   UNL     1      42.581 -11.278  -2.373  1.00  0.00     0.001 A 
HETATM   10  C   UNL     1      42.511 -11.938  -1.142  1.00  0.00     0.011 A 
ENDROOT
BRANCH   1  11
HETATM   11  C   UNL     1      41.352 -16.662  -0.054  1.00  0.00     0.230 C 
BRANCH  11  12
HETATM   12  C   UNL     1      41.323 -16.827   1.468  1.00  0.00     0.240 C 
HETATM   13  N   UNL     1      42.562 -17.015   2.053  1.00  0.00    -0.323 N 
HETATM   14  H   UNL     1      43.376 -16.928   1.450  1.00  0.00     0.169 HD
HETATM   15  O   UNL     1      40.235 -16.975   2.026  1.00  0.00    -0.271 OA
BRANCH  13  16
HETATM   16  C   UNL     1      42.828 -17.425   3.384  1.00  0.00     0.068 A 
HETATM   17  C   UNL     1      43.629 -18.569   3.588  1.00  0.00     0.097 A 
HETATM   18  C   UNL     1      43.839 -19.059   4.889  1.00  0.00     0.075 A 
HETATM   19  C   UNL     1      43.288 -18.403   5.991  1.00  0.00     0.070 A 
HETATM   20  C   UNL     1      42.551 -17.240   5.791  1.00  0.00     0.039 A 
HETATM   21  C   UNL     1      42.317 -16.758   4.501  1.00  0.00     0.035 A 
BRANCH  17  22
HETATM   22  O   UNL     1      44.142 -19.159   2.453  1.00  0.00    -0.354 OA
HETATM   23  C   UNL     1      44.077 -20.579   2.391  1.00  0.00     0.210 C 
ENDBRANCH  17  22
BRANCH  19  24
HETATM   24  O   UNL     1      43.410 -18.783   7.299  1.00  0.00    -0.356 OA
HETATM   25  C   UNL     1      43.523 -17.744   8.263  1.00  0.00     0.210 C 
ENDBRANCH  19  24
ENDBRANCH  13  16
ENDBRANCH  11  12
ENDBRANCH   1  11
BRANCH   6  26
HETATM   26  C   UNL     1      41.016 -13.607   1.101  1.00  0.00    -0.003 A 
HETATM   27  C   UNL     1      41.469 -13.322   2.434  1.00  0.00     0.001 A 
HETATM   28  C   UNL     1      40.374 -12.861   3.163  1.00  0.00     0.043 A 
HETATM   29  C   UNL     1      42.712 -13.433   3.094  1.00  0.00     0.014 A 
HETATM   30  C   UNL     1      40.451 -12.521   4.518  1.00  0.00     0.030 A 
HETATM   31  N   UNL     1      39.300 -12.835   2.307  1.00  0.00    -0.365 N 
HETATM   32  C   UNL     1      41.692 -12.646   5.148  1.00  0.00     0.002 A 
HETATM   33  C   UNL     1      42.809 -13.091   4.446  1.00  0.00     0.001 A 
HETATM   34  H   UNL     1      38.367 -12.547   2.568  1.00  0.00     0.165 HD
HETATM   35  C   UNL     1      39.669 -13.279   1.069  1.00  0.00     0.099 A 
ENDBRANCH   6  26
TORSDOF 6
ENDMDL
MODEL 6
REMARK VINA RESULT:      -8.2      2.925      5.313
REMARK  6 active torsions:
REMARK  status: ('A' for Active; 'I' for Inactive)
REMARK    1  A    between atoms: O_2  and  C_3 
REMARK    2  A    between atoms: C_5  and  O_6 
REMARK    3  A    between atoms: C_8  and  N_9 
REMARK       I    between atoms: N_9  and  C_10 
REMARK    4  A    between atoms: C_10  and  C_11 
REMARK    5  A    between atoms: C_11  and  N_12 
REMARK    6  A    between atoms: C_17  and  C_18 
ROOT
HETATM    1  N   UNL     1      42.989 -17.588   2.837  1.00  0.00    -0.326 N 
HETATM    2  C   UNL     1      43.829 -18.588   3.317  1.00  0.00     0.255 C 
HETATM    3  O   UNL     1      44.442 -19.419   2.673  1.00  0.00    -0.267 OA
HETATM    4  C   UNL     1      43.787 -18.535   4.783  1.00  0.00     0.040 A 
HETATM    5  C   UNL     1      42.868 -17.556   5.157  1.00  0.00    -0.015 A 
HETATM    6  C   UNL     1      42.250 -16.967   3.927  1.00  0.00     0.158 C 
HETATM    7  C   UNL     1      44.439 -19.337   5.701  1.00  0.00     0.017 A 
HETATM    8  C   UNL     1      44.157 -19.128   7.053  1.00  0.00     0.001 A 
HETATM    9  C   UNL     1      43.240 -18.136   7.447  1.00  0.00     0.001 A 
HETATM   10  C   UNL     1      42.583 -17.345   6.498  1.00  0.00     0.011 A 
ENDROOT
BRANCH   1  11
HETATM   11  C   UNL     1      42.364 -17.742   1.535  1.00  0.00     0.230 C 
BRANCH  11  12
HETATM   12  C   UNL     1      41.081 -16.949   1.268  1.00  0.00     0.240 C 
HETATM   13  N   UNL     1      41.273 -15.736   0.632  1.00  0.00    -0.323 N 
HETATM   14  H   UNL     1      42.214 -15.525   0.313  1.00  0.00     0.169 HD
HETATM   15  O   UNL     1      40.032 -17.330   1.789  1.00  0.00    -0.271 OA
BRANCH  13  16
HETATM   16  C   UNL     1      40.324 -14.695   0.468  1.00  0.00     0.068 A 
HETATM   17  C   UNL     1      39.991 -14.290  -0.843  1.00  0.00     0.097 A 
HETATM   18  C   UNL     1      39.125 -13.201  -1.045  1.00  0.00     0.075 A 
HETATM   19  C   UNL     1      38.562 -12.532   0.044  1.00  0.00     0.070 A 
HETATM   20  C   UNL     1      38.843 -12.974   1.332  1.00  0.00     0.039 A 
HETATM   21  C   UNL     1      39.720 -14.040   1.544  1.00  0.00     0.035 A 
BRANCH  17  22
HETATM   22  O   UNL     1      40.582 -15.000  -1.864  1.00  0.00    -0.354 OA
HETATM   23  C   UNL     1      41.299 -14.243  -2.833  1.00  0.00     0.210 C 
ENDBRANCH  17  22
BRANCH  19  24
HETATM   24  O   UNL     1      37.717 -11.459  -0.020  1.00  0.00    -0.356 OA
HETATM   25  C   UNL     1      36.915 -11.202   1.126  1.00  0.00     0.210 C 
ENDBRANCH  19  24
ENDBRANCH  13  16
ENDBRANCH  11  12
ENDBRANCH   1  11
BRANCH   6  26
HETATM   26  C   UNL     1      42.484 -15.495   3.925  1.00  0.00    -0.003 A 
HETATM   27  C   UNL     1      41.605 -14.510   4.489  1.00  0.00     0.001 A 
HETATM   28  C   UNL     1      42.141 -13.254   4.208  1.00  0.00     0.043 A 
HETATM   29  C   UNL     1      40.386 -14.572   5.198  1.00  0.00     0.014 A 
HETATM   30  C   UNL     1      41.517 -12.059   4.584  1.00  0.00     0.030 A 
HETATM   31  N   UNL     1      43.316 -13.459   3.527  1.00  0.00    -0.365 N 
HETATM   32  C   UNL     1      40.309 -12.150   5.279  1.00  0.00     0.002 A 
HETATM   33  C   UNL     1      39.752 -13.388   5.588  1.00  0.00     0.001 A 
HETATM   34  H   UNL     1      43.918 -12.720   3.189  1.00  0.00     0.165 HD
HETATM   35  C   UNL     1      43.535 -14.796   3.350  1.00  0.00     0.099 A 
ENDBRANCH   6  26
TORSDOF 6
ENDMDL
MODEL 7
REMARK VINA RESULT:      -8.1      3.776      6.661
REMARK  6 active torsions:
REMARK  status: ('A' for Active; 'I' for Inactive)
REMARK    1  A    between atoms: O_2  and  C_3 
REMARK    2  A    between atoms: C_5  and  O_6 
REMARK    3  A    between atoms: C_8  and  N_9 
REMARK       I    between atoms: N_9  and  C_10 
REMARK    4  A    between atoms: C_10  and  C_11 
REMARK    5  A    between atoms: C_11  and  N_12 
REMARK    6  A    between atoms: C_17  and  C_18 
ROOT
HETATM    1  N   UNL     1      40.916 -16.078   2.358  1.00  0.00    -0.326 N 
HETATM    2  C   UNL     1      41.518 -16.941   1.447  1.00  0.00     0.255 C 
HETATM    3  O   UNL     1      41.254 -17.081   0.268  1.00  0.00    -0.267 OA
HETATM    4  C   UNL     1      42.496 -17.750   2.184  1.00  0.00     0.040 A 
HETATM    5  C   UNL     1      42.413 -17.410   3.533  1.00  0.00    -0.015 A 
HETATM    6  C   UNL     1      41.335 -16.388   3.717  1.00  0.00     0.158 C 
HETATM    7  C   UNL     1      43.325 -18.753   1.716  1.00  0.00     0.017 A 
HETATM    8  C   UNL     1      44.109 -19.429   2.652  1.00  0.00     0.001 A 
HETATM    9  C   UNL     1      44.045 -19.090   4.017  1.00  0.00     0.001 A 
HETATM   10  C   UNL     1      43.190 -18.079   4.468  1.00  0.00     0.011 A 
ENDROOT
BRANCH   1  11
HETATM   11  C   UNL     1      39.567 -15.599   2.108  1.00  0.00     0.230 C 
BRANCH  11  12
HETATM   12  C   UNL     1      39.410 -14.357   1.227  1.00  0.00     0.240 C 
HETATM   13  N   UNL     1      38.878 -14.600  -0.027  1.00  0.00    -0.323 N 
HETATM   14  H   UNL     1      38.550 -15.544  -0.214  1.00  0.00     0.169 HD
HETATM   15  O   UNL     1      39.926 -13.302   1.596  1.00  0.00    -0.271 OA
BRANCH  13  16
HETATM   16  C   UNL     1      38.834 -13.707  -1.127  1.00  0.00     0.068 A 
HETATM   17  C   UNL     1      39.805 -13.842  -2.143  1.00  0.00     0.097 A 
HETATM   18  C   UNL     1      39.849 -12.920  -3.202  1.00  0.00     0.075 A 
HETATM   19  C   UNL     1      38.918 -11.882  -3.278  1.00  0.00     0.070 A 
HETATM   20  C   UNL     1      37.925 -11.788  -2.309  1.00  0.00     0.039 A 
HETATM   21  C   UNL     1      37.886 -12.687  -1.240  1.00  0.00     0.035 A 
BRANCH  17  22
HETATM   22  O   UNL     1      40.686 -14.892  -2.001  1.00  0.00    -0.354 OA
HETATM   23  C   UNL     1      40.688 -15.865  -3.040  1.00  0.00     0.210 C 
ENDBRANCH  17  22
BRANCH  19  24
HETATM   24  O   UNL     1      38.862 -10.920  -4.248  1.00  0.00    -0.356 OA
HETATM   25  C   UNL     1      40.080 -10.598  -4.906  1.00  0.00     0.210 C 
ENDBRANCH  19  24
ENDBRANCH  13  16
ENDBRANCH  11  12
ENDBRANCH   1  11
BRANCH   6  26
HETATM   26  C   UNL     1      41.921 -15.176   4.356  1.00  0.00    -0.003 A 
HETATM   27  C   UNL     1      41.189 -14.186   5.096  1.00  0.00     0.001 A 
HETATM   28  C   UNL     1      42.084 -13.178   5.454  1.00  0.00     0.043 A 
HETATM   29  C   UNL     1      39.837 -14.045   5.476  1.00  0.00     0.014 A 
HETATM   30  C   UNL     1      41.696 -12.033   6.159  1.00  0.00     0.030 A 
HETATM   31  N   UNL     1      43.319 -13.547   4.982  1.00  0.00    -0.365 N 
HETATM   32  C   UNL     1      40.351 -11.917   6.517  1.00  0.00     0.002 A 
HETATM   33  C   UNL     1      39.433 -12.910   6.187  1.00  0.00     0.001 A 
HETATM   34  H   UNL     1      44.161 -12.999   5.093  1.00  0.00     0.165 HD
HETATM   35  C   UNL     1      43.238 -14.741   4.323  1.00  0.00     0.099 A 
ENDBRANCH   6  26
TORSDOF 6
ENDMDL
MODEL 8
REMARK VINA RESULT:      -8.0      3.239      8.073
REMARK  6 active torsions:
REMARK  status: ('A' for Active; 'I' for Inactive)
REMARK    1  A    between atoms: O_2  and  C_3 
REMARK    2  A    between atoms: C_5  and  O_6 
REMARK    3  A    between atoms: C_8  and  N_9 
REMARK       I    between atoms: N_9  and  C_10 
REMARK    4  A    between atoms: C_10  and  C_11 
REMARK    5  A    between atoms: C_11  and  N_12 
REMARK    6  A    between atoms: C_17  and  C_18 
ROOT
HETATM    1  N   UNL     1      40.440 -13.135   2.771  1.00  0.00    -0.326 N 
HETATM    2  C   UNL     1      39.746 -12.006   3.196  1.00  0.00     0.255 C 
HETATM    3  O   UNL     1      39.962 -11.326   4.180  1.00  0.00    -0.267 OA
HETATM    4  C   UNL     1      38.615 -11.813   2.279  1.00  0.00     0.040 A 
HETATM    5  C   UNL     1      38.607 -12.868   1.369  1.00  0.00    -0.015 A 
HETATM    6  C   UNL     1      39.723 -13.809   1.698  1.00  0.00     0.158 C 
HETATM    7  C   UNL     1      37.635 -10.838   2.303  1.00  0.00     0.017 A 
HETATM    8  C   UNL     1      36.613 -10.930   1.355  1.00  0.00     0.001 A 
HETATM    9  C   UNL     1      36.598 -11.984   0.421  1.00  0.00     0.001 A 
HETATM   10  C   UNL     1      37.595 -12.965   0.426  1.00  0.00     0.011 A 
ENDROOT
BRANCH   1  11
HETATM   11  C   UNL     1      41.198 -13.914   3.736  1.00  0.00     0.230 C 
BRANCH  11  12
HETATM   12  C   UNL     1      42.145 -14.986   3.190  1.00  0.00     0.240 C 
HETATM   13  N   UNL     1      41.715 -16.287   3.377  1.00  0.00    -0.323 N 
HETATM   14  H   UNL     1      40.782 -16.415   3.761  1.00  0.00     0.169 HD
HETATM   15  O   UNL     1      43.268 -14.648   2.815  1.00  0.00    -0.271 OA
BRANCH  13  16
HETATM   16  C   UNL     1      42.469 -17.474   3.196  1.00  0.00     0.068 A 
HETATM   17  C   UNL     1      43.102 -18.048   4.320  1.00  0.00     0.097 A 
HETATM   18  C   UNL     1      43.932 -19.171   4.165  1.00  0.00     0.075 A 
HETATM   19  C   UNL     1      44.113 -19.750   2.907  1.00  0.00     0.070 A 
HETATM   20  C   UNL     1      43.439 -19.219   1.811  1.00  0.00     0.039 A 
HETATM   21  C   UNL     1      42.630 -18.090   1.952  1.00  0.00     0.035 A 
BRANCH  17  22
HETATM   22  O   UNL     1      42.871 -17.424   5.527  1.00  0.00    -0.354 OA
HETATM   23  C   UNL     1      44.018 -16.969   6.236  1.00  0.00     0.210 C 
ENDBRANCH  17  22
BRANCH  19  24
HETATM   24  O   UNL     1      44.899 -20.833   2.624  1.00  0.00    -0.356 OA
HETATM   25  C   UNL     1      44.297 -21.890   1.888  1.00  0.00     0.210 C 
ENDBRANCH  19  24
ENDBRANCH  13  16
ENDBRANCH  11  12
ENDBRANCH   1  11
BRANCH   6  26
HETATM   26  C   UNL     1      40.607 -13.949   0.507  1.00  0.00    -0.003 A 
HETATM   27  C   UNL     1      41.383 -12.895  -0.084  1.00  0.00     0.001 A 
HETATM   28  C   UNL     1      42.002 -13.412  -1.222  1.00  0.00     0.043 A 
HETATM   29  C   UNL     1      41.599 -11.537   0.235  1.00  0.00     0.014 A 
HETATM   30  C   UNL     1      42.813 -12.642  -2.063  1.00  0.00     0.030 A 
HETATM   31  N   UNL     1      41.647 -14.736  -1.309  1.00  0.00    -0.365 N 
HETATM   32  C   UNL     1      43.004 -11.299  -1.727  1.00  0.00     0.002 A 
HETATM   33  C   UNL     1      42.412 -10.753  -0.592  1.00  0.00     0.001 A 
HETATM   34  H   UNL     1      41.948 -15.361  -2.044  1.00  0.00     0.165 HD
HETATM   35  C   UNL     1      40.812 -15.072  -0.281  1.00  0.00     0.099 A 
ENDBRANCH   6  26
TORSDOF 6
ENDMDL
MODEL 9
REMARK VINA RESULT:      -8.0      3.048      4.565
REMARK  6 active torsions:
REMARK  status: ('A' for Active; 'I' for Inactive)
REMARK    1  A    between atoms: O_2  and  C_3 
REMARK    2  A    between atoms: C_5  and  O_6 
REMARK    3  A    between atoms: C_8  and  N_9 
REMARK       I    between atoms: N_9  and  C_10 
REMARK    4  A    between atoms: C_10  and  C_11 
REMARK    5  A    between atoms: C_11  and  N_12 
REMARK    6  A    between atoms: C_17  and  C_18 
ROOT
HETATM    1  N   UNL     1      43.273 -15.861   3.867  1.00  0.00    -0.326 N 
HETATM    2  C   UNL     1      42.841 -15.405   5.108  1.00  0.00     0.255 C 
HETATM    3  O   UNL     1      42.374 -14.315   5.380  1.00  0.00    -0.267 OA
HETATM    4  C   UNL     1      43.132 -16.456   6.091  1.00  0.00     0.040 A 
HETATM    5  C   UNL     1      43.798 -17.490   5.436  1.00  0.00    -0.015 A 
HETATM    6  C   UNL     1      43.997 -17.117   4.001  1.00  0.00     0.158 C 
HETATM    7  C   UNL     1      42.903 -16.459   7.454  1.00  0.00     0.017 A 
HETATM    8  C   UNL     1      43.356 -17.562   8.180  1.00  0.00     0.001 A 
HETATM    9  C   UNL     1      44.021 -18.621   7.532  1.00  0.00     0.001 A 
HETATM   10  C   UNL     1      44.252 -18.589   6.153  1.00  0.00     0.011 A 
ENDROOT
BRANCH   1  11
HETATM   11  C   UNL     1      43.670 -14.902   2.850  1.00  0.00     0.230 C 
BRANCH  11  12
HETATM   12  C   UNL     1      42.556 -14.169   2.097  1.00  0.00     0.240 C 
HETATM   13  N   UNL     1      41.662 -14.994   1.438  1.00  0.00    -0.323 N 
HETATM   14  H   UNL     1      41.759 -15.994   1.590  1.00  0.00     0.169 HD
HETATM   15  O   UNL     1      42.636 -12.947   1.966  1.00  0.00    -0.271 OA
BRANCH  13  16
HETATM   16  C   UNL     1      40.686 -14.612   0.484  1.00  0.00     0.068 A 
HETATM   17  C   UNL     1      39.469 -14.067   0.947  1.00  0.00     0.097 A 
HETATM   18  C   UNL     1      38.442 -13.762   0.036  1.00  0.00     0.075 A 
HETATM   19  C   UNL     1      38.626 -13.963  -1.333  1.00  0.00     0.070 A 
HETATM   20  C   UNL     1      39.849 -14.443  -1.791  1.00  0.00     0.039 A 
HETATM   21  C   UNL     1      40.868 -14.770  -0.893  1.00  0.00     0.035 A 
BRANCH  17  22
HETATM   22  O   UNL     1      39.364 -13.893   2.309  1.00  0.00    -0.354 OA
HETATM   23  C   UNL     1      38.980 -12.598   2.757  1.00  0.00     0.210 C 
ENDBRANCH  17  22
BRANCH  19  24
HETATM   24  O   UNL     1      37.706 -13.717  -2.314  1.00  0.00    -0.356 OA
HETATM   25  C   UNL     1      37.802 -14.498  -3.498  1.00  0.00     0.210 C 
ENDBRANCH  19  24
ENDBRANCH  13  16
ENDBRANCH  11  12
ENDBRANCH   1  11
BRANCH   6  26
HETATM   26  C   UNL     1      43.371 -18.158   3.138  1.00  0.00    -0.003 A 
HETATM   27  C   UNL     1      43.873 -19.489   2.939  1.00  0.00     0.001 A 
HETATM   28  C   UNL     1      43.051 -20.115   2.003  1.00  0.00     0.043 A 
HETATM   29  C   UNL     1      44.969 -20.213   3.456  1.00  0.00     0.014 A 
HETATM   30  C   UNL     1      43.275 -21.420   1.547  1.00  0.00     0.030 A 
HETATM   31  N   UNL     1      42.067 -19.220   1.664  1.00  0.00    -0.365 N 
HETATM   32  C   UNL     1      44.370 -22.111   2.071  1.00  0.00     0.002 A 
HETATM   33  C   UNL     1      45.203 -21.520   3.016  1.00  0.00     0.001 A 
HETATM   34  H   UNL     1      41.331 -19.404   0.997  1.00  0.00     0.165 HD
HETATM   35  C   UNL     1      42.245 -18.043   2.336  1.00  0.00     0.099 A 
ENDBRANCH   6  26
TORSDOF 6
ENDMDL
MODEL 10
REMARK VINA RESULT:      -8.0      2.657      4.908
REMARK  6 active torsions:
REMARK  status: ('A' for Active; 'I' for Inactive)
REMARK    1  A    between atoms: O_2  and  C_3 
REMARK    2  A    between atoms: C_5  and  O_6 
REMARK    3  A    between atoms: C_8  and  N_9 
REMARK       I    between atoms: N_9  and  C_10 
REMARK    4  A    between atoms: C_10  and  C_11 
REMARK    5  A    between atoms: C_11  and  N_12 
REMARK    6  A    between atoms: C_17  and  C_18 
ROOT
HETATM    1  N   UNL     1      41.918 -17.330   2.680  1.00  0.00    -0.326 N 
HETATM    2  C   UNL     1      42.760 -18.419   2.472  1.00  0.00     0.255 C 
HETATM    3  O   UNL     1      42.856 -19.106   1.473  1.00  0.00    -0.267 OA
HETATM    4  C   UNL     1      43.476 -18.670   3.729  1.00  0.00     0.040 A 
HETATM    5  C   UNL     1      42.999 -17.777   4.687  1.00  0.00    -0.015 A 
HETATM    6  C   UNL     1      41.917 -16.938   4.082  1.00  0.00     0.158 C 
HETATM    7  C   UNL     1      44.404 -19.653   4.019  1.00  0.00     0.017 A 
HETATM    8  C   UNL     1      44.876 -19.724   5.331  1.00  0.00     0.001 A 
HETATM    9  C   UNL     1      44.412 -18.823   6.308  1.00  0.00     0.001 A 
HETATM   10  C   UNL     1      43.464 -17.844   5.992  1.00  0.00     0.011 A 
ENDROOT
BRANCH   1  11
HETATM   11  C   UNL     1      40.704 -17.203   1.892  1.00  0.00     0.230 C 
BRANCH  11  12
HETATM   12  C   UNL     1      40.441 -15.857   1.212  1.00  0.00     0.240 C 
HETATM   13  N   UNL     1      39.515 -15.055   1.854  1.00  0.00    -0.323 N 
HETATM   14  H   UNL     1      39.171 -15.377   2.756  1.00  0.00     0.169 HD
HETATM   15  O   UNL     1      40.898 -15.665   0.085  1.00  0.00    -0.271 OA
BRANCH  13  16
HETATM   16  C   UNL     1      38.901 -13.881   1.350  1.00  0.00     0.068 A 
HETATM   17  C   UNL     1      39.631 -12.673   1.384  1.00  0.00     0.097 A 
HETATM   18  C   UNL     1      39.024 -11.472   0.978  1.00  0.00     0.075 A 
HETATM   19  C   UNL     1      37.709 -11.465   0.510  1.00  0.00     0.070 A 
HETATM   20  C   UNL     1      37.013 -12.666   0.421  1.00  0.00     0.039 A 
HETATM   21  C   UNL     1      37.599 -13.862   0.842  1.00  0.00     0.035 A 
BRANCH  17  22
HETATM   22  O   UNL     1      40.923 -12.760   1.853  1.00  0.00    -0.354 OA
HETATM   23  C   UNL     1      41.955 -12.381   0.949  1.00  0.00     0.210 C 
ENDBRANCH  17  22
BRANCH  19  24
HETATM   24  O   UNL     1      37.006 -10.367   0.098  1.00  0.00    -0.356 OA
HETATM   25  C   UNL     1      37.196  -9.167   0.836  1.00  0.00     0.210 C 
ENDBRANCH  19  24
ENDBRANCH  13  16
ENDBRANCH  11  12
ENDBRANCH   1  11
BRANCH   6  26
HETATM   26  C   UNL     1      42.290 -15.501   4.208  1.00  0.00    -0.003 A 
HETATM   27  C   UNL     1      41.520 -14.496   4.885  1.00  0.00     0.001 A 
HETATM   28  C   UNL     1      42.168 -13.274   4.705  1.00  0.00     0.043 A 
HETATM   29  C   UNL     1      40.315 -14.510   5.620  1.00  0.00     0.014 A 
HETATM   30  C   UNL     1      41.669 -12.067   5.207  1.00  0.00     0.030 A 
HETATM   31  N   UNL     1      43.304 -13.523   3.974  1.00  0.00    -0.365 N 
HETATM   32  C   UNL     1      40.472 -12.110   5.926  1.00  0.00     0.002 A 
HETATM   33  C   UNL     1      39.805 -13.314   6.135  1.00  0.00     0.001 A 
HETATM   34  H   UNL     1      43.967 -12.815   3.689  1.00  0.00     0.165 HD
HETATM   35  C   UNL     1      43.391 -14.852   3.670  1.00  0.00     0.099 A 
ENDBRANCH   6  26
TORSDOF 6
ENDMDL
