MODEL 1
REMARK VINA RESULT:      -9.5      0.000      0.000
REMARK  4 active torsions:
REMARK  status: ('A' for Active; 'I' for Inactive)
REMARK    1  A    between atoms: C_5  and  C_6 
REMARK    2  A    between atoms: C_10  and  C_11 
REMARK       I    between atoms: C_11  and  N_12 
REMARK    3  A    between atoms: N_12  and  N_13 
REMARK       I    between atoms: N_13  and  C_14 
REMARK       I    between atoms: C_14  and  N_15 
REMARK    4  A    between atoms: N_15  and  C_16 
ROOT
HETATM    1  C   UNL     1      43.447 -13.919   6.637  1.00  0.00     0.288 C 
HETATM    2  N   UNL     1      44.133 -13.436   7.729  1.00  0.00    -0.261 N 
HETATM    3  O   UNL     1      42.607 -13.243   6.043  1.00  0.00    -0.264 OA
HETATM    4  H   UNL     1      44.780 -13.991   8.285  1.00  0.00     0.190 HD
ENDROOT
BRANCH   1   5
HETATM    5  C   UNL     1      43.767 -15.266   6.253  1.00  0.00     0.121 A 
HETATM    6  N   UNL     1      44.619 -16.041   6.987  1.00  0.00    -0.272 N 
HETATM    7  N   UNL     1      44.840 -17.257   6.468  1.00  0.00    -0.174 NA
HETATM    8  H   UNL     1      45.088 -15.783   7.849  1.00  0.00     0.189 HD
HETATM    9  C   UNL     1      44.105 -17.290   5.344  1.00  0.00     0.089 A 
HETATM   10  C   UNL     1      43.402 -16.061   5.185  1.00  0.00     0.071 A 
BRANCH   9  11
HETATM   11  C   UNL     1      44.113 -18.453   4.449  1.00  0.00    -0.006 A 
HETATM   12  C   UNL     1      43.507 -18.405   3.186  1.00  0.00     0.014 A 
HETATM   13  C   UNL     1      43.555 -19.508   2.325  1.00  0.00     0.007 A 
HETATM   14  C   UNL     1      44.199 -20.686   2.714  1.00  0.00    -0.062 A 
HETATM   15  C   UNL     1      44.296 -21.852   1.778  1.00  0.00     0.048 C 
HETATM   16  C   UNL     1      44.805 -20.741   3.973  1.00  0.00     0.007 A 
HETATM   17  C   UNL     1      44.755 -19.638   4.832  1.00  0.00     0.014 A 
ENDBRANCH   9  11
ENDBRANCH   1   5
BRANCH   2  18
HETATM   18  N   UNL     1      43.790 -12.178   8.257  1.00  0.00    -0.249 N 
HETATM   19  C   UNL     1      43.687 -12.107   9.639  1.00  0.00     0.339 C 
HETATM   20  N   UNL     1      43.213 -10.875  10.041  1.00  0.00    -0.306 N 
HETATM   21  O   UNL     1      44.053 -13.028  10.362  1.00  0.00    -0.245 OA
HETATM   22  H   UNL     1      43.539 -10.123   9.450  1.00  0.00     0.171 HD
HETATM   23  H   UNL     1      43.124 -11.653   7.697  1.00  0.00     0.192 HD
BRANCH  20  24
HETATM   24  C   UNL     1      42.923 -10.537  11.385  1.00  0.00     0.058 A 
HETATM   25  C   UNL     1      41.711 -10.813  12.047  1.00  0.00     0.060 A 
HETATM   26 CL   UNL     1      40.302 -11.415  11.243  1.00  0.00    -0.082 Cl
HETATM   27  C   UNL     1      41.553 -10.461  13.394  1.00  0.00     0.026 A 
HETATM   28  C   UNL     1      42.576  -9.807  14.080  1.00  0.00     0.002 A 
HETATM   29  C   UNL     1      43.754  -9.479  13.416  1.00  0.00     0.002 A 
HETATM   30  C   UNL     1      43.921  -9.832  12.074  1.00  0.00     0.031 A 
ENDBRANCH  20  24
ENDBRANCH   2  18
TORSDOF 4
ENDMDL
MODEL 2
REMARK VINA RESULT:      -9.0      1.905      2.465
REMARK  4 active torsions:
REMARK  status: ('A' for Active; 'I' for Inactive)
REMARK    1  A    between atoms: C_5  and  C_6 
REMARK    2  A    between atoms: C_10  and  C_11 
REMARK       I    between atoms: C_11  and  N_12 
REMARK    3  A    between atoms: N_12  and  N_13 
REMARK       I    between atoms: N_13  and  C_14 
REMARK       I    between atoms: C_14  and  N_15 
REMARK    4  A    between atoms: N_15  and  C_16 
ROOT
HETATM    1  C   UNL     1      44.594 -12.880   8.297  1.00  0.00     0.288 C 
HETATM    2  N   UNL     1      43.678 -11.983   8.800  1.00  0.00    -0.261 N 
HETATM    3  O   UNL     1      45.744 -12.950   8.729  1.00  0.00    -0.264 OA
HETATM    4  H   UNL     1      42.744 -11.849   8.420  1.00  0.00     0.190 HD
ENDROOT
BRANCH   1   5
HETATM    5  C   UNL     1      44.118 -13.712   7.227  1.00  0.00     0.121 A 
HETATM    6  N   UNL     1      43.002 -13.393   6.507  1.00  0.00    -0.272 N 
HETATM    7  N   UNL     1      42.674 -14.295   5.572  1.00  0.00    -0.174 NA
HETATM    8  H   UNL     1      42.417 -12.571   6.622  1.00  0.00     0.189 HD
HETATM    9  C   UNL     1      43.611 -15.252   5.675  1.00  0.00     0.089 A 
HETATM   10  C   UNL     1      44.547 -14.912   6.693  1.00  0.00     0.071 A 
BRANCH   9  11
HETATM   11  C   UNL     1      43.577 -16.461   4.842  1.00  0.00    -0.006 A 
HETATM   12  C   UNL     1      43.329 -16.389   3.464  1.00  0.00     0.014 A 
HETATM   13  C   UNL     1      43.338 -17.544   2.674  1.00  0.00     0.007 A 
HETATM   14  C   UNL     1      43.584 -18.796   3.246  1.00  0.00    -0.062 A 
HETATM   15  C   UNL     1      43.644 -20.029   2.396  1.00  0.00     0.048 C 
HETATM   16  C   UNL     1      43.832 -18.875   4.619  1.00  0.00     0.007 A 
HETATM   17  C   UNL     1      43.822 -17.719   5.409  1.00  0.00     0.014 A 
ENDBRANCH   9  11
ENDBRANCH   1   5
BRANCH   2  18
HETATM   18  N   UNL     1      44.093 -11.038   9.757  1.00  0.00    -0.249 N 
HETATM   19  C   UNL     1      43.181 -10.751  10.762  1.00  0.00     0.339 C 
HETATM   20  N   UNL     1      43.627  -9.718  11.561  1.00  0.00    -0.306 N 
HETATM   21  O   UNL     1      42.159 -11.413  10.915  1.00  0.00    -0.245 OA
HETATM   22  H   UNL     1      44.630  -9.728  11.681  1.00  0.00     0.171 HD
HETATM   23  H   UNL     1      44.652 -10.276   9.383  1.00  0.00     0.192 HD
BRANCH  20  24
HETATM   24  C   UNL     1      42.874  -9.148  12.615  1.00  0.00     0.058 A 
HETATM   25  C   UNL     1      41.818  -8.231  12.454  1.00  0.00     0.060 A 
HETATM   26 CL   UNL     1      41.426  -7.486  10.941  1.00  0.00    -0.082 Cl
HETATM   27  C   UNL     1      41.121  -7.761  13.574  1.00  0.00     0.026 A 
HETATM   28  C   UNL     1      41.483  -8.171  14.857  1.00  0.00     0.002 A 
HETATM   29  C   UNL     1      42.562  -9.032  15.029  1.00  0.00     0.002 A 
HETATM   30  C   UNL     1      43.259  -9.508  13.915  1.00  0.00     0.031 A 
ENDBRANCH  20  24
ENDBRANCH   2  18
TORSDOF 4
ENDMDL
MODEL 3
REMARK VINA RESULT:      -8.9      1.915      2.300
REMARK  4 active torsions:
REMARK  status: ('A' for Active; 'I' for Inactive)
REMARK    1  A    between atoms: C_5  and  C_6 
REMARK    2  A    between atoms: C_10  and  C_11 
REMARK       I    between atoms: C_11  and  N_12 
REMARK    3  A    between atoms: N_12  and  N_13 
REMARK       I    between atoms: N_13  and  C_14 
REMARK       I    between atoms: C_14  and  N_15 
REMARK    4  A    between atoms: N_15  and  C_16 
ROOT
HETATM    1  C   UNL     1      41.542 -12.228   6.174  1.00  0.00     0.288 C 
HETATM    2  N   UNL     1      42.267 -11.862   7.285  1.00  0.00    -0.261 N 
HETATM    3  O   UNL     1      40.431 -11.755   5.936  1.00  0.00    -0.264 OA
HETATM    4  H   UNL     1      43.155 -12.283   7.550  1.00  0.00     0.190 HD
ENDROOT
BRANCH   1   5
HETATM    5  C   UNL     1      42.164 -13.206   5.326  1.00  0.00     0.121 A 
HETATM    6  N   UNL     1      42.821 -12.855   4.181  1.00  0.00    -0.272 N 
HETATM    7  N   UNL     1      43.309 -13.892   3.487  1.00  0.00    -0.174 NA
HETATM    8  H   UNL     1      42.956 -11.916   3.819  1.00  0.00     0.189 HD
HETATM    9  C   UNL     1      42.962 -14.976   4.200  1.00  0.00     0.089 A 
HETATM   10  C   UNL     1      42.256 -14.583   5.373  1.00  0.00     0.071 A 
BRANCH   9  11
HETATM   11  C   UNL     1      43.276 -16.336   3.742  1.00  0.00    -0.006 A 
HETATM   12  C   UNL     1      43.623 -16.594   2.410  1.00  0.00     0.014 A 
HETATM   13  C   UNL     1      43.957 -17.889   1.994  1.00  0.00     0.007 A 
HETATM   14  C   UNL     1      43.941 -18.953   2.900  1.00  0.00    -0.062 A 
HETATM   15  C   UNL     1      44.346 -20.331   2.472  1.00  0.00     0.048 C 
HETATM   16  C   UNL     1      43.595 -18.702   4.232  1.00  0.00     0.007 A 
HETATM   17  C   UNL     1      43.259 -17.408   4.645  1.00  0.00     0.014 A 
ENDBRANCH   9  11
ENDBRANCH   1   5
BRANCH   2  18
HETATM   18  N   UNL     1      41.682 -11.011   8.241  1.00  0.00    -0.249 N 
HETATM   19  C   UNL     1      42.329 -10.936   9.465  1.00  0.00     0.339 C 
HETATM   20  N   UNL     1      41.602 -10.190  10.370  1.00  0.00    -0.306 N 
HETATM   21  O   UNL     1      43.439 -11.428   9.640  1.00  0.00    -0.245 OA
HETATM   22  H   UNL     1      41.110  -9.423   9.932  1.00  0.00     0.171 HD
HETATM   23  H   UNL     1      40.665 -11.004   8.233  1.00  0.00     0.192 HD
BRANCH  20  24
HETATM   24  C   UNL     1      41.968 -10.008  11.726  1.00  0.00     0.058 A 
HETATM   25  C   UNL     1      41.468 -10.758  12.807  1.00  0.00     0.060 A 
HETATM   26 CL   UNL     1      40.153 -11.875  12.666  1.00  0.00    -0.082 Cl
HETATM   27  C   UNL     1      41.933 -10.510  14.106  1.00  0.00     0.026 A 
HETATM   28  C   UNL     1      42.867  -9.502  14.343  1.00  0.00     0.002 A 
HETATM   29  C   UNL     1      43.322  -8.719  13.287  1.00  0.00     0.002 A 
HETATM   30  C   UNL     1      42.867  -8.964  11.989  1.00  0.00     0.031 A 
ENDBRANCH  20  24
ENDBRANCH   2  18
TORSDOF 4
ENDMDL
MODEL 4
REMARK VINA RESULT:      -8.8      2.878     10.499
REMARK  4 active torsions:
REMARK  status: ('A' for Active; 'I' for Inactive)
REMARK    1  A    between atoms: C_5  and  C_6 
REMARK    2  A    between atoms: C_10  and  C_11 
REMARK       I    between atoms: C_11  and  N_12 
REMARK    3  A    between atoms: N_12  and  N_13 
REMARK       I    between atoms: N_13  and  C_14 
REMARK       I    between atoms: C_14  and  N_15 
REMARK    4  A    between atoms: N_15  and  C_16 
ROOT
HETATM    1  C   UNL     1      45.107 -13.307   7.775  1.00  0.00     0.288 C 
HETATM    2  N   UNL     1      44.122 -14.261   7.648  1.00  0.00    -0.261 N 
HETATM    3  O   UNL     1      46.120 -13.318   7.076  1.00  0.00    -0.264 OA
HETATM    4  H   UNL     1      43.309 -14.323   8.256  1.00  0.00     0.190 HD
ENDROOT
BRANCH   1   5
HETATM    5  C   UNL     1      44.877 -12.313   8.787  1.00  0.00     0.121 A 
HETATM    6  N   UNL     1      45.723 -11.256   8.965  1.00  0.00    -0.272 N 
HETATM    7  N   UNL     1      45.384 -10.446   9.977  1.00  0.00    -0.174 NA
HETATM    8  H   UNL     1      46.557 -11.046   8.427  1.00  0.00     0.189 HD
HETATM    9  C   UNL     1      44.268 -10.987  10.492  1.00  0.00     0.089 A 
HETATM   10  C   UNL     1      43.908 -12.154   9.758  1.00  0.00     0.071 A 
BRANCH   9  11
HETATM   11  C   UNL     1      43.600 -10.413  11.667  1.00  0.00    -0.006 A 
HETATM   12  C   UNL     1      43.177 -11.220  12.732  1.00  0.00     0.014 A 
HETATM   13  C   UNL     1      42.577 -10.656  13.864  1.00  0.00     0.007 A 
HETATM   14  C   UNL     1      42.377  -9.275  13.950  1.00  0.00    -0.062 A 
HETATM   15  C   UNL     1      41.780  -8.661  15.180  1.00  0.00     0.048 C 
HETATM   16  C   UNL     1      42.796  -8.464  12.891  1.00  0.00     0.007 A 
HETATM   17  C   UNL     1      43.395  -9.029  11.759  1.00  0.00     0.014 A 
ENDBRANCH   9  11
ENDBRANCH   1   5
BRANCH   2  18
HETATM   18  N   UNL     1      44.323 -15.346   6.777  1.00  0.00    -0.249 N 
HETATM   19  C   UNL     1      43.589 -15.325   5.600  1.00  0.00     0.339 C 
HETATM   20  N   UNL     1      43.753 -16.495   4.887  1.00  0.00    -0.306 N 
HETATM   21  O   UNL     1      42.951 -14.335   5.255  1.00  0.00    -0.245 OA
HETATM   22  H   UNL     1      44.686 -16.874   4.975  1.00  0.00     0.171 HD
HETATM   23  H   UNL     1      44.462 -16.241   7.241  1.00  0.00     0.192 HD
BRANCH  20  24
HETATM   24  C   UNL     1      43.063 -16.798   3.688  1.00  0.00     0.058 A 
HETATM   25  C   UNL     1      41.729 -17.240   3.611  1.00  0.00     0.060 A 
HETATM   26 CL   UNL     1      40.794 -17.697   4.994  1.00  0.00    -0.082 Cl
HETATM   27  C   UNL     1      41.140 -17.475   2.361  1.00  0.00     0.026 A 
HETATM   28  C   UNL     1      41.876 -17.304   1.189  1.00  0.00     0.002 A 
HETATM   29  C   UNL     1      43.212 -16.922   1.260  1.00  0.00     0.002 A 
HETATM   30  C   UNL     1      43.804 -16.682   2.502  1.00  0.00     0.031 A 
ENDBRANCH  20  24
ENDBRANCH   2  18
TORSDOF 4
ENDMDL
MODEL 5
REMARK VINA RESULT:      -8.4      7.321     11.034
REMARK  4 active torsions:
REMARK  status: ('A' for Active; 'I' for Inactive)
REMARK    1  A    between atoms: C_5  and  C_6 
REMARK    2  A    between atoms: C_10  and  C_11 
REMARK       I    between atoms: C_11  and  N_12 
REMARK    3  A    between atoms: N_12  and  N_13 
REMARK       I    between atoms: N_13  and  C_14 
REMARK       I    between atoms: C_14  and  N_15 
REMARK    4  A    between atoms: N_15  and  C_16 
ROOT
HETATM    1  C   UNL     1      41.643 -14.272   1.286  1.00  0.00     0.288 C 
HETATM    2  N   UNL     1      42.533 -14.497   2.313  1.00  0.00    -0.261 N 
HETATM    3  O   UNL     1      40.666 -14.997   1.101  1.00  0.00    -0.264 OA
HETATM    4  H   UNL     1      43.388 -13.962   2.452  1.00  0.00     0.190 HD
ENDROOT
BRANCH   1   5
HETATM    5  C   UNL     1      41.945 -13.149   0.443  1.00  0.00     0.121 A 
HETATM    6  N   UNL     1      42.347 -11.949   0.957  1.00  0.00    -0.272 N 
HETATM    7  N   UNL     1      42.549 -10.997   0.036  1.00  0.00    -0.174 NA
HETATM    8  H   UNL     1      42.490 -11.723   1.936  1.00  0.00     0.189 HD
HETATM    9  C   UNL     1      42.268 -11.588  -1.136  1.00  0.00     0.089 A 
HETATM   10  C   UNL     1      41.902 -12.947  -0.922  1.00  0.00     0.071 A 
BRANCH   9  11
HETATM   11  C   UNL     1      42.323 -10.852  -2.406  1.00  0.00    -0.006 A 
HETATM   12  C   UNL     1      42.390  -9.453  -2.435  1.00  0.00     0.014 A 
HETATM   13  C   UNL     1      42.482  -8.764  -3.651  1.00  0.00     0.007 A 
HETATM   14  C   UNL     1      42.496  -9.461  -4.863  1.00  0.00    -0.062 A 
HETATM   15  C   UNL     1      42.644  -8.733  -6.165  1.00  0.00     0.048 C 
HETATM   16  C   UNL     1      42.429 -10.857  -4.841  1.00  0.00     0.007 A 
HETATM   17  C   UNL     1      42.337 -11.544  -3.625  1.00  0.00     0.014 A 
ENDBRANCH   9  11
ENDBRANCH   1   5
BRANCH   2  18
HETATM   18  N   UNL     1      42.393 -15.649   3.107  1.00  0.00    -0.249 N 
HETATM   19  C   UNL     1      43.192 -16.728   2.758  1.00  0.00     0.339 C 
HETATM   20  N   UNL     1      42.878 -17.845   3.505  1.00  0.00    -0.306 N 
HETATM   21  O   UNL     1      44.095 -16.623   1.934  1.00  0.00    -0.245 OA
HETATM   22  H   UNL     1      42.605 -17.614   4.451  1.00  0.00     0.171 HD
HETATM   23  H   UNL     1      41.442 -15.836   3.417  1.00  0.00     0.192 HD
BRANCH  20  24
HETATM   24  C   UNL     1      43.466 -19.119   3.315  1.00  0.00     0.058 A 
HETATM   25  C   UNL     1      44.369 -19.735   4.202  1.00  0.00     0.060 A 
HETATM   26 CL   UNL     1      45.073 -18.925   5.561  1.00  0.00    -0.082 Cl
HETATM   27  C   UNL     1      44.859 -21.018   3.924  1.00  0.00     0.026 A 
HETATM   28  C   UNL     1      44.484 -21.681   2.756  1.00  0.00     0.002 A 
HETATM   29  C   UNL     1      43.637 -21.055   1.847  1.00  0.00     0.002 A 
HETATM   30  C   UNL     1      43.141 -19.778   2.120  1.00  0.00     0.031 A 
ENDBRANCH  20  24
ENDBRANCH   2  18
TORSDOF 4
ENDMDL
MODEL 6
REMARK VINA RESULT:      -8.3      3.820     11.167
REMARK  4 active torsions:
REMARK  status: ('A' for Active; 'I' for Inactive)
REMARK    1  A    between atoms: C_5  and  C_6 
REMARK    2  A    between atoms: C_10  and  C_11 
REMARK       I    between atoms: C_11  and  N_12 
REMARK    3  A    between atoms: N_12  and  N_13 
REMARK       I    between atoms: N_13  and  C_14 
REMARK       I    between atoms: C_14  and  N_15 
REMARK    4  A    between atoms: N_15  and  C_16 
ROOT
HETATM    1  C   UNL     1      39.360 -12.601   6.611  1.00  0.00     0.288 C 
HETATM    2  N   UNL     1      39.820 -13.894   6.729  1.00  0.00    -0.261 N 
HETATM    3  O   UNL     1      38.721 -12.223   5.630  1.00  0.00    -0.264 OA
HETATM    4  H   UNL     1      40.410 -14.222   7.490  1.00  0.00     0.190 HD
ENDROOT
BRANCH   1   5
HETATM    5  C   UNL     1      39.693 -11.727   7.702  1.00  0.00     0.121 A 
HETATM    6  N   UNL     1      40.969 -11.285   7.907  1.00  0.00    -0.272 N 
HETATM    7  N   UNL     1      41.113 -10.510   8.991  1.00  0.00    -0.174 NA
HETATM    8  H   UNL     1      41.785 -11.493   7.341  1.00  0.00     0.189 HD
HETATM    9  C   UNL     1      39.884 -10.435   9.526  1.00  0.00     0.089 A 
HETATM   10  C   UNL     1      38.960 -11.173   8.733  1.00  0.00     0.071 A 
BRANCH   9  11
HETATM   11  C   UNL     1      39.627  -9.703  10.773  1.00  0.00    -0.006 A 
HETATM   12  C   UNL     1      40.668  -9.365  11.648  1.00  0.00     0.014 A 
HETATM   13  C   UNL     1      40.415  -8.634  12.815  1.00  0.00     0.007 A 
HETATM   14  C   UNL     1      39.114  -8.234  13.135  1.00  0.00    -0.062 A 
HETATM   15  C   UNL     1      38.845  -7.408  14.357  1.00  0.00     0.048 C 
HETATM   16  C   UNL     1      38.071  -8.568  12.267  1.00  0.00     0.007 A 
HETATM   17  C   UNL     1      38.325  -9.300  11.102  1.00  0.00     0.014 A 
ENDBRANCH   9  11
ENDBRANCH   1   5
BRANCH   2  18
HETATM   18  N   UNL     1      39.657 -14.784   5.651  1.00  0.00    -0.249 N 
HETATM   19  C   UNL     1      40.823 -15.318   5.123  1.00  0.00     0.339 C 
HETATM   20  N   UNL     1      40.563 -16.062   3.990  1.00  0.00    -0.306 N 
HETATM   21  O   UNL     1      41.908 -15.175   5.677  1.00  0.00    -0.245 OA
HETATM   22  H   UNL     1      39.679 -16.550   4.041  1.00  0.00     0.171 HD
HETATM   23  H   UNL     1      38.907 -14.537   5.009  1.00  0.00     0.192 HD
BRANCH  20  24
HETATM   24  C   UNL     1      41.563 -16.659   3.185  1.00  0.00     0.058 A 
HETATM   25  C   UNL     1      42.313 -17.797   3.536  1.00  0.00     0.060 A 
HETATM   26 CL   UNL     1      42.280 -18.511   5.113  1.00  0.00    -0.082 Cl
HETATM   27  C   UNL     1      43.254 -18.320   2.639  1.00  0.00     0.026 A 
HETATM   28  C   UNL     1      43.479 -17.703   1.409  1.00  0.00     0.002 A 
HETATM   29  C   UNL     1      42.783 -16.545   1.079  1.00  0.00     0.002 A 
HETATM   30  C   UNL     1      41.839 -16.021   1.966  1.00  0.00     0.031 A 
ENDBRANCH  20  24
ENDBRANCH   2  18
TORSDOF 4
ENDMDL
MODEL 7
REMARK VINA RESULT:      -8.3      8.128     11.378
REMARK  4 active torsions:
REMARK  status: ('A' for Active; 'I' for Inactive)
REMARK    1  A    between atoms: C_5  and  C_6 
REMARK    2  A    between atoms: C_10  and  C_11 
REMARK       I    between atoms: C_11  and  N_12 
REMARK    3  A    between atoms: N_12  and  N_13 
REMARK       I    between atoms: N_13  and  C_14 
REMARK       I    between atoms: C_14  and  N_15 
REMARK    4  A    between atoms: N_15  and  C_16 
ROOT
HETATM    1  C   UNL     1      41.484 -14.921  -0.487  1.00  0.00     0.288 C 
HETATM    2  N   UNL     1      40.542 -15.584  -1.242  1.00  0.00    -0.261 N 
HETATM    3  O   UNL     1      41.877 -13.792  -0.779  1.00  0.00    -0.264 OA
HETATM    4  H   UNL     1      40.248 -16.543  -1.071  1.00  0.00     0.190 HD
ENDROOT
BRANCH   1   5
HETATM    5  C   UNL     1      41.985 -15.644   0.649  1.00  0.00     0.121 A 
HETATM    6  N   UNL     1      42.169 -15.044   1.862  1.00  0.00    -0.272 N 
HETATM    7  N   UNL     1      42.679 -15.851   2.802  1.00  0.00    -0.174 NA
HETATM    8  H   UNL     1      41.971 -14.077   2.100  1.00  0.00     0.189 HD
HETATM    9  C   UNL     1      42.842 -17.034   2.189  1.00  0.00     0.089 A 
HETATM   10  C   UNL     1      42.399 -16.948   0.838  1.00  0.00     0.071 A 
BRANCH   9  11
HETATM   11  C   UNL     1      43.432 -18.189   2.878  1.00  0.00    -0.006 A 
HETATM   12  C   UNL     1      43.708 -18.154   4.251  1.00  0.00     0.014 A 
HETATM   13  C   UNL     1      44.235 -19.274   4.905  1.00  0.00     0.007 A 
HETATM   14  C   UNL     1      44.506 -20.448   4.196  1.00  0.00    -0.062 A 
HETATM   15  C   UNL     1      45.024 -21.667   4.900  1.00  0.00     0.048 C 
HETATM   16  C   UNL     1      44.234 -20.490   2.826  1.00  0.00     0.007 A 
HETATM   17  C   UNL     1      43.709 -19.369   2.174  1.00  0.00     0.014 A 
ENDBRANCH   9  11
ENDBRANCH   1   5
BRANCH   2  18
HETATM   18  N   UNL     1      40.094 -15.008  -2.444  1.00  0.00    -0.249 N 
HETATM   19  C   UNL     1      38.832 -14.433  -2.410  1.00  0.00     0.339 C 
HETATM   20  N   UNL     1      38.434 -14.026  -3.667  1.00  0.00    -0.306 N 
HETATM   21  O   UNL     1      38.226 -14.269  -1.356  1.00  0.00    -0.245 OA
HETATM   22  H   UNL     1      39.204 -13.687  -4.226  1.00  0.00     0.171 HD
HETATM   23  H   UNL     1      40.369 -15.514  -3.283  1.00  0.00     0.192 HD
BRANCH  20  24
HETATM   24  C   UNL     1      37.160 -13.482  -3.958  1.00  0.00     0.058 A 
HETATM   25  C   UNL     1      36.759 -12.162  -3.680  1.00  0.00     0.060 A 
HETATM   26 CL   UNL     1      37.698 -11.062  -2.728  1.00  0.00    -0.082 Cl
HETATM   27  C   UNL     1      35.479 -11.726  -4.049  1.00  0.00     0.026 A 
HETATM   28  C   UNL     1      34.583 -12.599  -4.664  1.00  0.00     0.002 A 
HETATM   29  C   UNL     1      34.952 -13.921  -4.891  1.00  0.00     0.002 A 
HETATM   30  C   UNL     1      36.228 -14.362  -4.530  1.00  0.00     0.031 A 
ENDBRANCH  20  24
ENDBRANCH   2  18
TORSDOF 4
ENDMDL
MODEL 8
REMARK VINA RESULT:      -8.2      9.467     12.440
REMARK  4 active torsions:
REMARK  status: ('A' for Active; 'I' for Inactive)
REMARK    1  A    between atoms: C_5  and  C_6 
REMARK    2  A    between atoms: C_10  and  C_11 
REMARK       I    between atoms: C_11  and  N_12 
REMARK    3  A    between atoms: N_12  and  N_13 
REMARK       I    between atoms: N_13  and  C_14 
REMARK       I    between atoms: C_14  and  N_15 
REMARK    4  A    between atoms: N_15  and  C_16 
ROOT
HETATM    1  C   UNL     1      40.490 -15.354  -2.657  1.00  0.00     0.288 C 
HETATM    2  N   UNL     1      40.599 -15.588  -1.304  1.00  0.00    -0.261 N 
HETATM    3  O   UNL     1      41.450 -15.472  -3.418  1.00  0.00    -0.264 OA
HETATM    4  H   UNL     1      39.847 -15.431  -0.637  1.00  0.00     0.190 HD
ENDROOT
BRANCH   1   5
HETATM    5  C   UNL     1      39.189 -14.948  -3.110  1.00  0.00     0.121 A 
HETATM    6  N   UNL     1      38.260 -15.854  -3.537  1.00  0.00    -0.272 N 
HETATM    7  N   UNL     1      37.113 -15.306  -3.962  1.00  0.00    -0.174 NA
HETATM    8  H   UNL     1      38.362 -16.863  -3.569  1.00  0.00     0.189 HD
HETATM    9  C   UNL     1      37.289 -13.983  -3.812  1.00  0.00     0.089 A 
HETATM   10  C   UNL     1      38.576 -13.720  -3.262  1.00  0.00     0.071 A 
BRANCH   9  11
HETATM   11  C   UNL     1      36.261 -13.015  -4.218  1.00  0.00    -0.006 A 
HETATM   12  C   UNL     1      36.390 -11.650  -3.928  1.00  0.00     0.014 A 
HETATM   13  C   UNL     1      35.423 -10.732  -4.354  1.00  0.00     0.007 A 
HETATM   14  C   UNL     1      34.301 -11.162  -5.068  1.00  0.00    -0.062 A 
HETATM   15  C   UNL     1      33.288 -10.177  -5.569  1.00  0.00     0.048 C 
HETATM   16  C   UNL     1      34.165 -12.522  -5.361  1.00  0.00     0.007 A 
HETATM   17  C   UNL     1      35.132 -13.439  -4.933  1.00  0.00     0.014 A 
ENDBRANCH   9  11
ENDBRANCH   1   5
BRANCH   2  18
HETATM   18  N   UNL     1      41.864 -15.859  -0.751  1.00  0.00    -0.249 N 
HETATM   19  C   UNL     1      41.877 -16.704   0.349  1.00  0.00     0.339 C 
HETATM   20  N   UNL     1      43.141 -16.792   0.895  1.00  0.00    -0.306 N 
HETATM   21  O   UNL     1      40.878 -17.323   0.700  1.00  0.00    -0.245 OA
HETATM   22  H   UNL     1      43.869 -16.748   0.196  1.00  0.00     0.171 HD
HETATM   23  H   UNL     1      42.507 -15.071  -0.760  1.00  0.00     0.192 HD
BRANCH  20  24
HETATM   24  C   UNL     1      43.447 -17.512   2.076  1.00  0.00     0.058 A 
HETATM   25  C   UNL     1      43.432 -16.978   3.378  1.00  0.00     0.060 A 
HETATM   26 CL   UNL     1      43.253 -15.289   3.713  1.00  0.00    -0.082 Cl
HETATM   27  C   UNL     1      43.720 -17.800   4.476  1.00  0.00     0.026 A 
HETATM   28  C   UNL     1      44.052 -19.141   4.289  1.00  0.00     0.002 A 
HETATM   29  C   UNL     1      44.125 -19.662   3.001  1.00  0.00     0.002 A 
HETATM   30  C   UNL     1      43.835 -18.849   1.901  1.00  0.00     0.031 A 
ENDBRANCH  20  24
ENDBRANCH   2  18
TORSDOF 4
ENDMDL
MODEL 9
REMARK VINA RESULT:      -8.2      8.000     11.003
REMARK  4 active torsions:
REMARK  status: ('A' for Active; 'I' for Inactive)
REMARK    1  A    between atoms: C_5  and  C_6 
REMARK    2  A    between atoms: C_10  and  C_11 
REMARK       I    between atoms: C_11  and  N_12 
REMARK    3  A    between atoms: N_12  and  N_13 
REMARK       I    between atoms: N_13  and  C_14 
REMARK       I    between atoms: C_14  and  N_15 
REMARK    4  A    between atoms: N_15  and  C_16 
ROOT
HETATM    1  C   UNL     1      42.240 -15.668   1.172  1.00  0.00     0.288 C 
HETATM    2  N   UNL     1      42.768 -16.720   0.458  1.00  0.00    -0.261 N 
HETATM    3  O   UNL     1      42.753 -15.265   2.215  1.00  0.00    -0.264 OA
HETATM    4  H   UNL     1      42.331 -17.124  -0.367  1.00  0.00     0.190 HD
ENDROOT
BRANCH   1   5
HETATM    5  C   UNL     1      41.045 -15.088   0.624  1.00  0.00     0.121 A 
HETATM    6  N   UNL     1      39.952 -14.822   1.398  1.00  0.00    -0.272 N 
HETATM    7  N   UNL     1      38.909 -14.319   0.722  1.00  0.00    -0.174 NA
HETATM    8  H   UNL     1      39.860 -14.976   2.397  1.00  0.00     0.189 HD
HETATM    9  C   UNL     1      39.328 -14.249  -0.552  1.00  0.00     0.089 A 
HETATM   10  C   UNL     1      40.673 -14.707  -0.650  1.00  0.00     0.071 A 
BRANCH   9  11
HETATM   11  C   UNL     1      38.445 -13.787  -1.631  1.00  0.00    -0.006 A 
HETATM   12  C   UNL     1      37.944 -12.479  -1.653  1.00  0.00     0.014 A 
HETATM   13  C   UNL     1      37.135 -12.038  -2.707  1.00  0.00     0.007 A 
HETATM   14  C   UNL     1      36.802 -12.901  -3.756  1.00  0.00    -0.062 A 
HETATM   15  C   UNL     1      35.978 -12.420  -4.912  1.00  0.00     0.048 C 
HETATM   16  C   UNL     1      37.298 -14.208  -3.740  1.00  0.00     0.007 A 
HETATM   17  C   UNL     1      38.105 -14.647  -2.685  1.00  0.00     0.014 A 
ENDBRANCH   9  11
ENDBRANCH   1   5
BRANCH   2  18
HETATM   18  N   UNL     1      43.858 -17.434   0.988  1.00  0.00    -0.249 N 
HETATM   19  C   UNL     1      43.543 -18.570   1.720  1.00  0.00     0.339 C 
HETATM   20  N   UNL     1      44.667 -19.113   2.308  1.00  0.00    -0.306 N 
HETATM   21  O   UNL     1      42.405 -19.027   1.744  1.00  0.00    -0.245 OA
HETATM   22  H   UNL     1      45.493 -19.010   1.734  1.00  0.00     0.171 HD
HETATM   23  H   UNL     1      44.627 -16.852   1.312  1.00  0.00     0.192 HD
BRANCH  20  24
HETATM   24  C   UNL     1      44.646 -20.226   3.184  1.00  0.00     0.058 A 
HETATM   25  C   UNL     1      44.709 -20.153   4.588  1.00  0.00     0.060 A 
HETATM   26 CL   UNL     1      45.047 -18.692   5.453  1.00  0.00    -0.082 Cl
HETATM   27  C   UNL     1      44.643 -21.325   5.353  1.00  0.00     0.026 A 
HETATM   28  C   UNL     1      44.549 -22.571   4.734  1.00  0.00     0.002 A 
HETATM   29  C   UNL     1      44.545 -22.654   3.345  1.00  0.00     0.002 A 
HETATM   30  C   UNL     1      44.604 -21.489   2.576  1.00  0.00     0.031 A 
ENDBRANCH  20  24
ENDBRANCH   2  18
TORSDOF 4
ENDMDL
MODEL 10
REMARK VINA RESULT:      -8.2      3.855     11.074
REMARK  4 active torsions:
REMARK  status: ('A' for Active; 'I' for Inactive)
REMARK    1  A    between atoms: C_5  and  C_6 
REMARK    2  A    between atoms: C_10  and  C_11 
REMARK       I    between atoms: C_11  and  N_12 
REMARK    3  A    between atoms: N_12  and  N_13 
REMARK       I    between atoms: N_13  and  C_14 
REMARK       I    between atoms: C_14  and  N_15 
REMARK    4  A    between atoms: N_15  and  C_16 
ROOT
HETATM    1  C   UNL     1      39.602 -12.760   6.371  1.00  0.00     0.288 C 
HETATM    2  N   UNL     1      39.903 -14.079   6.629  1.00  0.00    -0.261 N 
HETATM    3  O   UNL     1      39.157 -12.394   5.284  1.00  0.00    -0.264 OA
HETATM    4  H   UNL     1      40.337 -14.405   7.489  1.00  0.00     0.190 HD
ENDROOT
BRANCH   1   5
HETATM    5  C   UNL     1      39.859 -11.846   7.449  1.00  0.00     0.121 A 
HETATM    6  N   UNL     1      41.110 -11.356   7.696  1.00  0.00    -0.272 N 
HETATM    7  N   UNL     1      41.183 -10.547   8.762  1.00  0.00    -0.174 NA
HETATM    8  H   UNL     1      41.956 -11.552   7.170  1.00  0.00     0.189 HD
HETATM    9  C   UNL     1      39.930 -10.499   9.242  1.00  0.00     0.089 A 
HETATM   10  C   UNL     1      39.065 -11.289   8.432  1.00  0.00     0.071 A 
BRANCH   9  11
HETATM   11  C   UNL     1      39.595  -9.743  10.456  1.00  0.00    -0.006 A 
HETATM   12  C   UNL     1      38.290  -9.293  10.698  1.00  0.00     0.014 A 
HETATM   13  C   UNL     1      37.976  -8.607  11.877  1.00  0.00     0.007 A 
HETATM   14  C   UNL     1      38.962  -8.347  12.833  1.00  0.00    -0.062 A 
HETATM   15  C   UNL     1      38.620  -7.657  14.119  1.00  0.00     0.048 C 
HETATM   16  C   UNL     1      40.266  -8.792  12.598  1.00  0.00     0.007 A 
HETATM   17  C   UNL     1      40.579  -9.477  11.418  1.00  0.00     0.014 A 
ENDBRANCH   9  11
ENDBRANCH   1   5
BRANCH   2  18
HETATM   18  N   UNL     1      39.809 -15.023   5.591  1.00  0.00    -0.249 N 
HETATM   19  C   UNL     1      41.011 -15.536   5.125  1.00  0.00     0.339 C 
HETATM   20  N   UNL     1      40.817 -16.340   4.021  1.00  0.00    -0.306 N 
HETATM   21  O   UNL     1      42.071 -15.324   5.705  1.00  0.00    -0.245 OA
HETATM   22  H   UNL     1      39.951 -16.859   4.068  1.00  0.00     0.171 HD
HETATM   23  H   UNL     1      39.072 -14.836   4.915  1.00  0.00     0.192 HD
BRANCH  20  24
HETATM   24  C   UNL     1      41.865 -16.935   3.278  1.00  0.00     0.058 A 
HETATM   25  C   UNL     1      42.413 -16.413   2.090  1.00  0.00     0.060 A 
HETATM   26 CL   UNL     1      41.731 -15.072   1.235  1.00  0.00    -0.082 Cl
HETATM   27  C   UNL     1      43.476 -17.074   1.461  1.00  0.00     0.026 A 
HETATM   28  C   UNL     1      43.978 -18.265   1.982  1.00  0.00     0.002 A 
HETATM   29  C   UNL     1      43.404 -18.817   3.123  1.00  0.00     0.002 A 
HETATM   30  C   UNL     1      42.347 -18.161   3.760  1.00  0.00     0.031 A 
ENDBRANCH  20  24
ENDBRANCH   2  18
TORSDOF 4
ENDMDL
