MODEL 1
REMARK VINA RESULT:      -8.7      0.000      0.000
REMARK  8 active torsions:
REMARK  status: ('A' for Active; 'I' for Inactive)
REMARK    1  A    between atoms: C_3  and  N_4 
REMARK       I    between atoms: N_4  and  C_5 
REMARK    2  A    between atoms: C_5  and  C_6 
REMARK    3  A    between atoms: C_13  and  C_14 
REMARK       I    between atoms: C_14  and  N_15 
REMARK    4  A    between atoms: N_15  and  CA_16 
REMARK    5  A    between atoms: CA_16  and  C_17 
REMARK    6  A    between atoms: CA_16  and  C_27 
REMARK    7  A    between atoms: C_20  and  C_21 
REMARK    8  A    between atoms: C_27  and  O_28 
ROOT
HETATM    1  C   UNL     1      41.106 -15.609   5.358  1.00  0.00     0.252 C 
HETATM    2  N   UNL     1      42.402 -15.989   5.093  1.00  0.00    -0.346 N 
HETATM    3  O   UNL     1      40.444 -16.092   6.271  1.00  0.00    -0.268 OA
HETATM    4  H   UNL     1      42.822 -15.722   4.211  1.00  0.00     0.163 HD
ENDROOT
BRANCH   1   5
HETATM    5  C   UNL     1      40.516 -14.559   4.491  1.00  0.00     0.034 A 
HETATM    6  C   UNL     1      40.383 -14.822   3.121  1.00  0.00     0.047 A 
HETATM    7  C   UNL     1      39.788 -13.892   2.250  1.00  0.00     0.042 A 
HETATM    8  C   UNL     1      39.223 -12.724   2.793  1.00  0.00    -0.035 A 
HETATM    9  C   UNL     1      38.371 -11.748   2.027  1.00  0.00     0.050 C 
HETATM   10  C   UNL     1      39.388 -12.460   4.171  1.00  0.00     0.010 A 
HETATM   11  C   UNL     1      40.031 -13.364   5.016  1.00  0.00     0.017 A 
BRANCH   7  12
HETATM   12  N   UNL     1      39.779 -14.273   0.892  1.00  0.00    -0.321 N 
HETATM   13  C   UNL     1      40.750 -14.080  -0.075  1.00  0.00     0.279 C 
HETATM   14  O   UNL     1      41.849 -13.573   0.109  1.00  0.00    -0.265 OA
HETATM   15  H   UNL     1      39.059 -14.932   0.608  1.00  0.00     0.169 HD
BRANCH  13  16
HETATM   16  C   UNL     1      40.362 -14.615  -1.370  1.00  0.00     0.142 A 
HETATM   17  O   UNL     1      39.227 -14.146  -1.982  1.00  0.00    -0.317 OA
HETATM   18  C   UNL     1      39.105 -14.813  -3.159  1.00  0.00     0.143 A 
HETATM   19  C   UNL     1      40.138 -15.704  -3.321  1.00  0.00     0.027 A 
HETATM   20  C   UNL     1      40.949 -15.579  -2.167  1.00  0.00     0.045 A 
ENDBRANCH  13  16
ENDBRANCH   7  12
ENDBRANCH   1   5
BRANCH   2  21
HETATM   21  CA  UNL     1      43.076 -17.017   5.889  1.00  0.00     0.141 C 
BRANCH  21  22
HETATM   22  C   UNL     1      43.468 -18.193   5.011  1.00  0.00    -0.033 A 
HETATM   23  C   UNL     1      44.260 -19.245   5.499  1.00  0.00     0.010 A 
HETATM   24  C   UNL     1      44.568 -20.340   4.687  1.00  0.00     0.017 A 
HETATM   25  C   UNL     1      44.094 -20.408   3.369  1.00  0.00     0.047 A 
HETATM   26  C   UNL     1      43.307 -19.356   2.880  1.00  0.00     0.017 A 
HETATM   27  C   UNL     1      43.001 -18.260   3.690  1.00  0.00     0.010 A 
BRANCH  25  28
HETATM   28  C   UNL     1      44.382 -21.606   2.496  1.00  0.00     0.417 C 
HETATM   29  F   UNL     1      43.368 -21.908   1.638  1.00  0.00    -0.166 F 
HETATM   30  F   UNL     1      45.487 -21.429   1.722  1.00  0.00    -0.166 F 
HETATM   31  F   UNL     1      44.608 -22.741   3.217  1.00  0.00    -0.166 F 
ENDBRANCH  25  28
ENDBRANCH  21  22
BRANCH  21  32
HETATM   32  C   UNL     1      44.309 -16.457   6.645  1.00  0.00     0.194 C 
BRANCH  32  33
HETATM   33  O   UNL     1      43.945 -15.565   7.700  1.00  0.00    -0.399 OA
HETATM   34  H   UNL     1      44.121 -14.650   7.386  1.00  0.00     0.209 HD
ENDBRANCH  32  33
ENDBRANCH  21  32
ENDBRANCH   2  21
TORSDOF 8
ENDMDL
MODEL 2
REMARK VINA RESULT:      -8.3      3.528      6.939
REMARK  8 active torsions:
REMARK  status: ('A' for Active; 'I' for Inactive)
REMARK    1  A    between atoms: C_3  and  N_4 
REMARK       I    between atoms: N_4  and  C_5 
REMARK    2  A    between atoms: C_5  and  C_6 
REMARK    3  A    between atoms: C_13  and  C_14 
REMARK       I    between atoms: C_14  and  N_15 
REMARK    4  A    between atoms: N_15  and  CA_16 
REMARK    5  A    between atoms: CA_16  and  C_17 
REMARK    6  A    between atoms: CA_16  and  C_27 
REMARK    7  A    between atoms: C_20  and  C_21 
REMARK    8  A    between atoms: C_27  and  O_28 
ROOT
HETATM    1  C   UNL     1      42.155 -13.890   3.093  1.00  0.00     0.252 C 
HETATM    2  N   UNL     1      41.776 -15.175   2.775  1.00  0.00    -0.346 N 
HETATM    3  O   UNL     1      43.106 -13.326   2.561  1.00  0.00    -0.268 OA
HETATM    4  H   UNL     1      41.132 -15.662   3.386  1.00  0.00     0.163 HD
ENDROOT
BRANCH   1   5
HETATM    5  C   UNL     1      41.353 -13.181   4.120  1.00  0.00     0.034 A 
HETATM    6  C   UNL     1      41.979 -12.808   5.317  1.00  0.00     0.047 A 
HETATM    7  C   UNL     1      41.292 -12.089   6.311  1.00  0.00     0.042 A 
HETATM    8  C   UNL     1      39.983 -11.650   6.044  1.00  0.00    -0.035 A 
HETATM    9  C   UNL     1      39.204 -10.698   6.912  1.00  0.00     0.050 C 
HETATM   10  C   UNL     1      39.355 -12.055   4.846  1.00  0.00     0.010 A 
HETATM   11  C   UNL     1      40.029 -12.816   3.891  1.00  0.00     0.017 A 
BRANCH   7  12
HETATM   12  N   UNL     1      42.037 -11.838   7.483  1.00  0.00    -0.321 N 
HETATM   13  C   UNL     1      42.453 -10.628   8.010  1.00  0.00     0.279 C 
HETATM   14  O   UNL     1      42.185  -9.522   7.557  1.00  0.00    -0.265 OA
HETATM   15  H   UNL     1      42.138 -12.612   8.133  1.00  0.00     0.169 HD
BRANCH  13  16
HETATM   16  C   UNL     1      43.213 -10.786   9.239  1.00  0.00     0.142 A 
HETATM   17  O   UNL     1      44.579 -10.896   9.180  1.00  0.00    -0.317 OA
HETATM   18  C   UNL     1      45.024 -11.037  10.455  1.00  0.00     0.143 A 
HETATM   19  C   UNL     1      43.972 -11.020  11.340  1.00  0.00     0.027 A 
HETATM   20  C   UNL     1      42.803 -10.861  10.557  1.00  0.00     0.045 A 
ENDBRANCH  13  16
ENDBRANCH   7  12
ENDBRANCH   1   5
BRANCH   2  21
HETATM   21  CA  UNL     1      42.502 -15.961   1.776  1.00  0.00     0.141 C 
BRANCH  21  22
HETATM   22  C   UNL     1      43.029 -17.245   2.395  1.00  0.00    -0.033 A 
HETATM   23  C   UNL     1      43.794 -18.160   1.654  1.00  0.00     0.010 A 
HETATM   24  C   UNL     1      44.309 -19.310   2.258  1.00  0.00     0.017 A 
HETATM   25  C   UNL     1      44.071 -19.573   3.614  1.00  0.00     0.047 A 
HETATM   26  C   UNL     1      43.304 -18.662   4.354  1.00  0.00     0.017 A 
HETATM   27  C   UNL     1      42.787 -17.513   3.750  1.00  0.00     0.010 A 
BRANCH  25  28
HETATM   28  C   UNL     1      44.659 -20.790   4.289  1.00  0.00     0.417 C 
HETATM   29  F   UNL     1      44.176 -20.998   5.546  1.00  0.00    -0.166 F 
HETATM   30  F   UNL     1      44.411 -21.935   3.599  1.00  0.00    -0.166 F 
HETATM   31  F   UNL     1      46.014 -20.716   4.419  1.00  0.00    -0.166 F 
ENDBRANCH  25  28
ENDBRANCH  21  22
BRANCH  21  32
HETATM   32  C   UNL     1      41.633 -16.267   0.528  1.00  0.00     0.194 C 
BRANCH  32  33
HETATM   33  O   UNL     1      40.573 -17.182   0.810  1.00  0.00    -0.399 OA
HETATM   34  H   UNL     1      40.496 -17.789   0.042  1.00  0.00     0.209 HD
ENDBRANCH  32  33
ENDBRANCH  21  32
ENDBRANCH   2  21
TORSDOF 8
ENDMDL
MODEL 3
REMARK VINA RESULT:      -8.1      4.931      8.856
REMARK  8 active torsions:
REMARK  status: ('A' for Active; 'I' for Inactive)
REMARK    1  A    between atoms: C_3  and  N_4 
REMARK       I    between atoms: N_4  and  C_5 
REMARK    2  A    between atoms: C_5  and  C_6 
REMARK    3  A    between atoms: C_13  and  C_14 
REMARK       I    between atoms: C_14  and  N_15 
REMARK    4  A    between atoms: N_15  and  CA_16 
REMARK    5  A    between atoms: CA_16  and  C_17 
REMARK    6  A    between atoms: CA_16  and  C_27 
REMARK    7  A    between atoms: C_20  and  C_21 
REMARK    8  A    between atoms: C_27  and  O_28 
ROOT
HETATM    1  C   UNL     1      39.845 -14.853   0.667  1.00  0.00     0.252 C 
HETATM    2  N   UNL     1      40.682 -15.139  -0.388  1.00  0.00    -0.346 N 
HETATM    3  O   UNL     1      38.800 -14.225   0.536  1.00  0.00    -0.268 OA
HETATM    4  H   UNL     1      41.621 -15.465  -0.196  1.00  0.00     0.163 HD
ENDROOT
BRANCH   1   5
HETATM    5  C   UNL     1      40.248 -15.350   2.006  1.00  0.00     0.034 A 
HETATM    6  C   UNL     1      41.031 -16.510   2.080  1.00  0.00     0.047 A 
HETATM    7  C   UNL     1      41.490 -17.008   3.312  1.00  0.00     0.042 A 
HETATM    8  C   UNL     1      41.241 -16.262   4.477  1.00  0.00    -0.035 A 
HETATM    9  C   UNL     1      41.845 -16.549   5.825  1.00  0.00     0.050 C 
HETATM   10  C   UNL     1      40.428 -15.110   4.392  1.00  0.00     0.010 A 
HETATM   11  C   UNL     1      39.931 -14.656   3.170  1.00  0.00     0.017 A 
BRANCH   7  12
HETATM   12  N   UNL     1      42.217 -18.214   3.230  1.00  0.00    -0.321 N 
HETATM   13  C   UNL     1      43.438 -18.458   2.625  1.00  0.00     0.279 C 
HETATM   14  O   UNL     1      44.147 -17.619   2.085  1.00  0.00    -0.265 OA
HETATM   15  H   UNL     1      41.915 -18.971   3.836  1.00  0.00     0.169 HD
BRANCH  13  16
HETATM   16  C   UNL     1      43.855 -19.845   2.750  1.00  0.00     0.142 A 
HETATM   17  O   UNL     1      44.418 -20.279   3.924  1.00  0.00    -0.317 OA
HETATM   18  C   UNL     1      44.713 -21.595   3.763  1.00  0.00     0.143 A 
HETATM   19  C   UNL     1      44.353 -22.022   2.508  1.00  0.00     0.027 A 
HETATM   20  C   UNL     1      43.801 -20.895   1.852  1.00  0.00     0.045 A 
ENDBRANCH  13  16
ENDBRANCH   7  12
ENDBRANCH   1   5
BRANCH   2  21
HETATM   21  CA  UNL     1      40.376 -14.693  -1.749  1.00  0.00     0.141 C 
BRANCH  21  22
HETATM   22  C   UNL     1      41.006 -13.336  -2.015  1.00  0.00    -0.033 A 
HETATM   23  C   UNL     1      40.455 -12.438  -2.943  1.00  0.00     0.010 A 
HETATM   24  C   UNL     1      41.024 -11.175  -3.135  1.00  0.00     0.017 A 
HETATM   25  C   UNL     1      42.157 -10.784  -2.408  1.00  0.00     0.047 A 
HETATM   26  C   UNL     1      42.710 -11.682  -1.485  1.00  0.00     0.017 A 
HETATM   27  C   UNL     1      42.143 -12.945  -1.293  1.00  0.00     0.010 A 
BRANCH  25  28
HETATM   28  C   UNL     1      42.754  -9.407  -2.575  1.00  0.00     0.417 C 
HETATM   29  F   UNL     1      43.935  -9.246  -1.914  1.00  0.00    -0.166 F 
HETATM   30  F   UNL     1      43.011  -9.108  -3.877  1.00  0.00    -0.166 F 
HETATM   31  F   UNL     1      41.935  -8.418  -2.118  1.00  0.00    -0.166 F 
ENDBRANCH  25  28
ENDBRANCH  21  22
BRANCH  21  32
HETATM   32  C   UNL     1      40.820 -15.727  -2.816  1.00  0.00     0.194 C 
BRANCH  32  33
HETATM   33  O   UNL     1      41.942 -15.279  -3.578  1.00  0.00    -0.399 OA
HETATM   34  H   UNL     1      42.646 -15.023  -2.943  1.00  0.00     0.209 HD
ENDBRANCH  32  33
ENDBRANCH  21  32
ENDBRANCH   2  21
TORSDOF 8
ENDMDL
MODEL 4
REMARK VINA RESULT:      -7.8      4.098      7.438
REMARK  8 active torsions:
REMARK  status: ('A' for Active; 'I' for Inactive)
REMARK    1  A    between atoms: C_3  and  N_4 
REMARK       I    between atoms: N_4  and  C_5 
REMARK    2  A    between atoms: C_5  and  C_6 
REMARK    3  A    between atoms: C_13  and  C_14 
REMARK       I    between atoms: C_14  and  N_15 
REMARK    4  A    between atoms: N_15  and  CA_16 
REMARK    5  A    between atoms: CA_16  and  C_17 
REMARK    6  A    between atoms: CA_16  and  C_27 
REMARK    7  A    between atoms: C_20  and  C_21 
REMARK    8  A    between atoms: C_27  and  O_28 
ROOT
HETATM    1  C   UNL     1      41.243 -13.432   3.944  1.00  0.00     0.252 C 
HETATM    2  N   UNL     1      40.525 -14.572   3.659  1.00  0.00    -0.346 N 
HETATM    3  O   UNL     1      42.388 -13.250   3.545  1.00  0.00    -0.268 OA
HETATM    4  H   UNL     1      39.680 -14.764   4.183  1.00  0.00     0.163 HD
ENDROOT
BRANCH   1   5
HETATM    5  C   UNL     1      40.569 -12.393   4.761  1.00  0.00     0.034 A 
HETATM    6  C   UNL     1      40.946 -12.251   6.104  1.00  0.00     0.047 A 
HETATM    7  C   UNL     1      40.386 -11.255   6.922  1.00  0.00     0.042 A 
HETATM    8  C   UNL     1      39.508 -10.321   6.343  1.00  0.00    -0.035 A 
HETATM    9  C   UNL     1      38.999  -9.082   7.030  1.00  0.00     0.050 C 
HETATM   10  C   UNL     1      39.116 -10.492   4.997  1.00  0.00     0.010 A 
HETATM   11  C   UNL     1      39.636 -11.519   4.210  1.00  0.00     0.017 A 
BRANCH   7  12
HETATM   12  N   UNL     1      40.821 -11.275   8.263  1.00  0.00    -0.321 N 
HETATM   13  C   UNL     1      41.925 -10.664   8.832  1.00  0.00     0.279 C 
HETATM   14  O   UNL     1      42.712  -9.927   8.250  1.00  0.00    -0.265 OA
HETATM   15  H   UNL     1      40.161 -11.625   8.952  1.00  0.00     0.169 HD
BRANCH  13  16
HETATM   16  C   UNL     1      42.039 -10.930  10.256  1.00  0.00     0.142 A 
HETATM   17  O   UNL     1      40.902 -11.031  11.018  1.00  0.00    -0.317 OA
HETATM   18  C   UNL     1      41.298 -11.275  12.295  1.00  0.00     0.143 A 
HETATM   19  C   UNL     1      42.668 -11.334  12.374  1.00  0.00     0.027 A 
HETATM   20  C   UNL     1      43.148 -11.110  11.061  1.00  0.00     0.045 A 
ENDBRANCH  13  16
ENDBRANCH   7  12
ENDBRANCH   1   5
BRANCH   2  21
HETATM   21  CA  UNL     1      41.098 -15.657   2.860  1.00  0.00     0.141 C 
BRANCH  21  22
HETATM   22  C   UNL     1      41.894 -16.601   3.746  1.00  0.00    -0.033 A 
HETATM   23  C   UNL     1      43.181 -17.035   3.389  1.00  0.00     0.010 A 
HETATM   24  C   UNL     1      43.914 -17.865   4.243  1.00  0.00     0.017 A 
HETATM   25  C   UNL     1      43.377 -18.281   5.469  1.00  0.00     0.047 A 
HETATM   26  C   UNL     1      42.091 -17.852   5.823  1.00  0.00     0.017 A 
HETATM   27  C   UNL     1      41.357 -17.024   4.970  1.00  0.00     0.010 A 
BRANCH  25  28
HETATM   28  C   UNL     1      44.175 -19.141   6.420  1.00  0.00     0.417 C 
HETATM   29  F   UNL     1      44.498 -20.361   5.905  1.00  0.00    -0.166 F 
HETATM   30  F   UNL     1      45.354 -18.563   6.776  1.00  0.00    -0.166 F 
HETATM   31  F   UNL     1      43.515 -19.393   7.585  1.00  0.00    -0.166 F 
ENDBRANCH  25  28
ENDBRANCH  21  22
BRANCH  21  32
HETATM   32  C   UNL     1      40.016 -16.430   2.061  1.00  0.00     0.194 C 
BRANCH  32  33
HETATM   33  O   UNL     1      38.784 -15.712   1.973  1.00  0.00    -0.399 OA
HETATM   34  H   UNL     1      38.975 -14.853   1.535  1.00  0.00     0.209 HD
ENDBRANCH  32  33
ENDBRANCH  21  32
ENDBRANCH   2  21
TORSDOF 8
ENDMDL
MODEL 5
REMARK VINA RESULT:      -7.7      5.846      8.961
REMARK  8 active torsions:
REMARK  status: ('A' for Active; 'I' for Inactive)
REMARK    1  A    between atoms: C_3  and  N_4 
REMARK       I    between atoms: N_4  and  C_5 
REMARK    2  A    between atoms: C_5  and  C_6 
REMARK    3  A    between atoms: C_13  and  C_14 
REMARK       I    between atoms: C_14  and  N_15 
REMARK    4  A    between atoms: N_15  and  CA_16 
REMARK    5  A    between atoms: CA_16  and  C_17 
REMARK    6  A    between atoms: CA_16  and  C_27 
REMARK    7  A    between atoms: C_20  and  C_21 
REMARK    8  A    between atoms: C_27  and  O_28 
ROOT
HETATM    1  C   UNL     1      39.332 -12.228   5.383  1.00  0.00     0.252 C 
HETATM    2  N   UNL     1      40.223 -11.837   6.358  1.00  0.00    -0.346 N 
HETATM    3  O   UNL     1      38.223 -11.721   5.253  1.00  0.00    -0.268 OA
HETATM    4  H   UNL     1      41.023 -12.424   6.556  1.00  0.00     0.163 HD
ENDROOT
BRANCH   1   5
HETATM    5  C   UNL     1      39.769 -13.303   4.459  1.00  0.00     0.034 A 
HETATM    6  C   UNL     1      40.441 -14.411   4.993  1.00  0.00     0.047 A 
HETATM    7  C   UNL     1      40.838 -15.489   4.183  1.00  0.00     0.042 A 
HETATM    8  C   UNL     1      40.455 -15.494   2.830  1.00  0.00    -0.035 A 
HETATM    9  C   UNL     1      40.617 -16.664   1.897  1.00  0.00     0.050 C 
HETATM   10  C   UNL     1      39.801 -14.360   2.299  1.00  0.00     0.010 A 
HETATM   11  C   UNL     1      39.462 -13.271   3.102  1.00  0.00     0.017 A 
BRANCH   7  12
HETATM   12  N   UNL     1      41.556 -16.502   4.853  1.00  0.00    -0.321 N 
HETATM   13  C   UNL     1      42.844 -16.469   5.359  1.00  0.00     0.279 C 
HETATM   14  O   UNL     1      43.588 -15.497   5.356  1.00  0.00    -0.265 OA
HETATM   15  H   UNL     1      41.022 -17.302   5.177  1.00  0.00     0.169 HD
BRANCH  13  16
HETATM   16  C   UNL     1      43.232 -17.726   5.979  1.00  0.00     0.142 A 
HETATM   17  O   UNL     1      43.513 -17.759   7.322  1.00  0.00    -0.317 OA
HETATM   18  C   UNL     1      43.847 -19.039   7.628  1.00  0.00     0.143 A 
HETATM   19  C   UNL     1      43.789 -19.836   6.510  1.00  0.00     0.027 A 
HETATM   20  C   UNL     1      43.395 -18.990   5.445  1.00  0.00     0.045 A 
ENDBRANCH  13  16
ENDBRANCH   7  12
ENDBRANCH   1   5
BRANCH   2  21
HETATM   21  CA  UNL     1      39.889 -10.785   7.321  1.00  0.00     0.141 C 
BRANCH  21  22
HETATM   22  C   UNL     1      40.896 -10.772   8.459  1.00  0.00    -0.033 A 
HETATM   23  C   UNL     1      40.489 -10.689   9.801  1.00  0.00     0.010 A 
HETATM   24  C   UNL     1      41.430 -10.728  10.833  1.00  0.00     0.017 A 
HETATM   25  C   UNL     1      42.798 -10.847  10.549  1.00  0.00     0.047 A 
HETATM   26  C   UNL     1      43.205 -10.925   9.210  1.00  0.00     0.017 A 
HETATM   27  C   UNL     1      42.265 -10.885   8.178  1.00  0.00     0.010 A 
BRANCH  25  28
HETATM   28  C   UNL     1      43.821 -10.934  11.657  1.00  0.00     0.417 C 
HETATM   29  F   UNL     1      43.660  -9.983  12.619  1.00  0.00    -0.166 F 
HETATM   30  F   UNL     1      43.783 -12.130  12.304  1.00  0.00    -0.166 F 
HETATM   31  F   UNL     1      45.099 -10.793  11.206  1.00  0.00    -0.166 F 
ENDBRANCH  25  28
ENDBRANCH  21  22
BRANCH  21  32
HETATM   32  C   UNL     1      39.794  -9.389   6.652  1.00  0.00     0.194 C 
BRANCH  32  33
HETATM   33  O   UNL     1      38.444  -8.968   6.454  1.00  0.00    -0.399 OA
HETATM   34  H   UNL     1      38.298  -8.174   7.013  1.00  0.00     0.209 HD
ENDBRANCH  32  33
ENDBRANCH  21  32
ENDBRANCH   2  21
TORSDOF 8
ENDMDL
MODEL 6
REMARK VINA RESULT:      -7.6      3.016      3.743
REMARK  8 active torsions:
REMARK  status: ('A' for Active; 'I' for Inactive)
REMARK    1  A    between atoms: C_3  and  N_4 
REMARK       I    between atoms: N_4  and  C_5 
REMARK    2  A    between atoms: C_5  and  C_6 
REMARK    3  A    between atoms: C_13  and  C_14 
REMARK       I    between atoms: C_14  and  N_15 
REMARK    4  A    between atoms: N_15  and  CA_16 
REMARK    5  A    between atoms: CA_16  and  C_17 
REMARK    6  A    between atoms: CA_16  and  C_27 
REMARK    7  A    between atoms: C_20  and  C_21 
REMARK    8  A    between atoms: C_27  and  O_28 
ROOT
HETATM    1  C   UNL     1      40.755 -14.103   2.473  1.00  0.00     0.252 C 
HETATM    2  N   UNL     1      41.742 -15.033   2.236  1.00  0.00    -0.346 N 
HETATM    3  O   UNL     1      40.580 -13.583   3.570  1.00  0.00    -0.268 OA
HETATM    4  H   UNL     1      41.706 -15.581   1.385  1.00  0.00     0.163 HD
ENDROOT
BRANCH   1   5
HETATM    5  C   UNL     1      39.890 -13.725   1.328  1.00  0.00     0.034 A 
HETATM    6  C   UNL     1      40.455 -12.985   0.280  1.00  0.00     0.047 A 
HETATM    7  C   UNL     1      39.707 -12.636  -0.858  1.00  0.00     0.042 A 
HETATM    8  C   UNL     1      38.398 -13.136  -0.985  1.00  0.00    -0.035 A 
HETATM    9  C   UNL     1      37.557 -13.030  -2.229  1.00  0.00     0.050 C 
HETATM   10  C   UNL     1      37.833 -13.857   0.090  1.00  0.00     0.010 A 
HETATM   11  C   UNL     1      38.567 -14.149   1.239  1.00  0.00     0.017 A 
BRANCH   7  12
HETATM   12  N   UNL     1      40.394 -11.841  -1.799  1.00  0.00    -0.321 N 
HETATM   13  C   UNL     1      41.244 -12.234  -2.818  1.00  0.00     0.279 C 
HETATM   14  O   UNL     1      41.509 -13.391  -3.121  1.00  0.00    -0.265 OA
HETATM   15  H   UNL     1      40.106 -10.870  -1.873  1.00  0.00     0.169 HD
BRANCH  13  16
HETATM   16  C   UNL     1      41.766 -11.108  -3.574  1.00  0.00     0.142 A 
HETATM   17  O   UNL     1      41.733  -9.851  -3.025  1.00  0.00    -0.317 OA
HETATM   18  C   UNL     1      42.273  -9.002  -3.938  1.00  0.00     0.143 A 
HETATM   19  C   UNL     1      42.655  -9.685  -5.067  1.00  0.00     0.027 A 
HETATM   20  C   UNL     1      42.327 -11.042  -4.836  1.00  0.00     0.045 A 
ENDBRANCH  13  16
ENDBRANCH   7  12
ENDBRANCH   1   5
BRANCH   2  21
HETATM   21  CA  UNL     1      42.648 -15.474   3.298  1.00  0.00     0.141 C 
BRANCH  21  22
HETATM   22  C   UNL     1      43.020 -16.935   3.102  1.00  0.00    -0.033 A 
HETATM   23  C   UNL     1      43.208 -17.482   1.823  1.00  0.00     0.010 A 
HETATM   24  C   UNL     1      43.598 -18.815   1.670  1.00  0.00     0.017 A 
HETATM   25  C   UNL     1      43.806 -19.632   2.790  1.00  0.00     0.047 A 
HETATM   26  C   UNL     1      43.615 -19.088   4.067  1.00  0.00     0.017 A 
HETATM   27  C   UNL     1      43.223 -17.755   4.221  1.00  0.00     0.010 A 
BRANCH  25  28
HETATM   28  C   UNL     1      44.270 -21.061   2.639  1.00  0.00     0.417 C 
HETATM   29  F   UNL     1      45.380 -21.190   1.860  1.00  0.00    -0.166 F 
HETATM   30  F   UNL     1      44.582 -21.634   3.833  1.00  0.00    -0.166 F 
HETATM   31  F   UNL     1      43.325 -21.865   2.074  1.00  0.00    -0.166 F 
ENDBRANCH  25  28
ENDBRANCH  21  22
BRANCH  21  32
HETATM   32  C   UNL     1      43.917 -14.588   3.389  1.00  0.00     0.194 C 
BRANCH  32  33
HETATM   33  O   UNL     1      43.710 -13.415   4.178  1.00  0.00    -0.399 OA
HETATM   34  H   UNL     1      42.795 -13.102   4.005  1.00  0.00     0.209 HD
ENDBRANCH  32  33
ENDBRANCH  21  32
ENDBRANCH   2  21
TORSDOF 8
ENDMDL
MODEL 7
REMARK VINA RESULT:      -7.6      4.104      8.912
REMARK  8 active torsions:
REMARK  status: ('A' for Active; 'I' for Inactive)
REMARK    1  A    between atoms: C_3  and  N_4 
REMARK       I    between atoms: N_4  and  C_5 
REMARK    2  A    between atoms: C_5  and  C_6 
REMARK    3  A    between atoms: C_13  and  C_14 
REMARK       I    between atoms: C_14  and  N_15 
REMARK    4  A    between atoms: N_15  and  CA_16 
REMARK    5  A    between atoms: CA_16  and  C_17 
REMARK    6  A    between atoms: CA_16  and  C_27 
REMARK    7  A    between atoms: C_20  and  C_21 
REMARK    8  A    between atoms: C_27  and  O_28 
ROOT
HETATM    1  C   UNL     1      42.104 -13.394   2.831  1.00  0.00     0.252 C 
HETATM    2  N   UNL     1      40.737 -13.426   2.666  1.00  0.00    -0.346 N 
HETATM    3  O   UNL     1      42.838 -12.675   2.162  1.00  0.00    -0.268 OA
HETATM    4  H   UNL     1      40.209 -14.181   3.086  1.00  0.00     0.163 HD
ENDROOT
BRANCH   1   5
HETATM    5  C   UNL     1      42.681 -14.271   3.879  1.00  0.00     0.034 A 
HETATM    6  C   UNL     1      43.039 -13.698   5.107  1.00  0.00     0.047 A 
HETATM    7  C   UNL     1      43.544 -14.478   6.162  1.00  0.00     0.042 A 
HETATM    8  C   UNL     1      43.588 -15.875   6.006  1.00  0.00    -0.035 A 
HETATM    9  C   UNL     1      43.898 -16.851   7.110  1.00  0.00     0.050 C 
HETATM   10  C   UNL     1      43.251 -16.437   4.755  1.00  0.00     0.010 A 
HETATM   11  C   UNL     1      42.804 -15.646   3.697  1.00  0.00     0.017 A 
BRANCH   7  12
HETATM   12  N   UNL     1      43.913 -13.752   7.313  1.00  0.00    -0.321 N 
HETATM   13  C   UNL     1      45.149 -13.231   7.657  1.00  0.00     0.279 C 
HETATM   14  O   UNL     1      46.158 -13.270   6.964  1.00  0.00    -0.265 OA
HETATM   15  H   UNL     1      43.157 -13.397   7.891  1.00  0.00     0.169 HD
BRANCH  13  16
HETATM   16  C   UNL     1      45.129 -12.548   8.939  1.00  0.00     0.142 A 
HETATM   17  O   UNL     1      44.453 -13.108   9.994  1.00  0.00    -0.317 OA
HETATM   18  C   UNL     1      44.594 -12.266  11.051  1.00  0.00     0.143 A 
HETATM   19  C   UNL     1      45.348 -11.172  10.701  1.00  0.00     0.027 A 
HETATM   20  C   UNL     1      45.691 -11.350   9.340  1.00  0.00     0.045 A 
ENDBRANCH  13  16
ENDBRANCH   7  12
ENDBRANCH   1   5
BRANCH   2  21
HETATM   21  CA  UNL     1      40.068 -12.599   1.659  1.00  0.00     0.141 C 
BRANCH  21  22
HETATM   22  C   UNL     1      39.845 -13.396   0.385  1.00  0.00    -0.033 A 
HETATM   23  C   UNL     1      38.630 -13.338  -0.317  1.00  0.00     0.010 A 
HETATM   24  C   UNL     1      38.465 -14.042  -1.513  1.00  0.00     0.017 A 
HETATM   25  C   UNL     1      39.508 -14.822  -2.033  1.00  0.00     0.047 A 
HETATM   26  C   UNL     1      40.719 -14.883  -1.331  1.00  0.00     0.017 A 
HETATM   27  C   UNL     1      40.885 -14.182  -0.134  1.00  0.00     0.010 A 
BRANCH  25  28
HETATM   28  C   UNL     1      39.357 -15.551  -3.347  1.00  0.00     0.417 C 
HETATM   29  F   UNL     1      39.916 -14.892  -4.400  1.00  0.00    -0.166 F 
HETATM   30  F   UNL     1      39.937 -16.782  -3.325  1.00  0.00    -0.166 F 
HETATM   31  F   UNL     1      38.053 -15.757  -3.688  1.00  0.00    -0.166 F 
ENDBRANCH  25  28
ENDBRANCH  21  22
BRANCH  21  32
HETATM   32  C   UNL     1      38.733 -12.007   2.181  1.00  0.00     0.194 C 
BRANCH  32  33
HETATM   33  O   UNL     1      38.708 -11.885   3.604  1.00  0.00    -0.399 OA
HETATM   34  H   UNL     1      37.894 -11.390   3.843  1.00  0.00     0.209 HD
ENDBRANCH  32  33
ENDBRANCH  21  32
ENDBRANCH   2  21
TORSDOF 8
ENDMDL
MODEL 8
REMARK VINA RESULT:      -7.5      2.027      2.289
REMARK  8 active torsions:
REMARK  status: ('A' for Active; 'I' for Inactive)
REMARK    1  A    between atoms: C_3  and  N_4 
REMARK       I    between atoms: N_4  and  C_5 
REMARK    2  A    between atoms: C_5  and  C_6 
REMARK    3  A    between atoms: C_13  and  C_14 
REMARK       I    between atoms: C_14  and  N_15 
REMARK    4  A    between atoms: N_15  and  CA_16 
REMARK    5  A    between atoms: CA_16  and  C_17 
REMARK    6  A    between atoms: CA_16  and  C_27 
REMARK    7  A    between atoms: C_20  and  C_21 
REMARK    8  A    between atoms: C_27  and  O_28 
ROOT
HETATM    1  C   UNL     1      43.074 -13.814   4.994  1.00  0.00     0.252 C 
HETATM    2  N   UNL     1      42.386 -14.838   5.604  1.00  0.00    -0.346 N 
HETATM    3  O   UNL     1      44.296 -13.713   5.039  1.00  0.00    -0.268 OA
HETATM    4  H   UNL     1      41.383 -14.756   5.717  1.00  0.00     0.163 HD
ENDROOT
BRANCH   1   5
HETATM    5  C   UNL     1      42.276 -12.810   4.247  1.00  0.00     0.034 A 
HETATM    6  C   UNL     1      42.098 -12.989   2.869  1.00  0.00     0.047 A 
HETATM    7  C   UNL     1      41.312 -12.105   2.109  1.00  0.00     0.042 A 
HETATM    8  C   UNL     1      40.609 -11.085   2.775  1.00  0.00    -0.035 A 
HETATM    9  C   UNL     1      39.569 -10.203   2.137  1.00  0.00     0.050 C 
HETATM   10  C   UNL     1      40.817 -10.900   4.159  1.00  0.00     0.010 A 
HETATM   11  C   UNL     1      41.645 -11.750   4.893  1.00  0.00     0.017 A 
BRANCH   7  12
HETATM   12  N   UNL     1      41.276 -12.382   0.726  1.00  0.00    -0.321 N 
HETATM   13  C   UNL     1      42.103 -11.912  -0.279  1.00  0.00     0.279 C 
HETATM   14  O   UNL     1      43.080 -11.190  -0.122  1.00  0.00    -0.265 OA
HETATM   15  H   UNL     1      40.694 -13.160   0.432  1.00  0.00     0.169 HD
BRANCH  13  16
HETATM   16  C   UNL     1      41.737 -12.426  -1.589  1.00  0.00     0.142 A 
HETATM   17  O   UNL     1      40.423 -12.395  -1.983  1.00  0.00    -0.317 OA
HETATM   18  C   UNL     1      40.368 -12.934  -3.229  1.00  0.00     0.143 A 
HETATM   19  C   UNL     1      41.620 -13.313  -3.648  1.00  0.00     0.027 A 
HETATM   20  C   UNL     1      42.504 -12.989  -2.592  1.00  0.00     0.045 A 
ENDBRANCH  13  16
ENDBRANCH   7  12
ENDBRANCH   1   5
BRANCH   2  21
HETATM   21  CA  UNL     1      43.080 -15.878   6.365  1.00  0.00     0.141 C 
BRANCH  21  22
HETATM   22  C   UNL     1      43.337 -17.092   5.488  1.00  0.00    -0.033 A 
HETATM   23  C   UNL     1      42.596 -17.326   4.318  1.00  0.00     0.010 A 
HETATM   24  C   UNL     1      42.884 -18.423   3.501  1.00  0.00     0.017 A 
HETATM   25  C   UNL     1      43.916 -19.312   3.836  1.00  0.00     0.047 A 
HETATM   26  C   UNL     1      44.653 -19.082   5.005  1.00  0.00     0.017 A 
HETATM   27  C   UNL     1      44.364 -17.986   5.823  1.00  0.00     0.010 A 
BRANCH  25  28
HETATM   28  C   UNL     1      44.265 -20.476   2.939  1.00  0.00     0.417 C 
HETATM   29  F   UNL     1      43.391 -20.646   1.908  1.00  0.00    -0.166 F 
HETATM   30  F   UNL     1      45.493 -20.341   2.369  1.00  0.00    -0.166 F 
HETATM   31  F   UNL     1      44.290 -21.665   3.604  1.00  0.00    -0.166 F 
ENDBRANCH  25  28
ENDBRANCH  21  22
BRANCH  21  32
HETATM   32  C   UNL     1      44.400 -15.361   6.994  1.00  0.00     0.194 C 
BRANCH  32  33
HETATM   33  O   UNL     1      44.173 -14.490   8.103  1.00  0.00    -0.399 OA
HETATM   34  H   UNL     1      43.723 -15.015   8.802  1.00  0.00     0.209 HD
ENDBRANCH  32  33
ENDBRANCH  21  32
ENDBRANCH   2  21
TORSDOF 8
ENDMDL
MODEL 9
REMARK VINA RESULT:      -7.5      6.196      8.132
REMARK  8 active torsions:
REMARK  status: ('A' for Active; 'I' for Inactive)
REMARK    1  A    between atoms: C_3  and  N_4 
REMARK       I    between atoms: N_4  and  C_5 
REMARK    2  A    between atoms: C_5  and  C_6 
REMARK    3  A    between atoms: C_13  and  C_14 
REMARK       I    between atoms: C_14  and  N_15 
REMARK    4  A    between atoms: N_15  and  CA_16 
REMARK    5  A    between atoms: CA_16  and  C_17 
REMARK    6  A    between atoms: CA_16  and  C_27 
REMARK    7  A    between atoms: C_20  and  C_21 
REMARK    8  A    between atoms: C_27  and  O_28 
ROOT
HETATM    1  C   UNL     1      39.484 -12.774   5.922  1.00  0.00     0.252 C 
HETATM    2  N   UNL     1      40.307 -12.238   6.886  1.00  0.00    -0.346 N 
HETATM    3  O   UNL     1      38.400 -12.283   5.623  1.00  0.00    -0.268 OA
HETATM    4  H   UNL     1      41.075 -12.793   7.240  1.00  0.00     0.163 HD
ENDROOT
BRANCH   1   5
HETATM    5  C   UNL     1      39.962 -13.993   5.224  1.00  0.00     0.034 A 
HETATM    6  C   UNL     1      39.905 -14.027   3.824  1.00  0.00     0.047 A 
HETATM    7  C   UNL     1      40.388 -15.129   3.097  1.00  0.00     0.042 A 
HETATM    8  C   UNL     1      41.034 -16.167   3.793  1.00  0.00    -0.035 A 
HETATM    9  C   UNL     1      41.786 -17.297   3.143  1.00  0.00     0.050 C 
HETATM   10  C   UNL     1      41.060 -16.133   5.205  1.00  0.00     0.010 A 
HETATM   11  C   UNL     1      40.528 -15.059   5.918  1.00  0.00     0.017 A 
BRANCH   7  12
HETATM   12  N   UNL     1      40.209 -15.043   1.700  1.00  0.00    -0.321 N 
HETATM   13  C   UNL     1      40.997 -14.406   0.757  1.00  0.00     0.279 C 
HETATM   14  O   UNL     1      42.056 -13.833   0.981  1.00  0.00    -0.265 OA
HETATM   15  H   UNL     1      39.523 -15.668   1.289  1.00  0.00     0.169 HD
BRANCH  13  16
HETATM   16  C   UNL     1      40.470 -14.538  -0.591  1.00  0.00     0.142 A 
HETATM   17  O   UNL     1      41.119 -15.340  -1.496  1.00  0.00    -0.317 OA
HETATM   18  C   UNL     1      40.422 -15.275  -2.659  1.00  0.00     0.143 A 
HETATM   19  C   UNL     1      39.334 -14.446  -2.526  1.00  0.00     0.027 A 
HETATM   20  C   UNL     1      39.364 -13.968  -1.194  1.00  0.00     0.045 A 
ENDBRANCH  13  16
ENDBRANCH   7  12
ENDBRANCH   1   5
BRANCH   2  21
HETATM   21  CA  UNL     1      39.927 -11.037   7.633  1.00  0.00     0.141 C 
BRANCH  21  22
HETATM   22  C   UNL     1      40.839 -10.852   8.835  1.00  0.00    -0.033 A 
HETATM   23  C   UNL     1      42.216 -10.623   8.687  1.00  0.00     0.010 A 
HETATM   24  C   UNL     1      43.026 -10.408   9.805  1.00  0.00     0.017 A 
HETATM   25  C   UNL     1      42.479 -10.419  11.096  1.00  0.00     0.047 A 
HETATM   26  C   UNL     1      41.105 -10.651  11.245  1.00  0.00     0.017 A 
HETATM   27  C   UNL     1      40.295 -10.868  10.128  1.00  0.00     0.010 A 
BRANCH  25  28
HETATM   28  C   UNL     1      43.336 -10.144  12.309  1.00  0.00     0.417 C 
HETATM   29  F   UNL     1      44.671 -10.270  12.069  1.00  0.00    -0.166 F 
HETATM   30  F   UNL     1      43.161  -8.884  12.792  1.00  0.00    -0.166 F 
HETATM   31  F   UNL     1      43.064 -10.984  13.348  1.00  0.00    -0.166 F 
ENDBRANCH  25  28
ENDBRANCH  21  22
BRANCH  21  32
HETATM   32  C   UNL     1      39.927  -9.768   6.740  1.00  0.00     0.194 C 
BRANCH  32  33
HETATM   33  O   UNL     1      38.612  -9.388   6.332  1.00  0.00    -0.399 OA
HETATM   34  H   UNL     1      38.291 -10.069   5.701  1.00  0.00     0.209 HD
ENDBRANCH  32  33
ENDBRANCH  21  32
ENDBRANCH   2  21
TORSDOF 8
ENDMDL
MODEL 10
REMARK VINA RESULT:      -7.4      2.478      3.124
REMARK  8 active torsions:
REMARK  status: ('A' for Active; 'I' for Inactive)
REMARK    1  A    between atoms: C_3  and  N_4 
REMARK       I    between atoms: N_4  and  C_5 
REMARK    2  A    between atoms: C_5  and  C_6 
REMARK    3  A    between atoms: C_13  and  C_14 
REMARK       I    between atoms: C_14  and  N_15 
REMARK    4  A    between atoms: N_15  and  CA_16 
REMARK    5  A    between atoms: CA_16  and  C_17 
REMARK    6  A    between atoms: CA_16  and  C_27 
REMARK    7  A    between atoms: C_20  and  C_21 
REMARK    8  A    between atoms: C_27  and  O_28 
ROOT
HETATM    1  C   UNL     1      42.594 -14.276   5.289  1.00  0.00     0.252 C 
HETATM    2  N   UNL     1      42.124 -15.339   6.027  1.00  0.00    -0.346 N 
HETATM    3  O   UNL     1      43.788 -14.076   5.096  1.00  0.00    -0.268 OA
HETATM    4  H   UNL     1      41.159 -15.337   6.333  1.00  0.00     0.163 HD
ENDROOT
BRANCH   1   5
HETATM    5  C   UNL     1      41.585 -13.357   4.707  1.00  0.00     0.034 A 
HETATM    6  C   UNL     1      41.919 -12.649   3.544  1.00  0.00     0.047 A 
HETATM    7  C   UNL     1      40.994 -11.800   2.910  1.00  0.00     0.042 A 
HETATM    8  C   UNL     1      39.678 -11.749   3.403  1.00  0.00    -0.035 A 
HETATM    9  C   UNL     1      38.530 -11.062   2.712  1.00  0.00     0.050 C 
HETATM   10  C   UNL     1      39.362 -12.446   4.590  1.00  0.00     0.010 A 
HETATM   11  C   UNL     1      40.305 -13.241   5.242  1.00  0.00     0.017 A 
BRANCH   7  12
HETATM   12  N   UNL     1      41.495 -11.112   1.786  1.00  0.00    -0.321 N 
HETATM   13  C   UNL     1      41.813 -11.605   0.532  1.00  0.00     0.279 C 
HETATM   14  O   UNL     1      41.655 -12.760   0.157  1.00  0.00    -0.265 OA
HETATM   15  H   UNL     1      41.455 -10.098   1.816  1.00  0.00     0.169 HD
BRANCH  13  16
HETATM   16  C   UNL     1      42.312 -10.573  -0.363  1.00  0.00     0.142 A 
HETATM   17  O   UNL     1      43.597 -10.654  -0.837  1.00  0.00    -0.317 OA
HETATM   18  C   UNL     1      43.796  -9.573  -1.636  1.00  0.00     0.143 A 
HETATM   19  C   UNL     1      42.665  -8.794  -1.687  1.00  0.00     0.027 A 
HETATM   20  C   UNL     1      41.708  -9.436  -0.865  1.00  0.00     0.045 A 
ENDBRANCH  13  16
ENDBRANCH   7  12
ENDBRANCH   1   5
BRANCH   2  21
HETATM   21  CA  UNL     1      43.036 -16.303   6.645  1.00  0.00     0.141 C 
BRANCH  21  22
HETATM   22  C   UNL     1      43.330 -17.444   5.684  1.00  0.00    -0.033 A 
HETATM   23  C   UNL     1      42.527 -17.683   4.558  1.00  0.00     0.010 A 
HETATM   24  C   UNL     1      42.845 -18.708   3.662  1.00  0.00     0.017 A 
HETATM   25  C   UNL     1      43.970 -19.517   3.873  1.00  0.00     0.047 A 
HETATM   26  C   UNL     1      44.770 -19.281   4.999  1.00  0.00     0.017 A 
HETATM   27  C   UNL     1      44.452 -18.259   5.896  1.00  0.00     0.010 A 
BRANCH  25  28
HETATM   28  C   UNL     1      44.349 -20.598   2.889  1.00  0.00     0.417 C 
HETATM   29  F   UNL     1      43.602 -20.580   1.750  1.00  0.00    -0.166 F 
HETATM   30  F   UNL     1      45.646 -20.502   2.487  1.00  0.00    -0.166 F 
HETATM   31  F   UNL     1      44.209 -21.852   3.404  1.00  0.00    -0.166 F 
ENDBRANCH  25  28
ENDBRANCH  21  22
BRANCH  21  32
HETATM   32  C   UNL     1      44.350 -15.638   7.130  1.00  0.00     0.194 C 
BRANCH  32  33
HETATM   33  O   UNL     1      44.121 -14.630   8.117  1.00  0.00    -0.399 OA
HETATM   34  H   UNL     1      44.707 -13.871   7.903  1.00  0.00     0.209 HD
ENDBRANCH  32  33
ENDBRANCH  21  32
ENDBRANCH   2  21
TORSDOF 8
ENDMDL
