MODEL 1
REMARK VINA RESULT:      -9.8      0.000      0.000
REMARK  7 active torsions:
REMARK  status: ('A' for Active; 'I' for Inactive)
REMARK    1  A    between atoms: C_6  and  C_7 
REMARK       I    between atoms: C_7  and  N_8 
REMARK    2  A    between atoms: N_8  and  C_9 
REMARK    3  A    between atoms: C_9  and  C_10 
REMARK       I    between atoms: C_10  and  N_11 
REMARK    4  A    between atoms: N_11  and  N_12 
REMARK       I    between atoms: N_12  and  C_13 
REMARK    5  A    between atoms: C_13  and  C_14 
REMARK    6  A    between atoms: C_14  and  N_15 
REMARK    7  A    between atoms: N_15  and  C_16 
ROOT
HETATM    1  C   UNL     1      44.415 -14.036   7.190  1.00  0.00     0.253 C 
HETATM    2  N   UNL     1      43.264 -13.491   6.662  1.00  0.00    -0.266 N 
HETATM    3  O   UNL     1      44.732 -15.214   7.018  1.00  0.00    -0.270 OA
HETATM    4  H   UNL     1      42.981 -12.523   6.805  1.00  0.00     0.190 HD
ENDROOT
BRANCH   2   5
HETATM    5  N   UNL     1      42.524 -14.257   5.754  1.00  0.00    -0.266 N 
HETATM    6  C   UNL     1      42.836 -14.139   4.412  1.00  0.00     0.258 C 
HETATM    7  O   UNL     1      43.564 -13.247   3.970  1.00  0.00    -0.269 OA
HETATM    8  H   UNL     1      42.118 -15.111   6.136  1.00  0.00     0.190 HD
BRANCH   6   9
HETATM    9  C   UNL     1      42.185 -15.208   3.514  1.00  0.00     0.173 C 
HETATM   10  C   UNL     1      40.862 -14.687   2.961  1.00  0.00     0.042 C 
BRANCH   9  11
HETATM   11  N   UNL     1      41.928 -16.415   4.301  1.00  0.00    -0.356 N 
HETATM   12  H   UNL     1      41.722 -16.234   5.284  1.00  0.00     0.162 HD
BRANCH  11  13
HETATM   13  C   UNL     1      42.549 -17.569   3.982  1.00  0.00     0.168 A 
HETATM   14  S   UNL     1      43.652 -18.286   5.087  1.00  0.00    -0.050 SA
HETATM   15  C   UNL     1      43.933 -19.575   3.985  1.00  0.00     0.037 A 
HETATM   16  C   UNL     1      43.165 -19.362   2.840  1.00  0.00     0.076 A 
HETATM   17  C   UNL     1      44.773 -20.693   4.118  1.00  0.00     0.021 A 
HETATM   18  N   UNL     1      42.378 -18.223   2.858  1.00  0.00    -0.223 NA
HETATM   19  C   UNL     1      43.248 -20.292   1.785  1.00  0.00     0.033 A 
HETATM   20  C   UNL     1      44.086 -21.406   1.903  1.00  0.00     0.002 A 
HETATM   21  C   UNL     1      44.835 -21.603   3.058  1.00  0.00     0.002 A 
ENDBRANCH  11  13
ENDBRANCH   9  11
ENDBRANCH   6   9
ENDBRANCH   2   5
BRANCH   1  22
HETATM   22  C   UNL     1      45.219 -13.086   8.071  1.00  0.00     0.227 C 
BRANCH  22  23
HETATM   23  N   UNL     1      44.329 -12.415   8.997  1.00  0.00    -0.348 N 
HETATM   24  C   UNL     1      44.682 -11.188   9.517  1.00  0.00     0.252 C 
HETATM   25  O   UNL     1      45.761 -10.656   9.283  1.00  0.00    -0.268 OA
HETATM   26  H   UNL     1      43.346 -12.651   8.941  1.00  0.00     0.163 HD
BRANCH  24  27
HETATM   27  C   UNL     1      43.657 -10.500  10.349  1.00  0.00     0.032 A 
HETATM   28  C   UNL     1      43.962 -10.212  11.684  1.00  0.00     0.024 A 
HETATM   29  C   UNL     1      43.030  -9.567  12.515  1.00  0.00    -0.055 A 
HETATM   30  C   UNL     1      41.758  -9.240  12.001  1.00  0.00    -0.056 A 
HETATM   31  C   UNL     1      43.400  -9.280  13.945  1.00  0.00     0.049 C 
HETATM   32  C   UNL     1      40.719  -8.557  12.846  1.00  0.00     0.049 C 
HETATM   33  C   UNL     1      41.461  -9.536  10.660  1.00  0.00     0.008 A 
HETATM   34  C   UNL     1      42.400 -10.165   9.839  1.00  0.00     0.017 A 
ENDBRANCH  24  27
ENDBRANCH  22  23
ENDBRANCH   1  22
TORSDOF 7
ENDMDL
MODEL 2
REMARK VINA RESULT:      -9.8      2.134     10.947
REMARK  7 active torsions:
REMARK  status: ('A' for Active; 'I' for Inactive)
REMARK    1  A    between atoms: C_6  and  C_7 
REMARK       I    between atoms: C_7  and  N_8 
REMARK    2  A    between atoms: N_8  and  C_9 
REMARK    3  A    between atoms: C_9  and  C_10 
REMARK       I    between atoms: C_10  and  N_11 
REMARK    4  A    between atoms: N_11  and  N_12 
REMARK       I    between atoms: N_12  and  C_13 
REMARK    5  A    between atoms: C_13  and  C_14 
REMARK    6  A    between atoms: C_14  and  N_15 
REMARK    7  A    between atoms: N_15  and  C_16 
ROOT
HETATM    1  C   UNL     1      42.665 -13.806   4.318  1.00  0.00     0.253 C 
HETATM    2  N   UNL     1      42.919 -14.377   5.546  1.00  0.00    -0.266 N 
HETATM    3  O   UNL     1      42.501 -12.594   4.170  1.00  0.00    -0.270 OA
HETATM    4  H   UNL     1      43.046 -15.379   5.688  1.00  0.00     0.190 HD
ENDROOT
BRANCH   2   5
HETATM    5  N   UNL     1      43.174 -13.531   6.631  1.00  0.00    -0.266 N 
HETATM    6  C   UNL     1      44.424 -13.600   7.219  1.00  0.00     0.258 C 
HETATM    7  O   UNL     1      45.226 -14.507   6.981  1.00  0.00    -0.269 OA
HETATM    8  H   UNL     1      42.618 -12.676   6.655  1.00  0.00     0.190 HD
BRANCH   6   9
HETATM    9  C   UNL     1      44.723 -12.457   8.206  1.00  0.00     0.173 C 
HETATM   10  C   UNL     1      46.222 -12.385   8.480  1.00  0.00     0.042 C 
BRANCH   9  11
HETATM   11  N   UNL     1      44.021 -12.704   9.466  1.00  0.00    -0.356 N 
HETATM   12  H   UNL     1      43.460 -13.555   9.469  1.00  0.00     0.162 HD
BRANCH  11  13
HETATM   13  C   UNL     1      43.606 -11.664  10.218  1.00  0.00     0.168 A 
HETATM   14  S   UNL     1      42.580 -10.465   9.537  1.00  0.00    -0.050 SA
HETATM   15  C   UNL     1      42.556  -9.621  11.035  1.00  0.00     0.037 A 
HETATM   16  C   UNL     1      43.344 -10.315  11.953  1.00  0.00     0.076 A 
HETATM   17  C   UNL     1      41.893  -8.431  11.375  1.00  0.00     0.021 A 
HETATM   18  N   UNL     1      43.925 -11.478  11.477  1.00  0.00    -0.223 NA
HETATM   19  C   UNL     1      43.484  -9.795  13.256  1.00  0.00     0.033 A 
HETATM   20  C   UNL     1      42.833  -8.607  13.605  1.00  0.00     0.002 A 
HETATM   21  C   UNL     1      42.045  -7.938  12.675  1.00  0.00     0.002 A 
ENDBRANCH  11  13
ENDBRANCH   9  11
ENDBRANCH   6   9
ENDBRANCH   2   5
BRANCH   1  22
HETATM   22  C   UNL     1      42.523 -14.802   3.173  1.00  0.00     0.227 C 
BRANCH  22  23
HETATM   23  N   UNL     1      42.857 -16.131   3.644  1.00  0.00    -0.348 N 
HETATM   24  C   UNL     1      43.481 -17.021   2.795  1.00  0.00     0.252 C 
HETATM   25  O   UNL     1      43.712 -16.762   1.619  1.00  0.00    -0.268 OA
HETATM   26  H   UNL     1      42.985 -16.245   4.642  1.00  0.00     0.163 HD
BRANCH  24  27
HETATM   27  C   UNL     1      43.917 -18.312   3.392  1.00  0.00     0.032 A 
HETATM   28  C   UNL     1      43.985 -19.442   2.567  1.00  0.00     0.024 A 
HETATM   29  C   UNL     1      44.388 -20.687   3.079  1.00  0.00    -0.055 A 
HETATM   30  C   UNL     1      44.692 -20.802   4.451  1.00  0.00    -0.056 A 
HETATM   31  C   UNL     1      44.443 -21.874   2.156  1.00  0.00     0.049 C 
HETATM   32  C   UNL     1      45.120 -22.111   5.055  1.00  0.00     0.049 C 
HETATM   33  C   UNL     1      44.618 -19.664   5.270  1.00  0.00     0.008 A 
HETATM   34  C   UNL     1      44.230 -18.428   4.749  1.00  0.00     0.017 A 
ENDBRANCH  24  27
ENDBRANCH  22  23
ENDBRANCH   1  22
TORSDOF 7
ENDMDL
MODEL 3
REMARK VINA RESULT:      -9.6      1.142      1.467
REMARK  7 active torsions:
REMARK  status: ('A' for Active; 'I' for Inactive)
REMARK    1  A    between atoms: C_6  and  C_7 
REMARK       I    between atoms: C_7  and  N_8 
REMARK    2  A    between atoms: N_8  and  C_9 
REMARK    3  A    between atoms: C_9  and  C_10 
REMARK       I    between atoms: C_10  and  N_11 
REMARK    4  A    between atoms: N_11  and  N_12 
REMARK       I    between atoms: N_12  and  C_13 
REMARK    5  A    between atoms: C_13  and  C_14 
REMARK    6  A    between atoms: C_14  and  N_15 
REMARK    7  A    between atoms: N_15  and  C_16 
ROOT
HETATM    1  C   UNL     1      44.291 -14.138   7.134  1.00  0.00     0.253 C 
HETATM    2  N   UNL     1      43.066 -13.605   6.795  1.00  0.00    -0.266 N 
HETATM    3  O   UNL     1      44.630 -15.279   6.815  1.00  0.00    -0.270 OA
HETATM    4  H   UNL     1      42.765 -12.668   7.060  1.00  0.00     0.190 HD
ENDROOT
BRANCH   2   5
HETATM    5  N   UNL     1      42.253 -14.321   5.909  1.00  0.00    -0.266 N 
HETATM    6  C   UNL     1      41.935 -13.723   4.703  1.00  0.00     0.258 C 
HETATM    7  O   UNL     1      42.144 -12.529   4.473  1.00  0.00    -0.269 OA
HETATM    8  H   UNL     1      42.289 -15.335   6.010  1.00  0.00     0.190 HD
BRANCH   6   9
HETATM    9  C   UNL     1      41.286 -14.671   3.678  1.00  0.00     0.173 C 
HETATM   10  C   UNL     1      39.944 -14.105   3.224  1.00  0.00     0.042 C 
BRANCH   9  11
HETATM   11  N   UNL     1      41.066 -15.979   4.295  1.00  0.00    -0.356 N 
HETATM   12  H   UNL     1      40.681 -15.935   5.238  1.00  0.00     0.162 HD
BRANCH  11  13
HETATM   13  C   UNL     1      41.876 -17.012   3.985  1.00  0.00     0.168 A 
HETATM   14  S   UNL     1      41.894 -17.640   2.385  1.00  0.00    -0.050 SA
HETATM   15  C   UNL     1      43.077 -18.800   2.844  1.00  0.00     0.037 A 
HETATM   16  C   UNL     1      43.372 -18.630   4.196  1.00  0.00     0.076 A 
HETATM   17  C   UNL     1      43.699 -19.792   2.068  1.00  0.00     0.021 A 
HETATM   18  N   UNL     1      42.688 -17.604   4.827  1.00  0.00    -0.223 NA
HETATM   19  C   UNL     1      44.313 -19.488   4.799  1.00  0.00     0.033 A 
HETATM   20  C   UNL     1      44.934 -20.485   4.038  1.00  0.00     0.002 A 
HETATM   21  C   UNL     1      44.631 -20.630   2.688  1.00  0.00     0.002 A 
ENDBRANCH  11  13
ENDBRANCH   9  11
ENDBRANCH   6   9
ENDBRANCH   2   5
BRANCH   1  22
HETATM   22  C   UNL     1      45.158 -13.234   8.002  1.00  0.00     0.227 C 
BRANCH  22  23
HETATM   23  N   UNL     1      44.324 -12.234   8.640  1.00  0.00    -0.348 N 
HETATM   24  C   UNL     1      44.305 -12.138  10.016  1.00  0.00     0.252 C 
HETATM   25  O   UNL     1      44.917 -12.913  10.742  1.00  0.00    -0.268 OA
HETATM   26  H   UNL     1      44.095 -11.412   8.095  1.00  0.00     0.163 HD
BRANCH  24  27
HETATM   27  C   UNL     1      43.536 -11.000  10.589  1.00  0.00     0.032 A 
HETATM   28  C   UNL     1      43.772 -10.636  11.921  1.00  0.00     0.024 A 
HETATM   29  C   UNL     1      43.072  -9.570  12.513  1.00  0.00    -0.055 A 
HETATM   30  C   UNL     1      42.094  -8.886  11.763  1.00  0.00    -0.056 A 
HETATM   31  C   UNL     1      43.356  -9.217  13.948  1.00  0.00     0.049 C 
HETATM   32  C   UNL     1      41.309  -7.745  12.348  1.00  0.00     0.049 C 
HETATM   33  C   UNL     1      41.863  -9.261  10.429  1.00  0.00     0.008 A 
HETATM   34  C   UNL     1      42.574 -10.312   9.845  1.00  0.00     0.017 A 
ENDBRANCH  24  27
ENDBRANCH  22  23
ENDBRANCH   1  22
TORSDOF 7
ENDMDL
MODEL 4
REMARK VINA RESULT:      -9.4      2.612     10.957
REMARK  7 active torsions:
REMARK  status: ('A' for Active; 'I' for Inactive)
REMARK    1  A    between atoms: C_6  and  C_7 
REMARK       I    between atoms: C_7  and  N_8 
REMARK    2  A    between atoms: N_8  and  C_9 
REMARK    3  A    between atoms: C_9  and  C_10 
REMARK       I    between atoms: C_10  and  N_11 
REMARK    4  A    between atoms: N_11  and  N_12 
REMARK       I    between atoms: N_12  and  C_13 
REMARK    5  A    between atoms: C_13  and  C_14 
REMARK    6  A    between atoms: C_14  and  N_15 
REMARK    7  A    between atoms: N_15  and  C_16 
ROOT
HETATM    1  C   UNL     1      43.217 -13.948   4.606  1.00  0.00     0.253 C 
HETATM    2  N   UNL     1      42.033 -13.477   5.132  1.00  0.00    -0.266 N 
HETATM    3  O   UNL     1      44.318 -13.624   5.053  1.00  0.00    -0.270 OA
HETATM    4  H   UNL     1      41.114 -13.725   4.767  1.00  0.00     0.190 HD
ENDROOT
BRANCH   2   5
HETATM    5  N   UNL     1      42.082 -12.746   6.324  1.00  0.00    -0.266 N 
HETATM    6  C   UNL     1      41.601 -11.449   6.303  1.00  0.00     0.258 C 
HETATM    7  O   UNL     1      41.346 -10.848   5.256  1.00  0.00    -0.269 OA
HETATM    8  H   UNL     1      42.074 -13.306   7.177  1.00  0.00     0.190 HD
BRANCH   6   9
HETATM    9  C   UNL     1      41.426 -10.816   7.696  1.00  0.00     0.173 C 
HETATM   10  C   UNL     1      41.431  -9.295   7.580  1.00  0.00     0.042 C 
BRANCH   9  11
HETATM   11  N   UNL     1      42.530 -11.231   8.562  1.00  0.00    -0.356 N 
HETATM   12  H   UNL     1      42.965 -12.112   8.289  1.00  0.00     0.162 HD
BRANCH  11  13
HETATM   13  C   UNL     1      42.514 -10.907   9.871  1.00  0.00     0.168 A 
HETATM   14  S   UNL     1      43.915 -10.238  10.608  1.00  0.00    -0.050 SA
HETATM   15  C   UNL     1      43.089 -10.144  12.114  1.00  0.00     0.037 A 
HETATM   16  C   UNL     1      41.796 -10.639  11.947  1.00  0.00     0.076 A 
HETATM   17  C   UNL     1      43.549  -9.670  13.353  1.00  0.00     0.021 A 
HETATM   18  N   UNL     1      41.482 -11.060  10.666  1.00  0.00    -0.223 NA
HETATM   19  C   UNL     1      40.935 -10.674  13.062  1.00  0.00     0.033 A 
HETATM   20  C   UNL     1      41.384 -10.210  14.304  1.00  0.00     0.002 A 
HETATM   21  C   UNL     1      42.675  -9.712  14.443  1.00  0.00     0.002 A 
ENDBRANCH  11  13
ENDBRANCH   9  11
ENDBRANCH   6   9
ENDBRANCH   2   5
BRANCH   1  22
HETATM   22  C   UNL     1      43.055 -14.836   3.377  1.00  0.00     0.227 C 
BRANCH  22  23
HETATM   23  N   UNL     1      43.262 -16.221   3.751  1.00  0.00    -0.348 N 
HETATM   24  C   UNL     1      43.685 -17.129   2.804  1.00  0.00     0.252 C 
HETATM   25  O   UNL     1      43.834 -16.832   1.623  1.00  0.00    -0.268 OA
HETATM   26  H   UNL     1      43.469 -16.407   4.725  1.00  0.00     0.163 HD
BRANCH  24  27
HETATM   27  C   UNL     1      44.009 -18.497   3.294  1.00  0.00     0.032 A 
HETATM   28  C   UNL     1      44.006 -19.555   2.377  1.00  0.00     0.024 A 
HETATM   29  C   UNL     1      44.302 -20.866   2.786  1.00  0.00    -0.055 A 
HETATM   30  C   UNL     1      44.569 -21.120   4.148  1.00  0.00    -0.056 A 
HETATM   31  C   UNL     1      44.284 -21.972   1.767  1.00  0.00     0.049 C 
HETATM   32  C   UNL     1      44.883 -22.504   4.644  1.00  0.00     0.049 C 
HETATM   33  C   UNL     1      44.567 -20.051   5.060  1.00  0.00     0.008 A 
HETATM   34  C   UNL     1      44.285 -18.750   4.640  1.00  0.00     0.017 A 
ENDBRANCH  24  27
ENDBRANCH  22  23
ENDBRANCH   1  22
TORSDOF 7
ENDMDL
MODEL 5
REMARK VINA RESULT:      -9.3      2.659     11.556
REMARK  7 active torsions:
REMARK  status: ('A' for Active; 'I' for Inactive)
REMARK    1  A    between atoms: C_6  and  C_7 
REMARK       I    between atoms: C_7  and  N_8 
REMARK    2  A    between atoms: N_8  and  C_9 
REMARK    3  A    between atoms: C_9  and  C_10 
REMARK       I    between atoms: C_10  and  N_11 
REMARK    4  A    between atoms: N_11  and  N_12 
REMARK       I    between atoms: N_12  and  C_13 
REMARK    5  A    between atoms: C_13  and  C_14 
REMARK    6  A    between atoms: C_14  and  N_15 
REMARK    7  A    between atoms: N_15  and  C_16 
ROOT
HETATM    1  C   UNL     1      43.598 -14.414   6.656  1.00  0.00     0.253 C 
HETATM    2  N   UNL     1      43.700 -13.092   7.035  1.00  0.00    -0.266 N 
HETATM    3  O   UNL     1      44.044 -15.337   7.339  1.00  0.00    -0.270 OA
HETATM    4  H   UNL     1      43.347 -12.316   6.477  1.00  0.00     0.190 HD
ENDROOT
BRANCH   2   5
HETATM    5  N   UNL     1      44.169 -12.806   8.322  1.00  0.00    -0.266 N 
HETATM    6  C   UNL     1      43.741 -11.632   8.915  1.00  0.00     0.258 C 
HETATM    7  O   UNL     1      43.159 -10.741   8.291  1.00  0.00    -0.269 OA
HETATM    8  H   UNL     1      44.438 -13.619   8.877  1.00  0.00     0.190 HD
BRANCH   6   9
HETATM    9  C   UNL     1      44.065 -11.527  10.417  1.00  0.00     0.173 C 
HETATM   10  C   UNL     1      45.237 -12.441  10.762  1.00  0.00     0.042 C 
BRANCH   9  11
HETATM   11  N   UNL     1      42.897 -11.935  11.198  1.00  0.00    -0.356 N 
HETATM   12  H   UNL     1      42.264 -12.562  10.702  1.00  0.00     0.162 HD
BRANCH  11  13
HETATM   13  C   UNL     1      42.374 -11.095  12.114  1.00  0.00     0.168 A 
HETATM   14  S   UNL     1      41.139  -9.989  11.659  1.00  0.00    -0.050 SA
HETATM   15  C   UNL     1      41.076  -9.385  13.268  1.00  0.00     0.037 A 
HETATM   16  C   UNL     1      42.013 -10.069  14.041  1.00  0.00     0.076 A 
HETATM   17  C   UNL     1      40.261  -8.377  13.808  1.00  0.00     0.021 A 
HETATM   18  N   UNL     1      42.736 -11.043  13.373  1.00  0.00    -0.223 NA
HETATM   19  C   UNL     1      42.149  -9.727  15.401  1.00  0.00     0.033 A 
HETATM   20  C   UNL     1      41.348  -8.720  15.950  1.00  0.00     0.002 A 
HETATM   21  C   UNL     1      40.413  -8.058  15.161  1.00  0.00     0.002 A 
ENDBRANCH  11  13
ENDBRANCH   9  11
ENDBRANCH   6   9
ENDBRANCH   2   5
BRANCH   1  22
HETATM   22  C   UNL     1      42.962 -14.633   5.288  1.00  0.00     0.227 C 
BRANCH  22  23
HETATM   23  N   UNL     1      43.117 -16.021   4.901  1.00  0.00    -0.348 N 
HETATM   24  C   UNL     1      43.177 -16.355   3.564  1.00  0.00     0.252 C 
HETATM   25  O   UNL     1      43.036 -15.529   2.669  1.00  0.00    -0.268 OA
HETATM   26  H   UNL     1      43.555 -16.639   5.573  1.00  0.00     0.163 HD
BRANCH  24  27
HETATM   27  C   UNL     1      43.476 -17.779   3.249  1.00  0.00     0.032 A 
HETATM   28  C   UNL     1      43.986 -18.596   4.265  1.00  0.00     0.024 A 
HETATM   29  C   UNL     1      44.289 -19.947   4.023  1.00  0.00    -0.055 A 
HETATM   30  C   UNL     1      44.108 -20.471   2.726  1.00  0.00    -0.056 A 
HETATM   31  C   UNL     1      44.838 -20.786   5.144  1.00  0.00     0.049 C 
HETATM   32  C   UNL     1      44.423 -21.906   2.407  1.00  0.00     0.049 C 
HETATM   33  C   UNL     1      43.598 -19.642   1.713  1.00  0.00     0.008 A 
HETATM   34  C   UNL     1      43.288 -18.305   1.968  1.00  0.00     0.017 A 
ENDBRANCH  24  27
ENDBRANCH  22  23
ENDBRANCH   1  22
TORSDOF 7
ENDMDL
MODEL 6
REMARK VINA RESULT:      -9.3      2.618     10.961
REMARK  7 active torsions:
REMARK  status: ('A' for Active; 'I' for Inactive)
REMARK    1  A    between atoms: C_6  and  C_7 
REMARK       I    between atoms: C_7  and  N_8 
REMARK    2  A    between atoms: N_8  and  C_9 
REMARK    3  A    between atoms: C_9  and  C_10 
REMARK       I    between atoms: C_10  and  N_11 
REMARK    4  A    between atoms: N_11  and  N_12 
REMARK       I    between atoms: N_12  and  C_13 
REMARK    5  A    between atoms: C_13  and  C_14 
REMARK    6  A    between atoms: C_14  and  N_15 
REMARK    7  A    between atoms: N_15  and  C_16 
ROOT
HETATM    1  C   UNL     1      43.079 -13.867   4.649  1.00  0.00     0.253 C 
HETATM    2  N   UNL     1      41.926 -13.236   5.064  1.00  0.00    -0.266 N 
HETATM    3  O   UNL     1      44.173 -13.666   5.179  1.00  0.00    -0.270 OA
HETATM    4  H   UNL     1      41.015 -13.382   4.630  1.00  0.00     0.190 HD
ENDROOT
BRANCH   2   5
HETATM    5  N   UNL     1      41.971 -12.478   6.239  1.00  0.00    -0.266 N 
HETATM    6  C   UNL     1      41.435 -11.203   6.201  1.00  0.00     0.258 C 
HETATM    7  O   UNL     1      41.130 -10.637   5.148  1.00  0.00    -0.269 OA
HETATM    8  H   UNL     1      42.006 -13.018   7.103  1.00  0.00     0.190 HD
BRANCH   6   9
HETATM    9  C   UNL     1      41.265 -10.546   7.583  1.00  0.00     0.173 C 
HETATM   10  C   UNL     1      41.402  -9.032   7.461  1.00  0.00     0.042 C 
BRANCH   9  11
HETATM   11  N   UNL     1      42.299 -11.045   8.490  1.00  0.00    -0.356 N 
HETATM   12  H   UNL     1      42.706 -11.936   8.207  1.00  0.00     0.162 HD
BRANCH  11  13
HETATM   13  C   UNL     1      42.225 -10.769   9.809  1.00  0.00     0.168 A 
HETATM   14  S   UNL     1      40.744 -10.989  10.652  1.00  0.00    -0.050 SA
HETATM   15  C   UNL     1      41.484 -10.458  12.110  1.00  0.00     0.037 A 
HETATM   16  C   UNL     1      42.817 -10.142  11.847  1.00  0.00     0.076 A 
HETATM   17  C   UNL     1      40.929 -10.326  13.393  1.00  0.00     0.021 A 
HETATM   18  N   UNL     1      43.224 -10.333  10.538  1.00  0.00    -0.223 NA
HETATM   19  C   UNL     1      43.622  -9.666  12.901  1.00  0.00     0.033 A 
HETATM   20  C   UNL     1      43.078  -9.524  14.183  1.00  0.00     0.002 A 
HETATM   21  C   UNL     1      41.749  -9.855  14.423  1.00  0.00     0.002 A 
ENDBRANCH  11  13
ENDBRANCH   9  11
ENDBRANCH   6   9
ENDBRANCH   2   5
BRANCH   1  22
HETATM   22  C   UNL     1      42.906 -14.769   3.433  1.00  0.00     0.227 C 
BRANCH  22  23
HETATM   23  N   UNL     1      43.150 -16.146   3.814  1.00  0.00    -0.348 N 
HETATM   24  C   UNL     1      43.635 -17.038   2.880  1.00  0.00     0.252 C 
HETATM   25  O   UNL     1      43.811 -16.735   1.705  1.00  0.00    -0.268 OA
HETATM   26  H   UNL     1      43.332 -16.326   4.793  1.00  0.00     0.163 HD
BRANCH  24  27
HETATM   27  C   UNL     1      43.992 -18.393   3.381  1.00  0.00     0.032 A 
HETATM   28  C   UNL     1      44.006 -19.459   2.473  1.00  0.00     0.024 A 
HETATM   29  C   UNL     1      44.334 -20.760   2.892  1.00  0.00    -0.055 A 
HETATM   30  C   UNL     1      44.614 -20.995   4.254  1.00  0.00    -0.056 A 
HETATM   31  C   UNL     1      44.333 -21.876   1.883  1.00  0.00     0.049 C 
HETATM   32  C   UNL     1      44.962 -22.368   4.761  1.00  0.00     0.049 C 
HETATM   33  C   UNL     1      44.594 -19.919   5.157  1.00  0.00     0.008 A 
HETATM   34  C   UNL     1      44.282 -18.628   4.727  1.00  0.00     0.017 A 
ENDBRANCH  24  27
ENDBRANCH  22  23
ENDBRANCH   1  22
TORSDOF 7
ENDMDL
MODEL 7
REMARK VINA RESULT:      -9.2      3.257     11.026
REMARK  7 active torsions:
REMARK  status: ('A' for Active; 'I' for Inactive)
REMARK    1  A    between atoms: C_6  and  C_7 
REMARK       I    between atoms: C_7  and  N_8 
REMARK    2  A    between atoms: N_8  and  C_9 
REMARK    3  A    between atoms: C_9  and  C_10 
REMARK       I    between atoms: C_10  and  N_11 
REMARK    4  A    between atoms: N_11  and  N_12 
REMARK       I    between atoms: N_12  and  C_13 
REMARK    5  A    between atoms: C_13  and  C_14 
REMARK    6  A    between atoms: C_14  and  N_15 
REMARK    7  A    between atoms: N_15  and  C_16 
ROOT
HETATM    1  C   UNL     1      40.301 -13.834   5.286  1.00  0.00     0.253 C 
HETATM    2  N   UNL     1      39.302 -13.532   6.187  1.00  0.00    -0.266 N 
HETATM    3  O   UNL     1      41.458 -13.430   5.417  1.00  0.00    -0.270 OA
HETATM    4  H   UNL     1      38.339 -13.849   6.088  1.00  0.00     0.190 HD
ENDROOT
BRANCH   2   5
HETATM    5  N   UNL     1      39.656 -12.893   7.380  1.00  0.00    -0.266 N 
HETATM    6  C   UNL     1      39.381 -11.542   7.491  1.00  0.00     0.258 C 
HETATM    7  O   UNL     1      39.051 -10.846   6.528  1.00  0.00    -0.269 OA
HETATM    8  H   UNL     1      39.703 -13.499   8.199  1.00  0.00     0.190 HD
BRANCH   6   9
HETATM    9  C   UNL     1      39.535 -10.980   8.916  1.00  0.00     0.173 C 
HETATM   10  C   UNL     1      39.305  -9.472   8.908  1.00  0.00     0.042 C 
BRANCH   9  11
HETATM   11  N   UNL     1      40.887 -11.253   9.405  1.00  0.00    -0.356 N 
HETATM   12  H   UNL     1      41.300 -12.107   9.030  1.00  0.00     0.162 HD
BRANCH  11  13
HETATM   13  C   UNL     1      41.243 -10.864  10.646  1.00  0.00     0.168 A 
HETATM   14  S   UNL     1      40.301 -11.343  12.001  1.00  0.00    -0.050 SA
HETATM   15  C   UNL     1      41.366 -10.497  13.053  1.00  0.00     0.037 A 
HETATM   16  C   UNL     1      42.368  -9.898  12.289  1.00  0.00     0.076 A 
HETATM   17  C   UNL     1      41.320 -10.367  14.450  1.00  0.00     0.021 A 
HETATM   18  N   UNL     1      42.290 -10.124  10.926  1.00  0.00    -0.223 NA
HETATM   19  C   UNL     1      43.353  -9.132  12.944  1.00  0.00     0.033 A 
HETATM   20  C   UNL     1      43.314  -8.990  14.336  1.00  0.00     0.002 A 
HETATM   21  C   UNL     1      42.310  -9.604  15.077  1.00  0.00     0.002 A 
ENDBRANCH  11  13
ENDBRANCH   9  11
ENDBRANCH   6   9
ENDBRANCH   2   5
BRANCH   1  22
HETATM   22  C   UNL     1      39.842 -14.639   4.076  1.00  0.00     0.227 C 
BRANCH  22  23
HETATM   23  N   UNL     1      40.617 -15.859   3.984  1.00  0.00    -0.348 N 
HETATM   24  C   UNL     1      41.277 -16.163   2.811  1.00  0.00     0.252 C 
HETATM   25  O   UNL     1      41.185 -15.473   1.802  1.00  0.00    -0.268 OA
HETATM   26  H   UNL     1      40.971 -16.244   4.851  1.00  0.00     0.163 HD
BRANCH  24  27
HETATM   27  C   UNL     1      42.163 -17.359   2.841  1.00  0.00     0.032 A 
HETATM   28  C   UNL     1      42.787 -17.700   4.047  1.00  0.00     0.024 A 
HETATM   29  C   UNL     1      43.635 -18.817   4.130  1.00  0.00    -0.055 A 
HETATM   30  C   UNL     1      43.887 -19.580   2.971  1.00  0.00    -0.056 A 
HETATM   31  C   UNL     1      44.287 -19.144   5.446  1.00  0.00     0.049 C 
HETATM   32  C   UNL     1      44.792 -20.781   3.000  1.00  0.00     0.049 C 
HETATM   33  C   UNL     1      43.258 -19.228   1.766  1.00  0.00     0.008 A 
HETATM   34  C   UNL     1      42.405 -18.124   1.697  1.00  0.00     0.017 A 
ENDBRANCH  24  27
ENDBRANCH  22  23
ENDBRANCH   1  22
TORSDOF 7
ENDMDL
MODEL 8
REMARK VINA RESULT:      -9.0      2.312      3.344
REMARK  7 active torsions:
REMARK  status: ('A' for Active; 'I' for Inactive)
REMARK    1  A    between atoms: C_6  and  C_7 
REMARK       I    between atoms: C_7  and  N_8 
REMARK    2  A    between atoms: N_8  and  C_9 
REMARK    3  A    between atoms: C_9  and  C_10 
REMARK       I    between atoms: C_10  and  N_11 
REMARK    4  A    between atoms: N_11  and  N_12 
REMARK       I    between atoms: N_12  and  C_13 
REMARK    5  A    between atoms: C_13  and  C_14 
REMARK    6  A    between atoms: C_14  and  N_15 
REMARK    7  A    between atoms: N_15  and  C_16 
ROOT
HETATM    1  C   UNL     1      41.410 -13.203   5.603  1.00  0.00     0.253 C 
HETATM    2  N   UNL     1      42.479 -13.733   6.293  1.00  0.00    -0.266 N 
HETATM    3  O   UNL     1      40.767 -13.851   4.775  1.00  0.00    -0.270 OA
HETATM    4  H   UNL     1      43.029 -13.208   6.972  1.00  0.00     0.190 HD
ENDROOT
BRANCH   2   5
HETATM    5  N   UNL     1      42.728 -15.105   6.178  1.00  0.00    -0.266 N 
HETATM    6  C   UNL     1      43.597 -15.678   7.089  1.00  0.00     0.258 C 
HETATM    7  O   UNL     1      44.317 -15.012   7.837  1.00  0.00    -0.269 OA
HETATM    8  H   UNL     1      41.985 -15.645   5.734  1.00  0.00     0.190 HD
BRANCH   6   9
HETATM    9  C   UNL     1      43.599 -17.218   7.079  1.00  0.00     0.173 C 
HETATM   10  C   UNL     1      43.703 -17.748   8.506  1.00  0.00     0.042 C 
BRANCH   9  11
HETATM   11  N   UNL     1      44.746 -17.699   6.308  1.00  0.00    -0.356 N 
HETATM   12  H   UNL     1      45.499 -17.018   6.215  1.00  0.00     0.162 HD
BRANCH  11  13
HETATM   13  C   UNL     1      44.559 -18.584   5.308  1.00  0.00     0.168 A 
HETATM   14  S   UNL     1      43.806 -18.082   3.846  1.00  0.00    -0.050 SA
HETATM   15  C   UNL     1      43.963 -19.672   3.209  1.00  0.00     0.037 A 
HETATM   16  C   UNL     1      44.576 -20.480   4.166  1.00  0.00     0.076 A 
HETATM   17  C   UNL     1      43.570 -20.171   1.957  1.00  0.00     0.021 A 
HETATM   18  N   UNL     1      44.917 -19.845   5.348  1.00  0.00    -0.223 NA
HETATM   19  C   UNL     1      44.795 -21.839   3.866  1.00  0.00     0.033 A 
HETATM   20  C   UNL     1      44.402 -22.351   2.624  1.00  0.00     0.002 A 
HETATM   21  C   UNL     1      43.801 -21.523   1.682  1.00  0.00     0.002 A 
ENDBRANCH  11  13
ENDBRANCH   9  11
ENDBRANCH   6   9
ENDBRANCH   2   5
BRANCH   1  22
HETATM   22  C   UNL     1      41.141 -11.729   5.884  1.00  0.00     0.227 C 
BRANCH  22  23
HETATM   23  N   UNL     1      41.691 -11.377   7.178  1.00  0.00    -0.348 N 
HETATM   24  C   UNL     1      40.859 -10.894   8.166  1.00  0.00     0.252 C 
HETATM   25  O   UNL     1      39.666 -10.682   7.981  1.00  0.00    -0.268 OA
HETATM   26  H   UNL     1      42.550 -11.838   7.453  1.00  0.00     0.163 HD
BRANCH  24  27
HETATM   27  C   UNL     1      41.472 -10.688   9.507  1.00  0.00     0.032 A 
HETATM   28  C   UNL     1      40.729 -11.032  10.643  1.00  0.00     0.024 A 
HETATM   29  C   UNL     1      41.258 -10.856  11.933  1.00  0.00    -0.055 A 
HETATM   30  C   UNL     1      42.541 -10.290  12.080  1.00  0.00    -0.056 A 
HETATM   31  C   UNL     1      40.422 -11.237  13.124  1.00  0.00     0.049 C 
HETATM   32  C   UNL     1      43.154 -10.070  13.436  1.00  0.00     0.049 C 
HETATM   33  C   UNL     1      43.277  -9.945  10.934  1.00  0.00     0.008 A 
HETATM   34  C   UNL     1      42.747 -10.137   9.656  1.00  0.00     0.017 A 
ENDBRANCH  24  27
ENDBRANCH  22  23
ENDBRANCH   1  22
TORSDOF 7
ENDMDL
MODEL 9
REMARK VINA RESULT:      -8.9      4.302      8.544
REMARK  7 active torsions:
REMARK  status: ('A' for Active; 'I' for Inactive)
REMARK    1  A    between atoms: C_6  and  C_7 
REMARK       I    between atoms: C_7  and  N_8 
REMARK    2  A    between atoms: N_8  and  C_9 
REMARK    3  A    between atoms: C_9  and  C_10 
REMARK       I    between atoms: C_10  and  N_11 
REMARK    4  A    between atoms: N_11  and  N_12 
REMARK       I    between atoms: N_12  and  C_13 
REMARK    5  A    between atoms: C_13  and  C_14 
REMARK    6  A    between atoms: C_14  and  N_15 
REMARK    7  A    between atoms: N_15  and  C_16 
ROOT
HETATM    1  C   UNL     1      42.681 -15.183   6.513  1.00  0.00     0.253 C 
HETATM    2  N   UNL     1      42.847 -13.815   6.542  1.00  0.00    -0.266 N 
HETATM    3  O   UNL     1      41.571 -15.716   6.456  1.00  0.00    -0.270 OA
HETATM    4  H   UNL     1      43.757 -13.359   6.600  1.00  0.00     0.190 HD
ENDROOT
BRANCH   2   5
HETATM    5  N   UNL     1      41.728 -13.006   6.322  1.00  0.00    -0.266 N 
HETATM    6  C   UNL     1      41.641 -12.346   5.109  1.00  0.00     0.258 C 
HETATM    7  O   UNL     1      42.589 -12.263   4.324  1.00  0.00    -0.269 OA
HETATM    8  H   UNL     1      40.895 -13.264   6.851  1.00  0.00     0.190 HD
BRANCH   6   9
HETATM    9  C   UNL     1      40.265 -11.712   4.830  1.00  0.00     0.173 C 
HETATM   10  C   UNL     1      39.676 -11.159   6.123  1.00  0.00     0.042 C 
BRANCH   9  11
HETATM   11  N   UNL     1      39.361 -12.729   4.292  1.00  0.00    -0.356 N 
HETATM   12  H   UNL     1      38.643 -13.036   4.948  1.00  0.00     0.162 HD
BRANCH  11  13
HETATM   13  C   UNL     1      39.812 -13.615   3.380  1.00  0.00     0.168 A 
HETATM   14  S   UNL     1      40.193 -13.090   1.788  1.00  0.00    -0.050 SA
HETATM   15  C   UNL     1      40.641 -14.694   1.358  1.00  0.00     0.037 A 
HETATM   16  C   UNL     1      40.460 -15.523   2.465  1.00  0.00     0.076 A 
HETATM   17  C   UNL     1      41.115 -15.186   0.131  1.00  0.00     0.021 A 
HETATM   18  N   UNL     1      39.998 -14.892   3.608  1.00  0.00    -0.223 NA
HETATM   19  C   UNL     1      40.752 -16.895   2.339  1.00  0.00     0.033 A 
HETATM   20  C   UNL     1      41.218 -17.400   1.120  1.00  0.00     0.002 A 
HETATM   21  C   UNL     1      41.400 -16.552   0.032  1.00  0.00     0.002 A 
ENDBRANCH  11  13
ENDBRANCH   9  11
ENDBRANCH   6   9
ENDBRANCH   2   5
BRANCH   1  22
HETATM   22  C   UNL     1      43.973 -15.982   6.638  1.00  0.00     0.227 C 
BRANCH  22  23
HETATM   23  N   UNL     1      44.058 -16.936   5.550  1.00  0.00    -0.348 N 
HETATM   24  C   UNL     1      44.352 -18.256   5.821  1.00  0.00     0.252 C 
HETATM   25  O   UNL     1      44.615 -18.658   6.949  1.00  0.00    -0.268 OA
HETATM   26  H   UNL     1      43.540 -16.719   4.708  1.00  0.00     0.163 HD
BRANCH  24  27
HETATM   27  C   UNL     1      44.285 -19.199   4.671  1.00  0.00     0.032 A 
HETATM   28  C   UNL     1      44.598 -20.546   4.890  1.00  0.00     0.024 A 
HETATM   29  C   UNL     1      44.553 -21.479   3.840  1.00  0.00    -0.055 A 
HETATM   30  C   UNL     1      44.222 -21.039   2.541  1.00  0.00    -0.056 A 
HETATM   31  C   UNL     1      44.900 -22.915   4.122  1.00  0.00     0.049 C 
HETATM   32  C   UNL     1      44.167 -21.990   1.378  1.00  0.00     0.049 C 
HETATM   33  C   UNL     1      43.913 -19.685   2.332  1.00  0.00     0.008 A 
HETATM   34  C   UNL     1      43.947 -18.769   3.385  1.00  0.00     0.017 A 
ENDBRANCH  24  27
ENDBRANCH  22  23
ENDBRANCH   1  22
TORSDOF 7
ENDMDL
MODEL 10
REMARK VINA RESULT:      -8.9      2.866     10.262
REMARK  7 active torsions:
REMARK  status: ('A' for Active; 'I' for Inactive)
REMARK    1  A    between atoms: C_6  and  C_7 
REMARK       I    between atoms: C_7  and  N_8 
REMARK    2  A    between atoms: N_8  and  C_9 
REMARK    3  A    between atoms: C_9  and  C_10 
REMARK       I    between atoms: C_10  and  N_11 
REMARK    4  A    between atoms: N_11  and  N_12 
REMARK       I    between atoms: N_12  and  C_13 
REMARK    5  A    between atoms: C_13  and  C_14 
REMARK    6  A    between atoms: C_14  and  N_15 
REMARK    7  A    between atoms: N_15  and  C_16 
ROOT
HETATM    1  C   UNL     1      43.266 -14.505   6.350  1.00  0.00     0.253 C 
HETATM    2  N   UNL     1      41.947 -14.267   6.024  1.00  0.00    -0.266 N 
HETATM    3  O   UNL     1      44.156 -13.673   6.167  1.00  0.00    -0.270 OA
HETATM    4  H   UNL     1      41.201 -14.948   6.158  1.00  0.00     0.190 HD
ENDROOT
BRANCH   2   5
HETATM    5  N   UNL     1      41.583 -12.972   5.639  1.00  0.00    -0.266 N 
HETATM    6  C   UNL     1      40.420 -12.446   6.172  1.00  0.00     0.258 C 
HETATM    7  O   UNL     1      39.594 -13.131   6.780  1.00  0.00    -0.269 OA
HETATM    8  H   UNL     1      42.355 -12.374   5.344  1.00  0.00     0.190 HD
BRANCH   6   9
HETATM    9  C   UNL     1      40.239 -10.936   5.929  1.00  0.00     0.173 C 
HETATM   10  C   UNL     1      39.948 -10.678   4.455  1.00  0.00     0.042 C 
BRANCH   9  11
HETATM   11  N   UNL     1      41.465 -10.232   6.303  1.00  0.00    -0.356 N 
HETATM   12  H   UNL     1      42.196 -10.263   5.592  1.00  0.00     0.162 HD
BRANCH  11  13
HETATM   13  C   UNL     1      41.838 -10.173   7.598  1.00  0.00     0.168 A 
HETATM   14  S   UNL     1      41.026  -9.110   8.678  1.00  0.00    -0.050 SA
HETATM   15  C   UNL     1      42.039  -9.632   9.966  1.00  0.00     0.037 A 
HETATM   16  C   UNL     1      42.935 -10.582   9.476  1.00  0.00     0.076 A 
HETATM   17  C   UNL     1      42.044  -9.232  11.312  1.00  0.00     0.021 A 
HETATM   18  N   UNL     1      42.802 -10.884   8.131  1.00  0.00    -0.223 NA
HETATM   19  C   UNL     1      43.879 -11.142  10.359  1.00  0.00     0.033 A 
HETATM   20  C   UNL     1      43.899 -10.746  11.701  1.00  0.00     0.002 A 
HETATM   21  C   UNL     1      42.989  -9.804  12.169  1.00  0.00     0.002 A 
ENDBRANCH  11  13
ENDBRANCH   9  11
ENDBRANCH   6   9
ENDBRANCH   2   5
BRANCH   1  22
HETATM   22  C   UNL     1      43.545 -15.908   6.876  1.00  0.00     0.227 C 
BRANCH  22  23
HETATM   23  N   UNL     1      43.570 -16.843   5.769  1.00  0.00    -0.348 N 
HETATM   24  C   UNL     1      44.471 -17.888   5.777  1.00  0.00     0.252 C 
HETATM   25  O   UNL     1      45.312 -18.029   6.658  1.00  0.00    -0.268 OA
HETATM   26  H   UNL     1      42.716 -16.947   5.236  1.00  0.00     0.163 HD
BRANCH  24  27
HETATM   27  C   UNL     1      44.343 -18.882   4.677  1.00  0.00     0.032 A 
HETATM   28  C   UNL     1      44.614 -20.227   4.956  1.00  0.00     0.024 A 
HETATM   29  C   UNL     1      44.510 -21.208   3.955  1.00  0.00    -0.055 A 
HETATM   30  C   UNL     1      44.163 -20.820   2.644  1.00  0.00    -0.056 A 
HETATM   31  C   UNL     1      44.815 -22.640   4.299  1.00  0.00     0.049 C 
HETATM   32  C   UNL     1      44.047 -21.825   1.531  1.00  0.00     0.049 C 
HETATM   33  C   UNL     1      43.896 -19.468   2.374  1.00  0.00     0.008 A 
HETATM   34  C   UNL     1      43.988 -18.503   3.380  1.00  0.00     0.017 A 
ENDBRANCH  24  27
ENDBRANCH  22  23
ENDBRANCH   1  22
TORSDOF 7
ENDMDL
