MODEL 1
REMARK VINA RESULT:      -8.8      0.000      0.000
REMARK  9 active torsions:
REMARK  status: ('A' for Active; 'I' for Inactive)
REMARK    1  A    between atoms: C_4  and  C_5 
REMARK    2  A    between atoms: C_7  and  O_8 
REMARK    3  A    between atoms: C_10  and  O_11 
REMARK    4  A    between atoms: C_16  and  C_17 
REMARK    5  A    between atoms: C_20  and  C_21 
REMARK    6  A    between atoms: C_21  and  N_22 
REMARK    7  A    between atoms: N_22  and  C_23 
REMARK    8  A    between atoms: C_23  and  N_24 
REMARK    9  A    between atoms: N_24  and  C_25 
ROOT
HETATM    1  C   UNL     1      45.236 -13.007   8.161  1.00  0.00     0.035 A 
HETATM    2  C   UNL     1      44.384 -12.827   9.251  1.00  0.00     0.052 A 
HETATM    3  C   UNL     1      44.654 -11.856  10.225  1.00  0.00     0.046 A 
HETATM    4  C   UNL     1      43.767 -11.737  11.343  1.00  0.00     0.099 C 
HETATM    5  N   UNL     1      43.017 -11.733  12.227  1.00  0.00    -0.191 NA
HETATM    6  C   UNL     1      45.773 -11.034  10.094  1.00  0.00     0.023 A 
HETATM    7  C   UNL     1      46.609 -11.180   8.985  1.00  0.00     0.004 A 
HETATM    8  C   UNL     1      46.337 -12.157   8.021  1.00  0.00     0.029 A 
ENDROOT
BRANCH   1   9
HETATM    9  N   UNL     1      45.000 -13.960   7.147  1.00  0.00    -0.333 N 
HETATM   10  H   UNL     1      45.831 -14.332   6.692  1.00  0.00     0.168 HD
BRANCH   9  11
HETATM   11  C   UNL     1      43.830 -14.335   6.542  1.00  0.00     0.172 C 
HETATM   12  S   UNL     1      43.228 -15.862   6.839  1.00  0.00    -0.041 SA
BRANCH  11  13
HETATM   13  N   UNL     1      43.216 -13.381   5.769  1.00  0.00    -0.365 N 
HETATM   14  H   UNL     1      43.816 -13.066   5.013  1.00  0.00     0.161 HD
BRANCH  13  15
HETATM   15  C   UNL     1      42.154 -12.488   6.227  1.00  0.00     0.155 C 
BRANCH  15  16
HETATM   16  C   UNL     1      41.229 -12.000   5.092  1.00  0.00     0.206 C 
HETATM   17  C   UNL     1      41.715 -12.330   3.671  1.00  0.00     0.040 C 
HETATM   18  C   UNL     1      40.532 -12.759   2.770  1.00  0.00     0.001 C 
HETATM   19  C   UNL     1      39.937 -14.108   3.252  1.00  0.00     0.067 C 
HETATM   20  C   UNL     1      39.421 -11.697   2.934  1.00  0.00     0.033 C 
HETATM   21  C   UNL     1      39.735 -14.030   4.782  1.00  0.00     0.246 C 
HETATM   22  N   UNL     1      39.811 -12.562   5.219  1.00  0.00    -0.065 N 
HETATM   23  C   UNL     1      38.868 -11.721   4.366  1.00  0.00     0.236 C 
HETATM   24  H   UNL     1      39.507 -12.496   6.200  1.00  0.00     0.280 HD
BRANCH  19  25
HETATM   25  C   UNL     1      40.707 -15.328   2.833  1.00  0.00     0.038 A 
HETATM   26  N   UNL     1      40.827 -15.730   1.519  1.00  0.00    -0.277 N 
HETATM   27  C   UNL     1      40.320 -15.075   0.334  1.00  0.00     0.179 C 
HETATM   28  N   UNL     1      41.522 -16.862   1.364  1.00  0.00    -0.172 NA
HETATM   29  C   UNL     1      41.947 -17.191   2.590  1.00  0.00     0.089 A 
HETATM   30  C   UNL     1      41.466 -16.247   3.536  1.00  0.00     0.061 A 
BRANCH  29  31
HETATM   31  C   UNL     1      42.792 -18.363   2.828  1.00  0.00    -0.003 A 
HETATM   32  C   UNL     1      43.370 -18.572   4.089  1.00  0.00     0.053 A 
HETATM   33  C   UNL     1      44.165 -19.697   4.340  1.00  0.00     0.102 A 
HETATM   34  C   UNL     1      44.406 -20.625   3.307  1.00  0.00     0.101 A 
HETATM   35  C   UNL     1      43.839 -20.413   2.047  1.00  0.00     0.040 A 
HETATM   36  C   UNL     1      43.035 -19.293   1.811  1.00  0.00     0.017 A 
BRANCH  33  37
HETATM   37  O   UNL     1      44.754 -19.978   5.549  1.00  0.00    -0.353 OA
HETATM   38  C   UNL     1      43.904 -20.340   6.628  1.00  0.00     0.210 C 
ENDBRANCH  33  37
BRANCH  34  39
HETATM   39  O   UNL     1      45.198 -21.697   3.631  1.00  0.00    -0.353 OA
HETATM   40  C   UNL     1      44.562 -22.939   3.892  1.00  0.00     0.210 C 
ENDBRANCH  34  39
ENDBRANCH  29  31
ENDBRANCH  19  25
ENDBRANCH  15  16
ENDBRANCH  13  15
ENDBRANCH  11  13
ENDBRANCH   9  11
ENDBRANCH   1   9
TORSDOF 9
ENDMDL
MODEL 2
REMARK VINA RESULT:      -8.7      2.376      3.203
REMARK  9 active torsions:
REMARK  status: ('A' for Active; 'I' for Inactive)
REMARK    1  A    between atoms: C_4  and  C_5 
REMARK    2  A    between atoms: C_7  and  O_8 
REMARK    3  A    between atoms: C_10  and  O_11 
REMARK    4  A    between atoms: C_16  and  C_17 
REMARK    5  A    between atoms: C_20  and  C_21 
REMARK    6  A    between atoms: C_21  and  N_22 
REMARK    7  A    between atoms: N_22  and  C_23 
REMARK    8  A    between atoms: C_23  and  N_24 
REMARK    9  A    between atoms: N_24  and  C_25 
ROOT
HETATM    1  C   UNL     1      41.249 -11.021  10.898  1.00  0.00     0.035 A 
HETATM    2  C   UNL     1      42.479 -11.006  10.239  1.00  0.00     0.052 A 
HETATM    3  C   UNL     1      43.654 -10.652  10.914  1.00  0.00     0.046 A 
HETATM    4  C   UNL     1      44.885 -10.619  10.181  1.00  0.00     0.099 C 
HETATM    5  N   UNL     1      45.827 -10.586   9.505  1.00  0.00    -0.191 NA
HETATM    6  C   UNL     1      43.608 -10.337  12.271  1.00  0.00     0.023 A 
HETATM    7  C   UNL     1      42.388 -10.387  12.948  1.00  0.00     0.004 A 
HETATM    8  C   UNL     1      41.217 -10.734  12.266  1.00  0.00     0.029 A 
ENDROOT
BRANCH   1   9
HETATM    9  N   UNL     1      40.040 -11.384  10.267  1.00  0.00    -0.333 N 
HETATM   10  H   UNL     1      39.571 -12.201  10.653  1.00  0.00     0.168 HD
BRANCH   9  11
HETATM   11  C   UNL     1      39.480 -10.932   9.102  1.00  0.00     0.172 C 
HETATM   12  S   UNL     1      38.948  -9.354   9.028  1.00  0.00    -0.041 SA
BRANCH  11  13
HETATM   13  N   UNL     1      39.456 -11.823   8.058  1.00  0.00    -0.365 N 
HETATM   14  H   UNL     1      38.762 -12.551   8.201  1.00  0.00     0.161 HD
BRANCH  13  15
HETATM   15  C   UNL     1      40.582 -12.106   7.170  1.00  0.00     0.155 C 
BRANCH  15  16
HETATM   16  C   UNL     1      40.588 -11.242   5.891  1.00  0.00     0.206 C 
HETATM   17  C   UNL     1      41.591 -11.684   4.813  1.00  0.00     0.040 C 
HETATM   18  C   UNL     1      40.972 -11.563   3.401  1.00  0.00     0.001 C 
HETATM   19  C   UNL     1      39.809 -12.576   3.224  1.00  0.00     0.067 C 
HETATM   20  C   UNL     1      40.353 -10.150   3.289  1.00  0.00     0.033 C 
HETATM   21  C   UNL     1      38.892 -12.483   4.464  1.00  0.00     0.246 C 
HETATM   22  N   UNL     1      39.212 -11.189   5.223  1.00  0.00    -0.065 N 
HETATM   23  C   UNL     1      39.175 -10.006   4.262  1.00  0.00     0.236 C 
HETATM   24  H   UNL     1      38.490 -11.045   5.943  1.00  0.00     0.280 HD
BRANCH  19  25
HETATM   25  C   UNL     1      40.234 -13.985   2.923  1.00  0.00     0.038 A 
HETATM   26  N   UNL     1      39.518 -14.831   2.103  1.00  0.00    -0.277 N 
HETATM   27  C   UNL     1      38.313 -14.544   1.357  1.00  0.00     0.179 C 
HETATM   28  N   UNL     1      40.049 -16.054   1.997  1.00  0.00    -0.172 NA
HETATM   29  C   UNL     1      41.188 -16.011   2.698  1.00  0.00     0.089 A 
HETATM   30  C   UNL     1      41.346 -14.726   3.284  1.00  0.00     0.061 A 
BRANCH  29  31
HETATM   31  C   UNL     1      42.089 -17.162   2.782  1.00  0.00    -0.003 A 
HETATM   32  C   UNL     1      42.565 -17.596   4.028  1.00  0.00     0.053 A 
HETATM   33  C   UNL     1      43.412 -18.708   4.129  1.00  0.00     0.102 A 
HETATM   34  C   UNL     1      43.807 -19.391   2.962  1.00  0.00     0.101 A 
HETATM   35  C   UNL     1      43.340 -18.954   1.718  1.00  0.00     0.040 A 
HETATM   36  C   UNL     1      42.485 -17.851   1.630  1.00  0.00     0.017 A 
BRANCH  33  37
HETATM   37  O   UNL     1      43.909 -19.200   5.311  1.00  0.00    -0.353 OA
HETATM   38  C   UNL     1      45.022 -18.531   5.887  1.00  0.00     0.210 C 
ENDBRANCH  33  37
BRANCH  34  39
HETATM   39  O   UNL     1      44.640 -20.466   3.144  1.00  0.00    -0.353 OA
HETATM   40  C   UNL     1      44.324 -21.674   2.470  1.00  0.00     0.210 C 
ENDBRANCH  34  39
ENDBRANCH  29  31
ENDBRANCH  19  25
ENDBRANCH  15  16
ENDBRANCH  13  15
ENDBRANCH  11  13
ENDBRANCH   9  11
ENDBRANCH   1   9
TORSDOF 9
ENDMDL
MODEL 3
REMARK VINA RESULT:      -8.7      4.336      8.145
REMARK  9 active torsions:
REMARK  status: ('A' for Active; 'I' for Inactive)
REMARK    1  A    between atoms: C_4  and  C_5 
REMARK    2  A    between atoms: C_7  and  O_8 
REMARK    3  A    between atoms: C_10  and  O_11 
REMARK    4  A    between atoms: C_16  and  C_17 
REMARK    5  A    between atoms: C_20  and  C_21 
REMARK    6  A    between atoms: C_21  and  N_22 
REMARK    7  A    between atoms: N_22  and  C_23 
REMARK    8  A    between atoms: C_23  and  N_24 
REMARK    9  A    between atoms: N_24  and  C_25 
ROOT
HETATM    1  C   UNL     1      40.575 -14.222  -3.491  1.00  0.00     0.035 A 
HETATM    2  C   UNL     1      39.394 -13.482  -3.562  1.00  0.00     0.052 A 
HETATM    3  C   UNL     1      38.154 -14.118  -3.712  1.00  0.00     0.046 A 
HETATM    4  C   UNL     1      36.975 -13.310  -3.815  1.00  0.00     0.099 C 
HETATM    5  N   UNL     1      36.080 -12.581  -3.923  1.00  0.00    -0.191 NA
HETATM    6  C   UNL     1      38.089 -15.509  -3.764  1.00  0.00     0.023 A 
HETATM    7  C   UNL     1      39.261 -16.258  -3.655  1.00  0.00     0.004 A 
HETATM    8  C   UNL     1      40.497 -15.617  -3.512  1.00  0.00     0.029 A 
ENDROOT
BRANCH   1   9
HETATM    9  N   UNL     1      41.846 -13.630  -3.325  1.00  0.00    -0.333 N 
HETATM   10  H   UNL     1      42.629 -14.158  -3.704  1.00  0.00     0.168 HD
BRANCH   9  11
HETATM   11  C   UNL     1      42.226 -12.549  -2.577  1.00  0.00     0.172 C 
HETATM   12  S   UNL     1      42.494 -11.094  -3.348  1.00  0.00    -0.041 SA
BRANCH  11  13
HETATM   13  N   UNL     1      42.303 -12.749  -1.221  1.00  0.00    -0.365 N 
HETATM   14  H   UNL     1      42.533 -13.712  -0.996  1.00  0.00     0.161 HD
BRANCH  13  15
HETATM   15  C   UNL     1      41.607 -11.950  -0.214  1.00  0.00     0.155 C 
BRANCH  15  16
HETATM   16  C   UNL     1      40.121 -12.333  -0.046  1.00  0.00     0.206 C 
HETATM   17  C   UNL     1      39.838 -13.843  -0.021  1.00  0.00     0.040 C 
HETATM   18  C   UNL     1      38.762 -14.185   1.037  1.00  0.00     0.001 C 
HETATM   19  C   UNL     1      39.294 -13.911   2.468  1.00  0.00     0.067 C 
HETATM   20  C   UNL     1      37.573 -13.221   0.811  1.00  0.00     0.033 C 
HETATM   21  C   UNL     1      39.954 -12.514   2.482  1.00  0.00     0.246 C 
HETATM   22  N   UNL     1      39.514 -11.745   1.229  1.00  0.00    -0.065 N 
HETATM   23  C   UNL     1      37.994 -11.777   1.114  1.00  0.00     0.236 C 
HETATM   24  H   UNL     1      39.812 -10.764   1.327  1.00  0.00     0.280 HD
BRANCH  19  25
HETATM   25  C   UNL     1      40.191 -14.979   3.027  1.00  0.00     0.038 A 
HETATM   26  N   UNL     1      40.448 -15.120   4.374  1.00  0.00    -0.277 N 
HETATM   27  C   UNL     1      39.899 -14.357   5.473  1.00  0.00     0.179 C 
HETATM   28  N   UNL     1      41.302 -16.109   4.658  1.00  0.00    -0.172 NA
HETATM   29  C   UNL     1      41.568 -16.699   3.487  1.00  0.00     0.089 A 
HETATM   30  C   UNL     1      40.880 -16.027   2.441  1.00  0.00     0.061 A 
BRANCH  29  31
HETATM   31  C   UNL     1      42.441 -17.871   3.390  1.00  0.00    -0.003 A 
HETATM   32  C   UNL     1      43.114 -18.345   4.526  1.00  0.00     0.053 A 
HETATM   33  C   UNL     1      43.937 -19.477   4.456  1.00  0.00     0.102 A 
HETATM   34  C   UNL     1      44.107 -20.139   3.224  1.00  0.00     0.101 A 
HETATM   35  C   UNL     1      43.444 -19.663   2.089  1.00  0.00     0.040 A 
HETATM   36  C   UNL     1      42.614 -18.540   2.173  1.00  0.00     0.017 A 
BRANCH  33  37
HETATM   37  O   UNL     1      44.618 -20.008   5.523  1.00  0.00    -0.353 OA
HETATM   38  C   UNL     1      43.865 -20.372   6.671  1.00  0.00     0.210 C 
ENDBRANCH  33  37
BRANCH  34  39
HETATM   39  O   UNL     1      44.932 -21.236   3.237  1.00  0.00    -0.353 OA
HETATM   40  C   UNL     1      44.636 -22.301   2.347  1.00  0.00     0.210 C 
ENDBRANCH  34  39
ENDBRANCH  29  31
ENDBRANCH  19  25
ENDBRANCH  15  16
ENDBRANCH  13  15
ENDBRANCH  11  13
ENDBRANCH   9  11
ENDBRANCH   1   9
TORSDOF 9
ENDMDL
MODEL 4
REMARK VINA RESULT:      -8.7      1.953      2.252
REMARK  9 active torsions:
REMARK  status: ('A' for Active; 'I' for Inactive)
REMARK    1  A    between atoms: C_4  and  C_5 
REMARK    2  A    between atoms: C_7  and  O_8 
REMARK    3  A    between atoms: C_10  and  O_11 
REMARK    4  A    between atoms: C_16  and  C_17 
REMARK    5  A    between atoms: C_20  and  C_21 
REMARK    6  A    between atoms: C_21  and  N_22 
REMARK    7  A    between atoms: N_22  and  C_23 
REMARK    8  A    between atoms: C_23  and  N_24 
REMARK    9  A    between atoms: N_24  and  C_25 
ROOT
HETATM    1  C   UNL     1      42.683 -10.642   9.296  1.00  0.00     0.035 A 
HETATM    2  C   UNL     1      42.633 -10.099  10.581  1.00  0.00     0.052 A 
HETATM    3  C   UNL     1      43.658 -10.340  11.505  1.00  0.00     0.046 A 
HETATM    4  C   UNL     1      43.540  -9.790  12.822  1.00  0.00     0.099 C 
HETATM    5  N   UNL     1      43.347  -9.335  13.872  1.00  0.00    -0.191 NA
HETATM    6  C   UNL     1      44.761 -11.108  11.134  1.00  0.00     0.023 A 
HETATM    7  C   UNL     1      44.838 -11.622   9.839  1.00  0.00     0.004 A 
HETATM    8  C   UNL     1      43.807 -11.383   8.923  1.00  0.00     0.029 A 
ENDROOT
BRANCH   1   9
HETATM    9  N   UNL     1      41.684 -10.416   8.325  1.00  0.00    -0.333 N 
HETATM   10  H   UNL     1      41.817  -9.593   7.741  1.00  0.00     0.168 HD
BRANCH   9  11
HETATM   11  C   UNL     1      40.466 -11.017   8.154  1.00  0.00     0.172 C 
HETATM   12  S   UNL     1      39.144 -10.393   8.958  1.00  0.00    -0.041 SA
BRANCH  11  13
HETATM   13  N   UNL     1      40.429 -12.070   7.273  1.00  0.00    -0.365 N 
HETATM   14  H   UNL     1      39.979 -12.884   7.681  1.00  0.00     0.161 HD
BRANCH  13  15
HETATM   15  C   UNL     1      41.367 -12.276   6.172  1.00  0.00     0.155 C 
BRANCH  15  16
HETATM   16  C   UNL     1      40.828 -11.796   4.808  1.00  0.00     0.206 C 
HETATM   17  C   UNL     1      41.711 -12.149   3.600  1.00  0.00     0.040 C 
HETATM   18  C   UNL     1      40.846 -12.581   2.392  1.00  0.00     0.001 C 
HETATM   19  C   UNL     1      40.119 -13.920   2.689  1.00  0.00     0.067 C 
HETATM   20  C   UNL     1      39.747 -11.509   2.206  1.00  0.00     0.033 C 
HETATM   21  C   UNL     1      39.472 -13.820   4.089  1.00  0.00     0.246 C 
HETATM   22  N   UNL     1      39.431 -12.346   4.513  1.00  0.00    -0.065 N 
HETATM   23  C   UNL     1      38.793 -11.510   3.409  1.00  0.00     0.236 C 
HETATM   24  H   UNL     1      38.848 -12.266   5.358  1.00  0.00     0.280 HD
BRANCH  19  25
HETATM   25  C   UNL     1      40.966 -15.150   2.531  1.00  0.00     0.038 A 
HETATM   26  N   UNL     1      41.292 -15.690   1.305  1.00  0.00    -0.277 N 
HETATM   27  C   UNL     1      40.959 -15.187  -0.010  1.00  0.00     0.179 C 
HETATM   28  N   UNL     1      42.023 -16.807   1.385  1.00  0.00    -0.172 NA
HETATM   29  C   UNL     1      42.262 -16.984   2.690  1.00  0.00     0.089 A 
HETATM   30  C   UNL     1      41.627 -15.958   3.440  1.00  0.00     0.061 A 
BRANCH  29  31
HETATM   31  C   UNL     1      43.083 -18.091   3.183  1.00  0.00    -0.003 A 
HETATM   32  C   UNL     1      43.467 -18.140   4.532  1.00  0.00     0.053 A 
HETATM   33  C   UNL     1      44.235 -19.202   5.025  1.00  0.00     0.102 A 
HETATM   34  C   UNL     1      44.646 -20.229   4.151  1.00  0.00     0.101 A 
HETATM   35  C   UNL     1      44.272 -20.178   2.806  1.00  0.00     0.040 A 
HETATM   36  C   UNL     1      43.493 -19.119   2.327  1.00  0.00     0.017 A 
BRANCH  33  37
HETATM   37  O   UNL     1      44.639 -19.327   6.331  1.00  0.00    -0.353 OA
HETATM   38  C   UNL     1      43.713 -18.963   7.345  1.00  0.00     0.210 C 
ENDBRANCH  33  37
BRANCH  34  39
HETATM   39  O   UNL     1      45.399 -21.231   4.710  1.00  0.00    -0.353 OA
HETATM   40  C   UNL     1      44.824 -22.526   4.794  1.00  0.00     0.210 C 
ENDBRANCH  34  39
ENDBRANCH  29  31
ENDBRANCH  19  25
ENDBRANCH  15  16
ENDBRANCH  13  15
ENDBRANCH  11  13
ENDBRANCH   9  11
ENDBRANCH   1   9
TORSDOF 9
ENDMDL
MODEL 5
REMARK VINA RESULT:      -8.6      1.989      2.948
REMARK  9 active torsions:
REMARK  status: ('A' for Active; 'I' for Inactive)
REMARK    1  A    between atoms: C_4  and  C_5 
REMARK    2  A    between atoms: C_7  and  O_8 
REMARK    3  A    between atoms: C_10  and  O_11 
REMARK    4  A    between atoms: C_16  and  C_17 
REMARK    5  A    between atoms: C_20  and  C_21 
REMARK    6  A    between atoms: C_21  and  N_22 
REMARK    7  A    between atoms: N_22  and  C_23 
REMARK    8  A    between atoms: C_23  and  N_24 
REMARK    9  A    between atoms: N_24  and  C_25 
ROOT
HETATM    1  C   UNL     1      42.467 -10.926   9.943  1.00  0.00     0.035 A 
HETATM    2  C   UNL     1      43.533 -11.387   9.168  1.00  0.00     0.052 A 
HETATM    3  C   UNL     1      44.850 -11.310   9.637  1.00  0.00     0.046 A 
HETATM    4  C   UNL     1      45.911 -11.763   8.787  1.00  0.00     0.099 C 
HETATM    5  N   UNL     1      46.707 -12.121   8.023  1.00  0.00    -0.191 NA
HETATM    6  C   UNL     1      45.106 -10.795  10.907  1.00  0.00     0.023 A 
HETATM    7  C   UNL     1      44.043 -10.369  11.705  1.00  0.00     0.004 A 
HETATM    8  C   UNL     1      42.730 -10.441  11.226  1.00  0.00     0.029 A 
ENDROOT
BRANCH   1   9
HETATM    9  N   UNL     1      41.121 -10.995   9.521  1.00  0.00    -0.333 N 
HETATM   10  H   UNL     1      40.489 -11.485  10.151  1.00  0.00     0.168 HD
BRANCH   9  11
HETATM   11  C   UNL     1      40.555 -10.672   8.318  1.00  0.00     0.172 C 
HETATM   12  S   UNL     1      40.632  -9.092   7.793  1.00  0.00    -0.041 SA
BRANCH  11  13
HETATM   13  N   UNL     1      40.008 -11.713   7.609  1.00  0.00    -0.365 N 
HETATM   14  H   UNL     1      39.305 -12.209   8.150  1.00  0.00     0.161 HD
BRANCH  13  15
HETATM   15  C   UNL     1      40.671 -12.426   6.519  1.00  0.00     0.155 C 
BRANCH  15  16
HETATM   16  C   UNL     1      40.531 -11.725   5.151  1.00  0.00     0.206 C 
HETATM   17  C   UNL     1      41.714 -11.930   4.192  1.00  0.00     0.040 C 
HETATM   18  C   UNL     1      41.218 -12.139   2.741  1.00  0.00     0.001 C 
HETATM   19  C   UNL     1      40.438 -13.474   2.615  1.00  0.00     0.067 C 
HETATM   20  C   UNL     1      40.214 -11.004   2.431  1.00  0.00     0.033 C 
HETATM   21  C   UNL     1      39.428 -13.557   3.781  1.00  0.00     0.246 C 
HETATM   22  N   UNL     1      39.270 -12.164   4.403  1.00  0.00    -0.065 N 
HETATM   23  C   UNL     1      38.964 -11.145   3.311  1.00  0.00     0.236 C 
HETATM   24  H   UNL     1      38.476 -12.186   5.058  1.00  0.00     0.280 HD
BRANCH  19  25
HETATM   25  C   UNL     1      41.296 -14.702   2.505  1.00  0.00     0.038 A 
HETATM   26  N   UNL     1      41.824 -15.150   1.313  1.00  0.00    -0.277 N 
HETATM   27  C   UNL     1      41.720 -14.541   0.005  1.00  0.00     0.179 C 
HETATM   28  N   UNL     1      42.527 -16.282   1.426  1.00  0.00    -0.172 NA
HETATM   29  C   UNL     1      42.541 -16.564   2.735  1.00  0.00     0.089 A 
HETATM   30  C   UNL     1      41.790 -15.589   3.446  1.00  0.00     0.061 A 
BRANCH  29  31
HETATM   31  C   UNL     1      43.263 -17.720   3.270  1.00  0.00    -0.003 A 
HETATM   32  C   UNL     1      43.639 -18.772   2.422  1.00  0.00     0.053 A 
HETATM   33  C   UNL     1      44.347 -19.876   2.914  1.00  0.00     0.102 A 
HETATM   34  C   UNL     1      44.671 -19.942   4.284  1.00  0.00     0.101 A 
HETATM   35  C   UNL     1      44.288 -18.899   5.132  1.00  0.00     0.040 A 
HETATM   36  C   UNL     1      43.593 -17.795   4.628  1.00  0.00     0.017 A 
BRANCH  33  37
HETATM   37  O   UNL     1      44.761 -20.937   2.146  1.00  0.00    -0.353 OA
HETATM   38  C   UNL     1      43.773 -21.861   1.712  1.00  0.00     0.210 C 
ENDBRANCH  33  37
BRANCH  34  39
HETATM   39  O   UNL     1      45.361 -21.057   4.687  1.00  0.00    -0.353 OA
HETATM   40  C   UNL     1      44.692 -21.985   5.528  1.00  0.00     0.210 C 
ENDBRANCH  34  39
ENDBRANCH  29  31
ENDBRANCH  19  25
ENDBRANCH  15  16
ENDBRANCH  13  15
ENDBRANCH  11  13
ENDBRANCH   9  11
ENDBRANCH   1   9
TORSDOF 9
ENDMDL
MODEL 6
REMARK VINA RESULT:      -8.3      4.461      8.266
REMARK  9 active torsions:
REMARK  status: ('A' for Active; 'I' for Inactive)
REMARK    1  A    between atoms: C_4  and  C_5 
REMARK    2  A    between atoms: C_7  and  O_8 
REMARK    3  A    between atoms: C_10  and  O_11 
REMARK    4  A    between atoms: C_16  and  C_17 
REMARK    5  A    between atoms: C_20  and  C_21 
REMARK    6  A    between atoms: C_21  and  N_22 
REMARK    7  A    between atoms: N_22  and  C_23 
REMARK    8  A    between atoms: C_23  and  N_24 
REMARK    9  A    between atoms: N_24  and  C_25 
ROOT
HETATM    1  C   UNL     1      39.149 -13.378   2.535  1.00  0.00     0.035 A 
HETATM    2  C   UNL     1      38.640 -12.101   2.295  1.00  0.00     0.052 A 
HETATM    3  C   UNL     1      37.675 -11.884   1.303  1.00  0.00     0.046 A 
HETATM    4  C   UNL     1      37.212 -10.548   1.073  1.00  0.00     0.099 C 
HETATM    5  N   UNL     1      36.920  -9.435   0.933  1.00  0.00    -0.191 NA
HETATM    6  C   UNL     1      37.189 -12.960   0.561  1.00  0.00     0.023 A 
HETATM    7  C   UNL     1      37.664 -14.246   0.821  1.00  0.00     0.004 A 
HETATM    8  C   UNL     1      38.633 -14.454   1.809  1.00  0.00     0.029 A 
ENDROOT
BRANCH   1   9
HETATM    9  N   UNL     1      40.111 -13.650   3.532  1.00  0.00    -0.333 N 
HETATM   10  H   UNL     1      41.078 -13.660   3.218  1.00  0.00     0.168 HD
BRANCH   9  11
HETATM   11  C   UNL     1      39.950 -14.084   4.821  1.00  0.00     0.172 C 
HETATM   12  S   UNL     1      39.483 -12.985   5.985  1.00  0.00    -0.041 SA
BRANCH  11  13
HETATM   13  N   UNL     1      40.139 -15.427   5.034  1.00  0.00    -0.365 N 
HETATM   14  H   UNL     1      39.627 -15.990   4.361  1.00  0.00     0.161 HD
BRANCH  13  15
HETATM   15  C   UNL     1      40.489 -16.031   6.318  1.00  0.00     0.155 C 
BRANCH  15  16
HETATM   16  C   UNL     1      41.713 -16.968   6.242  1.00  0.00     0.206 C 
HETATM   17  C   UNL     1      41.706 -17.954   5.062  1.00  0.00     0.040 C 
HETATM   18  C   UNL     1      43.120 -18.092   4.450  1.00  0.00     0.001 C 
HETATM   19  C   UNL     1      43.561 -16.762   3.784  1.00  0.00     0.067 C 
HETATM   20  C   UNL     1      44.102 -18.354   5.616  1.00  0.00     0.033 C 
HETATM   21  C   UNL     1      43.271 -15.606   4.768  1.00  0.00     0.246 C 
HETATM   22  N   UNL     1      43.031 -16.193   6.165  1.00  0.00    -0.065 N 
HETATM   23  C   UNL     1      44.176 -17.127   6.535  1.00  0.00     0.236 C 
HETATM   24  H   UNL     1      43.010 -15.419   6.845  1.00  0.00     0.280 HD
BRANCH  19  25
HETATM   25  C   UNL     1      42.987 -16.515   2.418  1.00  0.00     0.038 A 
HETATM   26  N   UNL     1      42.879 -17.497   1.456  1.00  0.00    -0.277 N 
HETATM   27  C   UNL     1      43.218 -18.899   1.568  1.00  0.00     0.179 C 
HETATM   28  N   UNL     1      42.376 -17.061   0.296  1.00  0.00    -0.172 NA
HETATM   29  C   UNL     1      42.065 -15.776   0.502  1.00  0.00     0.089 A 
HETATM   30  C   UNL     1      42.422 -15.400   1.825  1.00  0.00     0.061 A 
BRANCH  29  31
HETATM   31  C   UNL     1      41.437 -14.955  -0.535  1.00  0.00    -0.003 A 
HETATM   32  C   UNL     1      41.067 -15.528  -1.761  1.00  0.00     0.053 A 
HETATM   33  C   UNL     1      40.447 -14.762  -2.757  1.00  0.00     0.102 A 
HETATM   34  C   UNL     1      40.209 -13.391  -2.534  1.00  0.00     0.101 A 
HETATM   35  C   UNL     1      40.586 -12.816  -1.317  1.00  0.00     0.040 A 
HETATM   36  C   UNL     1      41.191 -13.594  -0.324  1.00  0.00     0.017 A 
BRANCH  33  37
HETATM   37  O   UNL     1      40.045 -15.252  -3.975  1.00  0.00    -0.353 OA
HETATM   38  C   UNL     1      39.037 -16.253  -3.983  1.00  0.00     0.210 C 
ENDBRANCH  33  37
BRANCH  34  39
HETATM   39  O   UNL     1      39.603 -12.710  -3.559  1.00  0.00    -0.353 OA
HETATM   40  C   UNL     1      40.271 -11.575  -4.090  1.00  0.00     0.210 C 
ENDBRANCH  34  39
ENDBRANCH  29  31
ENDBRANCH  19  25
ENDBRANCH  15  16
ENDBRANCH  13  15
ENDBRANCH  11  13
ENDBRANCH   9  11
ENDBRANCH   1   9
TORSDOF 9
ENDMDL
MODEL 7
REMARK VINA RESULT:      -8.3      2.219      3.167
REMARK  9 active torsions:
REMARK  status: ('A' for Active; 'I' for Inactive)
REMARK    1  A    between atoms: C_4  and  C_5 
REMARK    2  A    between atoms: C_7  and  O_8 
REMARK    3  A    between atoms: C_10  and  O_11 
REMARK    4  A    between atoms: C_16  and  C_17 
REMARK    5  A    between atoms: C_20  and  C_21 
REMARK    6  A    between atoms: C_21  and  N_22 
REMARK    7  A    between atoms: N_22  and  C_23 
REMARK    8  A    between atoms: C_23  and  N_24 
REMARK    9  A    between atoms: N_24  and  C_25 
ROOT
HETATM    1  C   UNL     1      43.110 -10.686   9.609  1.00  0.00     0.035 A 
HETATM    2  C   UNL     1      43.441 -11.684   8.691  1.00  0.00     0.052 A 
HETATM    3  C   UNL     1      44.669 -12.354   8.767  1.00  0.00     0.046 A 
HETATM    4  C   UNL     1      44.974 -13.344   7.778  1.00  0.00     0.099 C 
HETATM    5  N   UNL     1      45.152 -14.105   6.920  1.00  0.00    -0.191 NA
HETATM    6  C   UNL     1      45.566 -12.046   9.788  1.00  0.00     0.023 A 
HETATM    7  C   UNL     1      45.227 -11.077  10.734  1.00  0.00     0.004 A 
HETATM    8  C   UNL     1      44.002 -10.407  10.648  1.00  0.00     0.029 A 
ENDROOT
BRANCH   1   9
HETATM    9  N   UNL     1      41.881  -9.993   9.584  1.00  0.00    -0.333 N 
HETATM   10  H   UNL     1      41.947  -8.986   9.456  1.00  0.00     0.168 HD
BRANCH   9  11
HETATM   11  C   UNL     1      40.617 -10.423   9.888  1.00  0.00     0.172 C 
HETATM   12  S   UNL     1      40.233 -10.722  11.483  1.00  0.00    -0.041 SA
BRANCH  11  13
HETATM   13  N   UNL     1      39.742 -10.521   8.834  1.00  0.00    -0.365 N 
HETATM   14  H   UNL     1      38.796 -10.269   9.106  1.00  0.00     0.161 HD
BRANCH  13  15
HETATM   15  C   UNL     1      39.919 -11.393   7.675  1.00  0.00     0.155 C 
BRANCH  15  16
HETATM   16  C   UNL     1      40.221 -10.627   6.370  1.00  0.00     0.206 C 
HETATM   17  C   UNL     1      41.442 -11.134   5.586  1.00  0.00     0.040 C 
HETATM   18  C   UNL     1      41.163 -11.128   4.064  1.00  0.00     0.001 C 
HETATM   19  C   UNL     1      40.068 -12.166   3.704  1.00  0.00     0.067 C 
HETATM   20  C   UNL     1      40.592  -9.735   3.708  1.00  0.00     0.033 C 
HETATM   21  C   UNL     1      38.892 -11.994   4.691  1.00  0.00     0.246 C 
HETATM   22  N   UNL     1      39.035 -10.642   5.403  1.00  0.00    -0.065 N 
HETATM   23  C   UNL     1      39.223  -9.536   4.372  1.00  0.00     0.236 C 
HETATM   24  H   UNL     1      38.168 -10.456   5.926  1.00  0.00     0.280 HD
BRANCH  19  25
HETATM   25  C   UNL     1      40.546 -13.588   3.616  1.00  0.00     0.038 A 
HETATM   26  N   UNL     1      39.985 -14.522   2.771  1.00  0.00    -0.277 N 
HETATM   27  C   UNL     1      38.924 -14.331   1.807  1.00  0.00     0.179 C 
HETATM   28  N   UNL     1      40.531 -15.738   2.874  1.00  0.00    -0.172 NA
HETATM   29  C   UNL     1      41.534 -15.606   3.751  1.00  0.00     0.089 A 
HETATM   30  C   UNL     1      41.583 -14.269   4.229  1.00  0.00     0.061 A 
BRANCH  29  31
HETATM   31  C   UNL     1      42.413 -16.725   4.097  1.00  0.00    -0.003 A 
HETATM   32  C   UNL     1      43.162 -16.694   5.282  1.00  0.00     0.053 A 
HETATM   33  C   UNL     1      43.992 -17.765   5.638  1.00  0.00     0.102 A 
HETATM   34  C   UNL     1      44.093 -18.882   4.785  1.00  0.00     0.101 A 
HETATM   35  C   UNL     1      43.354 -18.910   3.599  1.00  0.00     0.040 A 
HETATM   36  C   UNL     1      42.518 -17.841   3.260  1.00  0.00     0.017 A 
BRANCH  33  37
HETATM   37  O   UNL     1      44.745 -17.814   6.785  1.00  0.00    -0.353 OA
HETATM   38  C   UNL     1      44.150 -18.388   7.941  1.00  0.00     0.210 C 
ENDBRANCH  33  37
BRANCH  34  39
HETATM   39  O   UNL     1      44.930 -19.886   5.202  1.00  0.00    -0.353 OA
HETATM   40  C   UNL     1      44.937 -21.096   4.460  1.00  0.00     0.210 C 
ENDBRANCH  34  39
ENDBRANCH  29  31
ENDBRANCH  19  25
ENDBRANCH  15  16
ENDBRANCH  13  15
ENDBRANCH  11  13
ENDBRANCH   9  11
ENDBRANCH   1   9
TORSDOF 9
ENDMDL
MODEL 8
REMARK VINA RESULT:      -8.3      2.139      3.288
REMARK  9 active torsions:
REMARK  status: ('A' for Active; 'I' for Inactive)
REMARK    1  A    between atoms: C_4  and  C_5 
REMARK    2  A    between atoms: C_7  and  O_8 
REMARK    3  A    between atoms: C_10  and  O_11 
REMARK    4  A    between atoms: C_16  and  C_17 
REMARK    5  A    between atoms: C_20  and  C_21 
REMARK    6  A    between atoms: C_21  and  N_22 
REMARK    7  A    between atoms: N_22  and  C_23 
REMARK    8  A    between atoms: C_23  and  N_24 
REMARK    9  A    between atoms: N_24  and  C_25 
ROOT
HETATM    1  C   UNL     1      42.390 -10.446  11.238  1.00  0.00     0.035 A 
HETATM    2  C   UNL     1      42.691  -9.989  12.522  1.00  0.00     0.052 A 
HETATM    3  C   UNL     1      41.783 -10.151  13.576  1.00  0.00     0.046 A 
HETATM    4  C   UNL     1      42.126  -9.631  14.866  1.00  0.00     0.099 C 
HETATM    5  N   UNL     1      42.471  -9.152  15.865  1.00  0.00    -0.191 NA
HETATM    6  C   UNL     1      40.570 -10.803  13.354  1.00  0.00     0.023 A 
HETATM    7  C   UNL     1      40.277 -11.298  12.083  1.00  0.00     0.004 A 
HETATM    8  C   UNL     1      41.186 -11.126  11.033  1.00  0.00     0.029 A 
ENDROOT
BRANCH   1   9
HETATM    9  N   UNL     1      43.276 -10.321  10.147  1.00  0.00    -0.333 N 
HETATM   10  H   UNL     1      43.769  -9.433  10.082  1.00  0.00     0.168 HD
BRANCH   9  11
HETATM   11  C   UNL     1      43.451 -11.125   9.053  1.00  0.00     0.172 C 
HETATM   12  S   UNL     1      44.771 -12.143   9.009  1.00  0.00    -0.041 SA
BRANCH  11  13
HETATM   13  N   UNL     1      42.473 -11.059   8.092  1.00  0.00    -0.365 N 
HETATM   14  H   UNL     1      41.747 -10.394   8.340  1.00  0.00     0.161 HD
BRANCH  13  15
HETATM   15  C   UNL     1      42.136 -12.136   7.163  1.00  0.00     0.155 C 
BRANCH  15  16
HETATM   16  C   UNL     1      41.288 -11.667   5.962  1.00  0.00     0.206 C 
HETATM   17  C   UNL     1      41.793 -12.134   4.587  1.00  0.00     0.040 C 
HETATM   18  C   UNL     1      40.613 -12.542   3.674  1.00  0.00     0.001 C 
HETATM   19  C   UNL     1      39.905 -13.807   4.227  1.00  0.00     0.067 C 
HETATM   20  C   UNL     1      39.578 -11.395   3.721  1.00  0.00     0.033 C 
HETATM   21  C   UNL     1      39.659 -13.604   5.740  1.00  0.00     0.246 C 
HETATM   22  N   UNL     1      39.829 -12.116   6.074  1.00  0.00    -0.065 N 
HETATM   23  C   UNL     1      38.979 -11.276   5.129  1.00  0.00     0.236 C 
HETATM   24  H   UNL     1      39.498 -11.958   7.036  1.00  0.00     0.280 HD
BRANCH  19  25
HETATM   25  C   UNL     1      40.596 -15.106   3.924  1.00  0.00     0.038 A 
HETATM   26  N   UNL     1      40.350 -15.845   2.786  1.00  0.00    -0.277 N 
HETATM   27  C   UNL     1      39.473 -15.520   1.682  1.00  0.00     0.179 C 
HETATM   28  N   UNL     1      41.042 -16.987   2.726  1.00  0.00    -0.172 NA
HETATM   29  C   UNL     1      41.831 -16.984   3.807  1.00  0.00     0.089 A 
HETATM   30  C   UNL     1      41.589 -15.815   4.577  1.00  0.00     0.061 A 
BRANCH  29  31
HETATM   31  C   UNL     1      42.785 -18.063   4.072  1.00  0.00    -0.003 A 
HETATM   32  C   UNL     1      43.229 -18.885   3.027  1.00  0.00     0.053 A 
HETATM   33  C   UNL     1      44.157 -19.909   3.259  1.00  0.00     0.102 A 
HETATM   34  C   UNL     1      44.638 -20.130   4.565  1.00  0.00     0.101 A 
HETATM   35  C   UNL     1      44.189 -19.318   5.610  1.00  0.00     0.040 A 
HETATM   36  C   UNL     1      43.273 -18.290   5.364  1.00  0.00     0.017 A 
BRANCH  33  37
HETATM   37  O   UNL     1      44.648 -20.746   2.287  1.00  0.00    -0.353 OA
HETATM   38  C   UNL     1      43.762 -21.710   1.738  1.00  0.00     0.210 C 
ENDBRANCH  33  37
BRANCH  34  39
HETATM   39  O   UNL     1      45.540 -21.154   4.710  1.00  0.00    -0.353 OA
HETATM   40  C   UNL     1      45.077 -22.372   5.273  1.00  0.00     0.210 C 
ENDBRANCH  34  39
ENDBRANCH  29  31
ENDBRANCH  19  25
ENDBRANCH  15  16
ENDBRANCH  13  15
ENDBRANCH  11  13
ENDBRANCH   9  11
ENDBRANCH   1   9
TORSDOF 9
ENDMDL
MODEL 9
REMARK VINA RESULT:      -8.3      2.627      4.424
REMARK  9 active torsions:
REMARK  status: ('A' for Active; 'I' for Inactive)
REMARK    1  A    between atoms: C_4  and  C_5 
REMARK    2  A    between atoms: C_7  and  O_8 
REMARK    3  A    between atoms: C_10  and  O_11 
REMARK    4  A    between atoms: C_16  and  C_17 
REMARK    5  A    between atoms: C_20  and  C_21 
REMARK    6  A    between atoms: C_21  and  N_22 
REMARK    7  A    between atoms: N_22  and  C_23 
REMARK    8  A    between atoms: C_23  and  N_24 
REMARK    9  A    between atoms: N_24  and  C_25 
ROOT
HETATM    1  C   UNL     1      41.392 -13.830   4.542  1.00  0.00     0.035 A 
HETATM    2  C   UNL     1      42.684 -13.677   5.045  1.00  0.00     0.052 A 
HETATM    3  C   UNL     1      43.166 -14.513   6.061  1.00  0.00     0.046 A 
HETATM    4  C   UNL     1      44.488 -14.290   6.566  1.00  0.00     0.099 C 
HETATM    5  N   UNL     1      45.552 -14.018   6.938  1.00  0.00    -0.191 NA
HETATM    6  C   UNL     1      42.359 -15.534   6.561  1.00  0.00     0.023 A 
HETATM    7  C   UNL     1      41.079 -15.719   6.036  1.00  0.00     0.004 A 
HETATM    8  C   UNL     1      40.602 -14.875   5.027  1.00  0.00     0.029 A 
ENDROOT
BRANCH   1   9
HETATM    9  N   UNL     1      40.865 -13.023   3.510  1.00  0.00    -0.333 N 
HETATM   10  H   UNL     1      40.492 -13.525   2.707  1.00  0.00     0.168 HD
BRANCH   9  11
HETATM   11  C   UNL     1      40.937 -11.669   3.323  1.00  0.00     0.172 C 
HETATM   12  S   UNL     1      40.796 -10.668   4.649  1.00  0.00    -0.041 SA
BRANCH  11  13
HETATM   13  N   UNL     1      41.178 -11.248   2.039  1.00  0.00    -0.365 N 
HETATM   14  H   UNL     1      41.959 -10.599   1.996  1.00  0.00     0.161 HD
BRANCH  13  15
HETATM   15  C   UNL     1      40.183 -11.202   0.970  1.00  0.00     0.155 C 
BRANCH  15  16
HETATM   16  C   UNL     1      40.697 -11.762  -0.373  1.00  0.00     0.206 C 
HETATM   17  C   UNL     1      41.964 -12.627  -0.274  1.00  0.00     0.040 C 
HETATM   18  C   UNL     1      41.873 -13.848  -1.220  1.00  0.00     0.001 C 
HETATM   19  C   UNL     1      40.757 -14.820  -0.755  1.00  0.00     0.067 C 
HETATM   20  C   UNL     1      41.454 -13.321  -2.612  1.00  0.00     0.033 C 
HETATM   21  C   UNL     1      39.485 -13.992  -0.461  1.00  0.00     0.246 C 
HETATM   22  N   UNL     1      39.640 -12.603  -1.092  1.00  0.00    -0.065 N 
HETATM   23  C   UNL     1      40.033 -12.744  -2.558  1.00  0.00     0.236 C 
HETATM   24  H   UNL     1      38.731 -12.120  -1.045  1.00  0.00     0.280 HD
BRANCH  19  25
HETATM   25  C   UNL     1      41.135 -15.723   0.385  1.00  0.00     0.038 A 
HETATM   26  N   UNL     1      40.338 -15.912   1.494  1.00  0.00    -0.277 N 
HETATM   27  C   UNL     1      39.026 -15.363   1.756  1.00  0.00     0.179 C 
HETATM   28  N   UNL     1      40.875 -16.725   2.410  1.00  0.00    -0.172 NA
HETATM   29  C   UNL     1      42.023 -17.157   1.875  1.00  0.00     0.089 A 
HETATM   30  C   UNL     1      42.216 -16.560   0.600  1.00  0.00     0.061 A 
BRANCH  29  31
HETATM   31  C   UNL     1      42.887 -18.116   2.566  1.00  0.00    -0.003 A 
HETATM   32  C   UNL     1      43.092 -18.013   3.949  1.00  0.00     0.053 A 
HETATM   33  C   UNL     1      43.899 -18.934   4.630  1.00  0.00     0.102 A 
HETATM   34  C   UNL     1      44.532 -19.968   3.912  1.00  0.00     0.101 A 
HETATM   35  C   UNL     1      44.337 -20.067   2.532  1.00  0.00     0.040 A 
HETATM   36  C   UNL     1      43.518 -19.150   1.865  1.00  0.00     0.017 A 
BRANCH  33  37
HETATM   37  O   UNL     1      44.137 -18.907   5.982  1.00  0.00    -0.353 OA
HETATM   38  C   UNL     1      45.130 -18.010   6.459  1.00  0.00     0.210 C 
ENDBRANCH  33  37
BRANCH  34  39
HETATM   39  O   UNL     1      45.309 -20.826   4.650  1.00  0.00    -0.353 OA
HETATM   40  C   UNL     1      44.797 -22.122   4.919  1.00  0.00     0.210 C 
ENDBRANCH  34  39
ENDBRANCH  29  31
ENDBRANCH  19  25
ENDBRANCH  15  16
ENDBRANCH  13  15
ENDBRANCH  11  13
ENDBRANCH   9  11
ENDBRANCH   1   9
TORSDOF 9
ENDMDL
MODEL 10
REMARK VINA RESULT:      -8.1      3.493      8.486
REMARK  9 active torsions:
REMARK  status: ('A' for Active; 'I' for Inactive)
REMARK    1  A    between atoms: C_4  and  C_5 
REMARK    2  A    between atoms: C_7  and  O_8 
REMARK    3  A    between atoms: C_10  and  O_11 
REMARK    4  A    between atoms: C_16  and  C_17 
REMARK    5  A    between atoms: C_20  and  C_21 
REMARK    6  A    between atoms: C_21  and  N_22 
REMARK    7  A    between atoms: N_22  and  C_23 
REMARK    8  A    between atoms: C_23  and  N_24 
REMARK    9  A    between atoms: N_24  and  C_25 
ROOT
HETATM    1  C   UNL     1      43.762 -18.310   3.929  1.00  0.00     0.035 A 
HETATM    2  C   UNL     1      44.298 -19.422   4.581  1.00  0.00     0.052 A 
HETATM    3  C   UNL     1      44.466 -20.639   3.908  1.00  0.00     0.046 A 
HETATM    4  C   UNL     1      44.987 -21.759   4.633  1.00  0.00     0.099 C 
HETATM    5  N   UNL     1      45.383 -22.619   5.304  1.00  0.00    -0.191 NA
HETATM    6  C   UNL     1      44.123 -20.741   2.561  1.00  0.00     0.023 A 
HETATM    7  C   UNL     1      43.623 -19.624   1.891  1.00  0.00     0.004 A 
HETATM    8  C   UNL     1      43.451 -18.413   2.571  1.00  0.00     0.029 A 
ENDROOT
BRANCH   1   9
HETATM    9  N   UNL     1      43.587 -17.058   4.558  1.00  0.00    -0.333 N 
HETATM   10  H   UNL     1      44.373 -16.735   5.119  1.00  0.00     0.168 HD
BRANCH   9  11
HETATM   11  C   UNL     1      42.465 -16.285   4.691  1.00  0.00     0.172 C 
HETATM   12  S   UNL     1      41.267 -16.784   5.737  1.00  0.00    -0.041 SA
BRANCH  11  13
HETATM   13  N   UNL     1      42.450 -15.114   3.975  1.00  0.00    -0.365 N 
HETATM   14  H   UNL     1      41.917 -14.390   4.449  1.00  0.00     0.161 HD
BRANCH  13  15
HETATM   15  C   UNL     1      42.616 -15.013   2.526  1.00  0.00     0.155 C 
BRANCH  15  16
HETATM   16  C   UNL     1      41.299 -14.723   1.776  1.00  0.00     0.206 C 
HETATM   17  C   UNL     1      40.052 -14.614   2.669  1.00  0.00     0.040 C 
HETATM   18  C   UNL     1      39.129 -13.468   2.191  1.00  0.00     0.001 C 
HETATM   19  C   UNL     1      39.816 -12.092   2.391  1.00  0.00     0.067 C 
HETATM   20  C   UNL     1      38.925 -13.648   0.669  1.00  0.00     0.033 C 
HETATM   21  C   UNL     1      41.258 -12.184   1.841  1.00  0.00     0.246 C 
HETATM   22  N   UNL     1      41.372 -13.432   0.957  1.00  0.00    -0.065 N 
HETATM   23  C   UNL     1      40.251 -13.437  -0.075  1.00  0.00     0.236 C 
HETATM   24  H   UNL     1      42.273 -13.397   0.458  1.00  0.00     0.280 HD
BRANCH  19  25
HETATM   25  C   UNL     1      39.766 -11.555   3.794  1.00  0.00     0.038 A 
HETATM   26  N   UNL     1      38.812 -10.659   4.226  1.00  0.00    -0.277 N 
HETATM   27  C   UNL     1      37.690 -10.123   3.486  1.00  0.00     0.179 C 
HETATM   28  N   UNL     1      38.967 -10.278   5.498  1.00  0.00    -0.172 NA
HETATM   29  C   UNL     1      40.002 -10.990   5.960  1.00  0.00     0.089 A 
HETATM   30  C   UNL     1      40.523 -11.812   4.924  1.00  0.00     0.061 A 
BRANCH  29  31
HETATM   31  C   UNL     1      40.455 -10.886   7.348  1.00  0.00    -0.003 A 
HETATM   32  C   UNL     1      41.823 -10.774   7.638  1.00  0.00     0.053 A 
HETATM   33  C   UNL     1      42.273 -10.653   8.959  1.00  0.00     0.102 A 
HETATM   34  C   UNL     1      41.341 -10.665  10.016  1.00  0.00     0.101 A 
HETATM   35  C   UNL     1      39.978 -10.786   9.730  1.00  0.00     0.040 A 
HETATM   36  C   UNL     1      39.539 -10.892   8.406  1.00  0.00     0.017 A 
BRANCH  33  37
HETATM   37  O   UNL     1      43.591 -10.527   9.322  1.00  0.00    -0.353 OA
HETATM   38  C   UNL     1      44.438 -11.653   9.134  1.00  0.00     0.210 C 
ENDBRANCH  33  37
BRANCH  34  39
HETATM   39  O   UNL     1      41.861 -10.547  11.280  1.00  0.00    -0.353 OA
HETATM   40  C   UNL     1      41.573  -9.363  12.010  1.00  0.00     0.210 C 
ENDBRANCH  34  39
ENDBRANCH  29  31
ENDBRANCH  19  25
ENDBRANCH  15  16
ENDBRANCH  13  15
ENDBRANCH  11  13
ENDBRANCH   9  11
ENDBRANCH   1   9
TORSDOF 9
ENDMDL
