MODEL 1
REMARK VINA RESULT:      -8.3      0.000      0.000
REMARK  7 active torsions:
REMARK  status: ('A' for Active; 'I' for Inactive)
REMARK    1  A    between atoms: N_3  and  C_4 
REMARK    2  A    between atoms: C_12  and  C_13 
REMARK       I    between atoms: C_13  and  N_14 
REMARK    3  A    between atoms: N_14  and  C_15 
REMARK    4  A    between atoms: C_15  and  C_16 
REMARK    5  A    between atoms: C_16  and  O_17 
REMARK    6  A    between atoms: C_16  and  C_18 
REMARK    7  A    between atoms: C_21  and  O_22 
ROOT
HETATM    1  C   UNL     1      44.341 -13.064   7.757  1.00  0.00     0.255 C 
HETATM    2  N   UNL     1      43.431 -13.629   6.900  1.00  0.00    -0.350 N 
HETATM    3  O   UNL     1      45.546 -13.280   7.678  1.00  0.00    -0.268 OA
HETATM    4  H   UNL     1      42.456 -13.375   6.949  1.00  0.00     0.163 HD
ENDROOT
BRANCH   2   5
HETATM    5  C   UNL     1      43.801 -14.563   5.835  1.00  0.00     0.114 C 
HETATM    6  C   UNL     1      43.870 -13.786   4.519  1.00  0.00     0.035 C 
BRANCH   5   7
HETATM    7  C   UNL     1      42.790 -15.738   5.725  1.00  0.00     0.173 C 
BRANCH   7   8
HETATM    8  O   UNL     1      42.017 -15.841   6.930  1.00  0.00    -0.389 OA
HETATM    9  H   UNL     1      41.309 -16.485   6.748  1.00  0.00     0.210 HD
ENDBRANCH   7   8
BRANCH   7  10
HETATM   10  C   UNL     1      43.438 -17.070   5.397  1.00  0.00    -0.028 A 
HETATM   11  C   UNL     1      43.087 -17.748   4.222  1.00  0.00     0.012 A 
HETATM   12  C   UNL     1      43.695 -18.965   3.896  1.00  0.00     0.037 A 
HETATM   13  C   UNL     1      44.667 -19.522   4.726  1.00  0.00     0.068 A 
HETATM   14  C   UNL     1      45.018 -18.859   5.901  1.00  0.00     0.037 A 
HETATM   15  C   UNL     1      44.407 -17.644   6.232  1.00  0.00     0.012 A 
BRANCH  13  16
HETATM   16  O   UNL     1      45.187 -20.708   4.286  1.00  0.00    -0.356 OA
HETATM   17  C   UNL     1      44.943 -21.851   5.095  1.00  0.00     0.210 C 
ENDBRANCH  13  16
ENDBRANCH   7  10
ENDBRANCH   5   7
ENDBRANCH   2   5
BRANCH   1  18
HETATM   18  C   UNL     1      43.804 -12.139   8.746  1.00  0.00     0.075 C 
HETATM   19  C   UNL     1      44.008 -12.010  10.119  1.00  0.00     0.051 C 
HETATM   20  C   UNL     1      44.944 -12.706  11.046  1.00  0.00     0.071 C 
HETATM   21  N   UNL     1      43.134 -11.008  10.551  1.00  0.00    -0.220 N 
HETATM   22  N   UNL     1      42.549 -10.376   9.496  1.00  0.00    -0.177 NA
HETATM   23  C   UNL     1      42.929 -11.077   8.434  1.00  0.00     0.158 C 
BRANCH  21  24
HETATM   24  C   UNL     1      42.804 -10.620  11.897  1.00  0.00     0.150 A 
HETATM   25  N   UNL     1      41.668 -11.102  12.470  1.00  0.00    -0.241 NA
HETATM   26  C   UNL     1      41.378 -10.689  13.724  1.00  0.00     0.119 A 
HETATM   27  C   UNL     1      42.168  -9.817  14.452  1.00  0.00     0.019 A 
HETATM   28  C   UNL     1      43.326  -9.333  13.860  1.00  0.00     0.005 A 
HETATM   29  C   UNL     1      43.651  -9.732  12.565  1.00  0.00     0.052 A 
ENDBRANCH  21  24
ENDBRANCH   1  18
TORSDOF 7
ENDMDL
MODEL 2
REMARK VINA RESULT:      -7.9      5.579      8.525
REMARK  7 active torsions:
REMARK  status: ('A' for Active; 'I' for Inactive)
REMARK    1  A    between atoms: N_3  and  C_4 
REMARK    2  A    between atoms: C_12  and  C_13 
REMARK       I    between atoms: C_13  and  N_14 
REMARK    3  A    between atoms: N_14  and  C_15 
REMARK    4  A    between atoms: C_15  and  C_16 
REMARK    5  A    between atoms: C_16  and  O_17 
REMARK    6  A    between atoms: C_16  and  C_18 
REMARK    7  A    between atoms: C_21  and  O_22 
ROOT
HETATM    1  C   UNL     1      43.531 -18.394   2.188  1.00  0.00     0.255 C 
HETATM    2  N   UNL     1      43.450 -19.648   2.737  1.00  0.00    -0.350 N 
HETATM    3  O   UNL     1      44.447 -18.055   1.445  1.00  0.00    -0.268 OA
HETATM    4  H   UNL     1      42.647 -19.915   3.286  1.00  0.00     0.163 HD
ENDROOT
BRANCH   2   5
HETATM    5  C   UNL     1      44.457 -20.688   2.520  1.00  0.00     0.114 C 
HETATM    6  C   UNL     1      43.833 -21.787   1.656  1.00  0.00     0.035 C 
BRANCH   5   7
HETATM    7  C   UNL     1      44.974 -21.275   3.862  1.00  0.00     0.173 C 
BRANCH   7   8
HETATM    8  O   UNL     1      44.460 -22.600   4.056  1.00  0.00    -0.389 OA
HETATM    9  H   UNL     1      43.511 -22.501   4.252  1.00  0.00     0.210 HD
ENDBRANCH   7   8
BRANCH   7  10
HETATM   10  C   UNL     1      44.663 -20.406   5.067  1.00  0.00    -0.028 A 
HETATM   11  C   UNL     1      43.921 -20.929   6.134  1.00  0.00     0.012 A 
HETATM   12  C   UNL     1      43.649 -20.147   7.260  1.00  0.00     0.037 A 
HETATM   13  C   UNL     1      44.117 -18.836   7.349  1.00  0.00     0.068 A 
HETATM   14  C   UNL     1      44.850 -18.304   6.290  1.00  0.00     0.037 A 
HETATM   15  C   UNL     1      45.120 -19.084   5.159  1.00  0.00     0.012 A 
BRANCH  13  16
HETATM   16  O   UNL     1      43.789 -18.186   8.507  1.00  0.00    -0.356 OA
HETATM   17  C   UNL     1      43.447 -16.811   8.392  1.00  0.00     0.210 C 
ENDBRANCH  13  16
ENDBRANCH   7  10
ENDBRANCH   5   7
ENDBRANCH   2   5
BRANCH   1  18
HETATM   18  C   UNL     1      42.430 -17.488   2.490  1.00  0.00     0.075 C 
HETATM   19  C   UNL     1      41.684 -16.620   1.694  1.00  0.00     0.051 C 
HETATM   20  C   UNL     1      41.673 -16.397   0.221  1.00  0.00     0.071 C 
HETATM   21  N   UNL     1      40.835 -15.928   2.563  1.00  0.00    -0.220 N 
HETATM   22  N   UNL     1      40.872 -16.458   3.816  1.00  0.00    -0.177 NA
HETATM   23  C   UNL     1      41.846 -17.361   3.768  1.00  0.00     0.158 C 
BRANCH  21  24
HETATM   24  C   UNL     1      40.002 -14.787   2.288  1.00  0.00     0.150 A 
HETATM   25  N   UNL     1      40.393 -13.557   2.719  1.00  0.00    -0.241 NA
HETATM   26  C   UNL     1      39.568 -12.516   2.468  1.00  0.00     0.119 A 
HETATM   27  C   UNL     1      38.363 -12.630   1.798  1.00  0.00     0.019 A 
HETATM   28  C   UNL     1      37.973 -13.889   1.360  1.00  0.00     0.005 A 
HETATM   29  C   UNL     1      38.798 -14.985   1.609  1.00  0.00     0.052 A 
ENDBRANCH  21  24
ENDBRANCH   1  18
TORSDOF 7
ENDMDL
MODEL 3
REMARK VINA RESULT:      -7.7      6.648     10.148
REMARK  7 active torsions:
REMARK  status: ('A' for Active; 'I' for Inactive)
REMARK    1  A    between atoms: N_3  and  C_4 
REMARK    2  A    between atoms: C_12  and  C_13 
REMARK       I    between atoms: C_13  and  N_14 
REMARK    3  A    between atoms: N_14  and  C_15 
REMARK    4  A    between atoms: C_15  and  C_16 
REMARK    5  A    between atoms: C_16  and  O_17 
REMARK    6  A    between atoms: C_16  and  C_18 
REMARK    7  A    between atoms: C_21  and  O_22 
ROOT
HETATM    1  C   UNL     1      42.950 -14.593   2.907  1.00  0.00     0.255 C 
HETATM    2  N   UNL     1      41.792 -14.441   2.188  1.00  0.00    -0.350 N 
HETATM    3  O   UNL     1      43.663 -13.645   3.219  1.00  0.00    -0.268 OA
HETATM    4  H   UNL     1      41.193 -15.233   2.010  1.00  0.00     0.163 HD
ENDROOT
BRANCH   2   5
HETATM    5  C   UNL     1      41.313 -13.148   1.698  1.00  0.00     0.114 C 
HETATM    6  C   UNL     1      39.790 -13.222   1.559  1.00  0.00     0.035 C 
BRANCH   5   7
HETATM    7  C   UNL     1      41.968 -12.770   0.341  1.00  0.00     0.173 C 
BRANCH   7   8
HETATM    8  O   UNL     1      41.840 -11.360   0.104  1.00  0.00    -0.389 OA
HETATM    9  H   UNL     1      40.960 -11.105   0.433  1.00  0.00     0.210 HD
ENDBRANCH   7   8
BRANCH   7  10
HETATM   10  C   UNL     1      41.425 -13.556  -0.838  1.00  0.00    -0.028 A 
HETATM   11  C   UNL     1      40.905 -12.880  -1.950  1.00  0.00     0.012 A 
HETATM   12  C   UNL     1      40.424 -13.592  -3.052  1.00  0.00     0.037 A 
HETATM   13  C   UNL     1      40.461 -14.986  -3.073  1.00  0.00     0.068 A 
HETATM   14  C   UNL     1      40.970 -15.668  -1.970  1.00  0.00     0.037 A 
HETATM   15  C   UNL     1      41.447 -14.957  -0.862  1.00  0.00     0.012 A 
BRANCH  13  16
HETATM   16  O   UNL     1      39.969 -15.557  -4.215  1.00  0.00    -0.356 OA
HETATM   17  C   UNL     1      38.648 -16.078  -4.149  1.00  0.00     0.210 C 
ENDBRANCH  13  16
ENDBRANCH   7  10
ENDBRANCH   5   7
ENDBRANCH   2   5
BRANCH   1  18
HETATM   18  C   UNL     1      43.267 -15.949   3.335  1.00  0.00     0.075 C 
HETATM   19  C   UNL     1      43.731 -17.067   2.644  1.00  0.00     0.051 C 
HETATM   20  C   UNL     1      44.179 -17.239   1.234  1.00  0.00     0.071 C 
HETATM   21  N   UNL     1      43.743 -18.118   3.566  1.00  0.00    -0.220 N 
HETATM   22  N   UNL     1      43.507 -17.668   4.830  1.00  0.00    -0.177 NA
HETATM   23  C   UNL     1      43.193 -16.386   4.675  1.00  0.00     0.158 C 
BRANCH  21  24
HETATM   24  C   UNL     1      43.950 -19.522   3.328  1.00  0.00     0.150 A 
HETATM   25  N   UNL     1      44.646 -20.257   4.239  1.00  0.00    -0.241 NA
HETATM   26  C   UNL     1      44.845 -21.565   3.963  1.00  0.00     0.119 A 
HETATM   27  C   UNL     1      44.380 -22.194   2.822  1.00  0.00     0.019 A 
HETATM   28  C   UNL     1      43.669 -21.437   1.901  1.00  0.00     0.005 A 
HETATM   29  C   UNL     1      43.452 -20.082   2.150  1.00  0.00     0.052 A 
ENDBRANCH  21  24
ENDBRANCH   1  18
TORSDOF 7
ENDMDL
MODEL 4
REMARK VINA RESULT:      -7.7      5.125      8.826
REMARK  7 active torsions:
REMARK  status: ('A' for Active; 'I' for Inactive)
REMARK    1  A    between atoms: N_3  and  C_4 
REMARK    2  A    between atoms: C_12  and  C_13 
REMARK       I    between atoms: C_13  and  N_14 
REMARK    3  A    between atoms: N_14  and  C_15 
REMARK    4  A    between atoms: C_15  and  C_16 
REMARK    5  A    between atoms: C_16  and  O_17 
REMARK    6  A    between atoms: C_16  and  C_18 
REMARK    7  A    between atoms: C_21  and  O_22 
ROOT
HETATM    1  C   UNL     1      41.361 -14.835   4.545  1.00  0.00     0.255 C 
HETATM    2  N   UNL     1      42.502 -15.442   5.005  1.00  0.00    -0.350 N 
HETATM    3  O   UNL     1      40.404 -14.589   5.272  1.00  0.00    -0.268 OA
HETATM    4  H   UNL     1      43.296 -15.564   4.395  1.00  0.00     0.163 HD
ENDROOT
BRANCH   2   5
HETATM    5  C   UNL     1      42.677 -15.883   6.390  1.00  0.00     0.114 C 
HETATM    6  C   UNL     1      44.097 -15.521   6.832  1.00  0.00     0.035 C 
BRANCH   5   7
HETATM    7  C   UNL     1      42.428 -17.408   6.542  1.00  0.00     0.173 C 
BRANCH   7   8
HETATM    8  O   UNL     1      42.845 -17.852   7.841  1.00  0.00    -0.389 OA
HETATM    9  H   UNL     1      43.797 -18.047   7.773  1.00  0.00     0.210 HD
ENDBRANCH   7   8
BRANCH   7  10
HETATM   10  C   UNL     1      43.089 -18.244   5.461  1.00  0.00    -0.028 A 
HETATM   11  C   UNL     1      44.238 -18.991   5.758  1.00  0.00     0.012 A 
HETATM   12  C   UNL     1      44.842 -19.784   4.777  1.00  0.00     0.037 A 
HETATM   13  C   UNL     1      44.310 -19.856   3.490  1.00  0.00     0.068 A 
HETATM   14  C   UNL     1      43.172 -19.112   3.183  1.00  0.00     0.037 A 
HETATM   15  C   UNL     1      42.569 -18.313   4.161  1.00  0.00     0.012 A 
BRANCH  13  16
HETATM   16  O   UNL     1      44.991 -20.675   2.632  1.00  0.00    -0.356 OA
HETATM   17  C   UNL     1      44.268 -21.774   2.091  1.00  0.00     0.210 C 
ENDBRANCH  13  16
ENDBRANCH   7  10
ENDBRANCH   5   7
ENDBRANCH   2   5
BRANCH   1  18
HETATM   18  C   UNL     1      41.363 -14.440   3.142  1.00  0.00     0.075 C 
HETATM   19  C   UNL     1      40.509 -14.740   2.082  1.00  0.00     0.051 C 
HETATM   20  C   UNL     1      39.218 -15.482   2.035  1.00  0.00     0.071 C 
HETATM   21  N   UNL     1      41.082 -14.162   0.945  1.00  0.00    -0.220 N 
HETATM   22  N   UNL     1      42.130 -13.357   1.275  1.00  0.00    -0.177 NA
HETATM   23  C   UNL     1      42.307 -13.557   2.577  1.00  0.00     0.158 C 
BRANCH  21  24
HETATM   24  C   UNL     1      40.713 -14.333  -0.435  1.00  0.00     0.150 A 
HETATM   25  N   UNL     1      39.859 -13.444  -1.011  1.00  0.00    -0.241 NA
HETATM   26  C   UNL     1      39.512 -13.657  -2.300  1.00  0.00     0.119 A 
HETATM   27  C   UNL     1      39.977 -14.716  -3.060  1.00  0.00     0.019 A 
HETATM   28  C   UNL     1      40.849 -15.617  -2.464  1.00  0.00     0.005 A 
HETATM   29  C   UNL     1      41.222 -15.430  -1.134  1.00  0.00     0.052 A 
ENDBRANCH  21  24
ENDBRANCH   1  18
TORSDOF 7
ENDMDL
MODEL 5
REMARK VINA RESULT:      -7.7      2.853      9.799
REMARK  7 active torsions:
REMARK  status: ('A' for Active; 'I' for Inactive)
REMARK    1  A    between atoms: N_3  and  C_4 
REMARK    2  A    between atoms: C_12  and  C_13 
REMARK       I    between atoms: C_13  and  N_14 
REMARK    3  A    between atoms: N_14  and  C_15 
REMARK    4  A    between atoms: C_15  and  C_16 
REMARK    5  A    between atoms: C_16  and  O_17 
REMARK    6  A    between atoms: C_16  and  C_18 
REMARK    7  A    between atoms: C_21  and  O_22 
ROOT
HETATM    1  C   UNL     1      43.713 -13.300   7.191  1.00  0.00     0.255 C 
HETATM    2  N   UNL     1      44.680 -13.164   8.154  1.00  0.00    -0.350 N 
HETATM    3  O   UNL     1      42.952 -12.387   6.885  1.00  0.00    -0.268 OA
HETATM    4  H   UNL     1      45.334 -13.912   8.331  1.00  0.00     0.163 HD
ENDROOT
BRANCH   2   5
HETATM    5  C   UNL     1      44.878 -11.938   8.929  1.00  0.00     0.114 C 
HETATM    6  C   UNL     1      46.330 -11.489   8.752  1.00  0.00     0.035 C 
BRANCH   5   7
HETATM    7  C   UNL     1      44.549 -12.149  10.432  1.00  0.00     0.173 C 
BRANCH   7   8
HETATM    8  O   UNL     1      44.047 -13.476  10.648  1.00  0.00    -0.389 OA
HETATM    9  H   UNL     1      44.166 -13.956   9.808  1.00  0.00     0.210 HD
ENDBRANCH   7   8
BRANCH   7  10
HETATM   10  C   UNL     1      43.586 -11.122  10.996  1.00  0.00    -0.028 A 
HETATM   11  C   UNL     1      43.929 -10.396  12.145  1.00  0.00     0.012 A 
HETATM   12  C   UNL     1      43.060  -9.429  12.659  1.00  0.00     0.037 A 
HETATM   13  C   UNL     1      41.842  -9.159  12.036  1.00  0.00     0.068 A 
HETATM   14  C   UNL     1      41.488  -9.880  10.897  1.00  0.00     0.037 A 
HETATM   15  C   UNL     1      42.354 -10.853  10.383  1.00  0.00     0.012 A 
BRANCH  13  16
HETATM   16  O   UNL     1      41.093  -8.184  12.636  1.00  0.00    -0.356 OA
HETATM   17  C   UNL     1      39.779  -8.548  13.041  1.00  0.00     0.210 C 
ENDBRANCH  13  16
ENDBRANCH   7  10
ENDBRANCH   5   7
ENDBRANCH   2   5
BRANCH   1  18
HETATM   18  C   UNL     1      43.668 -14.582   6.501  1.00  0.00     0.075 C 
HETATM   19  C   UNL     1      43.617 -14.919   5.149  1.00  0.00     0.051 C 
HETATM   20  C   UNL     1      43.706 -14.082   3.920  1.00  0.00     0.071 C 
HETATM   21  N   UNL     1      43.479 -16.310   5.099  1.00  0.00    -0.220 N 
HETATM   22  N   UNL     1      43.644 -16.867   6.331  1.00  0.00    -0.177 NA
HETATM   23  C   UNL     1      43.723 -15.829   7.158  1.00  0.00     0.158 C 
BRANCH  21  24
HETATM   24  C   UNL     1      43.188 -17.145   3.964  1.00  0.00     0.150 A 
HETATM   25  N   UNL     1      42.095 -16.871   3.199  1.00  0.00    -0.241 NA
HETATM   26  C   UNL     1      41.838 -17.697   2.161  1.00  0.00     0.119 A 
HETATM   27  C   UNL     1      42.620 -18.791   1.833  1.00  0.00     0.019 A 
HETATM   28  C   UNL     1      43.732 -19.061   2.617  1.00  0.00     0.005 A 
HETATM   29  C   UNL     1      44.022 -18.233   3.700  1.00  0.00     0.052 A 
ENDBRANCH  21  24
ENDBRANCH   1  18
TORSDOF 7
ENDMDL
MODEL 6
REMARK VINA RESULT:      -7.5      7.647     11.130
REMARK  7 active torsions:
REMARK  status: ('A' for Active; 'I' for Inactive)
REMARK    1  A    between atoms: N_3  and  C_4 
REMARK    2  A    between atoms: C_12  and  C_13 
REMARK       I    between atoms: C_13  and  N_14 
REMARK    3  A    between atoms: N_14  and  C_15 
REMARK    4  A    between atoms: C_15  and  C_16 
REMARK    5  A    between atoms: C_16  and  O_17 
REMARK    6  A    between atoms: C_16  and  C_18 
REMARK    7  A    between atoms: C_21  and  O_22 
ROOT
HETATM    1  C   UNL     1      41.407 -15.259   1.797  1.00  0.00     0.255 C 
HETATM    2  N   UNL     1      40.299 -15.381   0.998  1.00  0.00    -0.350 N 
HETATM    3  O   UNL     1      41.952 -14.181   2.010  1.00  0.00    -0.268 OA
HETATM    4  H   UNL     1      39.835 -16.271   0.901  1.00  0.00     0.163 HD
ENDROOT
BRANCH   2   5
HETATM    5  C   UNL     1      39.681 -14.252   0.300  1.00  0.00     0.114 C 
HETATM    6  C   UNL     1      38.201 -14.202   0.686  1.00  0.00     0.035 C 
BRANCH   5   7
HETATM    7  C   UNL     1      39.841 -14.371  -1.240  1.00  0.00     0.173 C 
BRANCH   7   8
HETATM    8  O   UNL     1      40.441 -15.630  -1.580  1.00  0.00    -0.389 OA
HETATM    9  H   UNL     1      41.362 -15.436  -1.832  1.00  0.00     0.210 HD
ENDBRANCH   7   8
BRANCH   7  10
HETATM   10  C   UNL     1      40.622 -13.228  -1.862  1.00  0.00    -0.028 A 
HETATM   11  C   UNL     1      41.138 -12.209  -1.050  1.00  0.00     0.012 A 
HETATM   12  C   UNL     1      41.880 -11.164  -1.607  1.00  0.00     0.037 A 
HETATM   13  C   UNL     1      42.131 -11.119  -2.979  1.00  0.00     0.068 A 
HETATM   14  C   UNL     1      41.616 -12.123  -3.796  1.00  0.00     0.037 A 
HETATM   15  C   UNL     1      40.868 -13.168  -3.240  1.00  0.00     0.012 A 
BRANCH  13  16
HETATM   16  O   UNL     1      42.877 -10.049  -3.391  1.00  0.00    -0.356 OA
HETATM   17  C   UNL     1      42.262  -8.771  -3.303  1.00  0.00     0.210 C 
ENDBRANCH  13  16
ENDBRANCH   7  10
ENDBRANCH   5   7
ENDBRANCH   2   5
BRANCH   1  18
HETATM   18  C   UNL     1      41.880 -16.482   2.432  1.00  0.00     0.075 C 
HETATM   19  C   UNL     1      42.858 -17.408   2.074  1.00  0.00     0.051 C 
HETATM   20  C   UNL     1      43.852 -17.413   0.965  1.00  0.00     0.071 C 
HETATM   21  N   UNL     1      42.786 -18.436   3.020  1.00  0.00    -0.220 N 
HETATM   22  N   UNL     1      41.960 -18.101   4.050  1.00  0.00    -0.177 NA
HETATM   23  C   UNL     1      41.404 -16.955   3.673  1.00  0.00     0.158 C 
BRANCH  21  24
HETATM   24  C   UNL     1      43.436 -19.719   3.005  1.00  0.00     0.150 A 
HETATM   25  N   UNL     1      44.245 -20.069   4.042  1.00  0.00    -0.241 NA
HETATM   26  C   UNL     1      44.861 -21.270   3.976  1.00  0.00     0.119 A 
HETATM   27  C   UNL     1      44.712 -22.157   2.925  1.00  0.00     0.019 A 
HETATM   28  C   UNL     1      43.883 -21.793   1.872  1.00  0.00     0.005 A 
HETATM   29  C   UNL     1      43.237 -20.558   1.906  1.00  0.00     0.052 A 
ENDBRANCH  21  24
ENDBRANCH   1  18
TORSDOF 7
ENDMDL
MODEL 7
REMARK VINA RESULT:      -7.5      6.094     10.030
REMARK  7 active torsions:
REMARK  status: ('A' for Active; 'I' for Inactive)
REMARK    1  A    between atoms: N_3  and  C_4 
REMARK    2  A    between atoms: C_12  and  C_13 
REMARK       I    between atoms: C_13  and  N_14 
REMARK    3  A    between atoms: N_14  and  C_15 
REMARK    4  A    between atoms: C_15  and  C_16 
REMARK    5  A    between atoms: C_16  and  O_17 
REMARK    6  A    between atoms: C_16  and  C_18 
REMARK    7  A    between atoms: C_21  and  O_22 
ROOT
HETATM    1  C   UNL     1      40.480 -15.910   1.988  1.00  0.00     0.255 C 
HETATM    2  N   UNL     1      41.035 -15.258   3.060  1.00  0.00    -0.350 N 
HETATM    3  O   UNL     1      40.148 -17.090   2.032  1.00  0.00    -0.268 OA
HETATM    4  H   UNL     1      41.230 -14.270   3.012  1.00  0.00     0.163 HD
ENDROOT
BRANCH   2   5
HETATM    5  C   UNL     1      41.314 -15.910   4.341  1.00  0.00     0.114 C 
HETATM    6  C   UNL     1      40.699 -15.059   5.455  1.00  0.00     0.035 C 
BRANCH   5   7
HETATM    7  C   UNL     1      42.840 -16.093   4.571  1.00  0.00     0.173 C 
BRANCH   7   8
HETATM    8  O   UNL     1      43.564 -15.004   3.980  1.00  0.00    -0.389 OA
HETATM    9  H   UNL     1      43.028 -14.692   3.229  1.00  0.00     0.210 HD
ENDBRANCH   7   8
BRANCH   7  10
HETATM   10  C   UNL     1      43.376 -17.420   4.067  1.00  0.00    -0.028 A 
HETATM   11  C   UNL     1      43.679 -18.443   4.976  1.00  0.00     0.012 A 
HETATM   12  C   UNL     1      44.151 -19.678   4.524  1.00  0.00     0.037 A 
HETATM   13  C   UNL     1      44.320 -19.922   3.161  1.00  0.00     0.068 A 
HETATM   14  C   UNL     1      44.029 -18.909   2.249  1.00  0.00     0.037 A 
HETATM   15  C   UNL     1      43.562 -17.669   2.700  1.00  0.00     0.012 A 
BRANCH  13  16
HETATM   16  O   UNL     1      44.778 -21.174   2.853  1.00  0.00    -0.356 OA
HETATM   17  C   UNL     1      44.178 -21.815   1.735  1.00  0.00     0.210 C 
ENDBRANCH  13  16
ENDBRANCH   7  10
ENDBRANCH   5   7
ENDBRANCH   2   5
BRANCH   1  18
HETATM   18  C   UNL     1      40.249 -15.105   0.796  1.00  0.00     0.075 C 
HETATM   19  C   UNL     1      39.140 -14.392   0.345  1.00  0.00     0.051 C 
HETATM   20  C   UNL     1      37.826 -14.104   0.986  1.00  0.00     0.071 C 
HETATM   21  N   UNL     1      39.476 -13.908  -0.923  1.00  0.00    -0.220 N 
HETATM   22  N   UNL     1      40.795 -14.111  -1.194  1.00  0.00    -0.177 NA
HETATM   23  C   UNL     1      41.234 -14.851  -0.182  1.00  0.00     0.158 C 
BRANCH  21  24
HETATM   24  C   UNL     1      38.627 -13.279  -1.900  1.00  0.00     0.150 A 
HETATM   25  N   UNL     1      38.473 -11.927  -1.877  1.00  0.00    -0.241 NA
HETATM   26  C   UNL     1      37.644 -11.378  -2.793  1.00  0.00     0.119 A 
HETATM   27  C   UNL     1      36.954 -12.107  -3.746  1.00  0.00     0.019 A 
HETATM   28  C   UNL     1      37.120 -13.485  -3.762  1.00  0.00     0.005 A 
HETATM   29  C   UNL     1      37.963 -14.085  -2.828  1.00  0.00     0.052 A 
ENDBRANCH  21  24
ENDBRANCH   1  18
TORSDOF 7
ENDMDL
MODEL 8
REMARK VINA RESULT:      -7.4      3.309      4.838
REMARK  7 active torsions:
REMARK  status: ('A' for Active; 'I' for Inactive)
REMARK    1  A    between atoms: N_3  and  C_4 
REMARK    2  A    between atoms: C_12  and  C_13 
REMARK       I    between atoms: C_13  and  N_14 
REMARK    3  A    between atoms: N_14  and  C_15 
REMARK    4  A    between atoms: C_15  and  C_16 
REMARK    5  A    between atoms: C_16  and  O_17 
REMARK    6  A    between atoms: C_16  and  C_18 
REMARK    7  A    between atoms: C_21  and  O_22 
ROOT
HETATM    1  C   UNL     1      42.481 -14.275   2.804  1.00  0.00     0.255 C 
HETATM    2  N   UNL     1      41.546 -14.755   1.923  1.00  0.00    -0.350 N 
HETATM    3  O   UNL     1      43.638 -14.683   2.827  1.00  0.00    -0.268 OA
HETATM    4  H   UNL     1      40.624 -14.347   1.885  1.00  0.00     0.163 HD
ENDROOT
BRANCH   2   5
HETATM    5  C   UNL     1      41.824 -15.815   0.952  1.00  0.00     0.114 C 
HETATM    6  C   UNL     1      41.198 -15.414  -0.386  1.00  0.00     0.035 C 
BRANCH   5   7
HETATM    7  C   UNL     1      41.271 -17.187   1.426  1.00  0.00     0.173 C 
BRANCH   7   8
HETATM    8  O   UNL     1      39.978 -17.020   2.026  1.00  0.00    -0.389 OA
HETATM    9  H   UNL     1      39.817 -16.060   2.071  1.00  0.00     0.210 HD
ENDBRANCH   7   8
BRANCH   7  10
HETATM   10  C   UNL     1      42.201 -17.924   2.372  1.00  0.00    -0.028 A 
HETATM   11  C   UNL     1      43.227 -18.729   1.859  1.00  0.00     0.012 A 
HETATM   12  C   UNL     1      44.105 -19.394   2.720  1.00  0.00     0.037 A 
HETATM   13  C   UNL     1      43.985 -19.263   4.103  1.00  0.00     0.068 A 
HETATM   14  C   UNL     1      42.964 -18.470   4.624  1.00  0.00     0.037 A 
HETATM   15  C   UNL     1      42.080 -17.808   3.764  1.00  0.00     0.012 A 
BRANCH  13  16
HETATM   16  O   UNL     1      44.914 -19.957   4.829  1.00  0.00    -0.356 OA
HETATM   17  C   UNL     1      44.903 -21.372   4.691  1.00  0.00     0.210 C 
ENDBRANCH  13  16
ENDBRANCH   7  10
ENDBRANCH   5   7
ENDBRANCH   2   5
BRANCH   1  18
HETATM   18  C   UNL     1      42.042 -13.203   3.688  1.00  0.00     0.075 C 
HETATM   19  C   UNL     1      42.223 -12.978   5.051  1.00  0.00     0.051 C 
HETATM   20  C   UNL     1      43.033 -13.701   6.071  1.00  0.00     0.071 C 
HETATM   21  N   UNL     1      41.475 -11.838   5.361  1.00  0.00    -0.220 N 
HETATM   22  N   UNL     1      41.007 -11.234   4.233  1.00  0.00    -0.177 NA
HETATM   23  C   UNL     1      41.323 -12.071   3.251  1.00  0.00     0.158 C 
BRANCH  21  24
HETATM   24  C   UNL     1      41.161 -11.291   6.654  1.00  0.00     0.150 A 
HETATM   25  N   UNL     1      42.081 -10.515   7.290  1.00  0.00    -0.241 NA
HETATM   26  C   UNL     1      41.760 -10.046   8.517  1.00  0.00     0.119 A 
HETATM   27  C   UNL     1      40.558 -10.303   9.152  1.00  0.00     0.019 A 
HETATM   28  C   UNL     1      39.626 -11.093   8.494  1.00  0.00     0.005 A 
HETATM   29  C   UNL     1      39.927 -11.600   7.231  1.00  0.00     0.052 A 
ENDBRANCH  21  24
ENDBRANCH   1  18
TORSDOF 7
ENDMDL
MODEL 9
REMARK VINA RESULT:      -7.4      7.270     10.913
REMARK  7 active torsions:
REMARK  status: ('A' for Active; 'I' for Inactive)
REMARK    1  A    between atoms: N_3  and  C_4 
REMARK    2  A    between atoms: C_12  and  C_13 
REMARK       I    between atoms: C_13  and  N_14 
REMARK    3  A    between atoms: N_14  and  C_15 
REMARK    4  A    between atoms: C_15  and  C_16 
REMARK    5  A    between atoms: C_16  and  O_17 
REMARK    6  A    between atoms: C_16  and  C_18 
REMARK    7  A    between atoms: C_21  and  O_22 
ROOT
HETATM    1  C   UNL     1      40.722 -15.190   0.899  1.00  0.00     0.255 C 
HETATM    2  N   UNL     1      42.066 -15.453   0.978  1.00  0.00    -0.350 N 
HETATM    3  O   UNL     1      39.975 -15.269   1.869  1.00  0.00    -0.268 OA
HETATM    4  H   UNL     1      42.662 -15.311   0.177  1.00  0.00     0.163 HD
ENDROOT
BRANCH   2   5
HETATM    5  C   UNL     1      42.731 -15.881   2.209  1.00  0.00     0.114 C 
HETATM    6  C   UNL     1      43.258 -14.636   2.927  1.00  0.00     0.035 C 
BRANCH   5   7
HETATM    7  C   UNL     1      43.888 -16.877   1.921  1.00  0.00     0.173 C 
BRANCH   7   8
HETATM    8  O   UNL     1      43.757 -17.419   0.598  1.00  0.00    -0.389 OA
HETATM    9  H   UNL     1      43.213 -18.223   0.683  1.00  0.00     0.210 HD
ENDBRANCH   7   8
BRANCH   7  10
HETATM   10  C   UNL     1      43.998 -17.995   2.941  1.00  0.00    -0.028 A 
HETATM   11  C   UNL     1      44.225 -19.311   2.517  1.00  0.00     0.012 A 
HETATM   12  C   UNL     1      44.353 -20.345   3.448  1.00  0.00     0.037 A 
HETATM   13  C   UNL     1      44.268 -20.088   4.817  1.00  0.00     0.068 A 
HETATM   14  C   UNL     1      44.036 -18.784   5.249  1.00  0.00     0.037 A 
HETATM   15  C   UNL     1      43.901 -17.747   4.318  1.00  0.00     0.012 A 
BRANCH  13  16
HETATM   16  O   UNL     1      44.421 -21.186   5.618  1.00  0.00    -0.356 OA
HETATM   17  C   UNL     1      45.166 -22.270   5.079  1.00  0.00     0.210 C 
ENDBRANCH  13  16
ENDBRANCH   7  10
ENDBRANCH   5   7
ENDBRANCH   2   5
BRANCH   1  18
HETATM   18  C   UNL     1      40.227 -14.754  -0.400  1.00  0.00     0.075 C 
HETATM   19  C   UNL     1      39.036 -14.149  -0.796  1.00  0.00     0.051 C 
HETATM   20  C   UNL     1      37.886 -13.626  -0.006  1.00  0.00     0.071 C 
HETATM   21  N   UNL     1      39.083 -14.069  -2.191  1.00  0.00    -0.220 N 
HETATM   22  N   UNL     1      40.316 -14.405  -2.662  1.00  0.00    -0.177 NA
HETATM   23  C   UNL     1      40.975 -14.841  -1.594  1.00  0.00     0.158 C 
BRANCH  21  24
HETATM   24  C   UNL     1      38.034 -13.710  -3.108  1.00  0.00     0.150 A 
HETATM   25  N   UNL     1      37.795 -12.394  -3.364  1.00  0.00    -0.241 NA
HETATM   26  C   UNL     1      36.781 -12.097  -4.207  1.00  0.00     0.119 A 
HETATM   27  C   UNL     1      35.986 -13.047  -4.823  1.00  0.00     0.019 A 
HETATM   28  C   UNL     1      36.239 -14.386  -4.558  1.00  0.00     0.005 A 
HETATM   29  C   UNL     1      37.273 -14.727  -3.687  1.00  0.00     0.052 A 
ENDBRANCH  21  24
ENDBRANCH   1  18
TORSDOF 7
ENDMDL
MODEL 10
REMARK VINA RESULT:      -7.4      5.974      9.603
REMARK  7 active torsions:
REMARK  status: ('A' for Active; 'I' for Inactive)
REMARK    1  A    between atoms: N_3  and  C_4 
REMARK    2  A    between atoms: C_12  and  C_13 
REMARK       I    between atoms: C_13  and  N_14 
REMARK    3  A    between atoms: N_14  and  C_15 
REMARK    4  A    between atoms: C_15  and  C_16 
REMARK    5  A    between atoms: C_16  and  O_17 
REMARK    6  A    between atoms: C_16  and  C_18 
REMARK    7  A    between atoms: C_21  and  O_22 
ROOT
HETATM    1  C   UNL     1      40.505 -15.783   2.336  1.00  0.00     0.255 C 
HETATM    2  N   UNL     1      41.070 -15.391   3.523  1.00  0.00    -0.350 N 
HETATM    3  O   UNL     1      40.093 -16.923   2.145  1.00  0.00    -0.268 OA
HETATM    4  H   UNL     1      41.333 -14.429   3.670  1.00  0.00     0.163 HD
ENDROOT
BRANCH   2   5
HETATM    5  C   UNL     1      41.267 -16.295   4.658  1.00  0.00     0.114 C 
HETATM    6  C   UNL     1      40.567 -15.691   5.878  1.00  0.00     0.035 C 
BRANCH   5   7
HETATM    7  C   UNL     1      42.774 -16.528   4.952  1.00  0.00     0.173 C 
BRANCH   7   8
HETATM    8  O   UNL     1      43.544 -15.395   4.523  1.00  0.00    -0.389 OA
HETATM    9  H   UNL     1      44.401 -15.743   4.218  1.00  0.00     0.210 HD
ENDBRANCH   7   8
BRANCH   7  10
HETATM   10  C   UNL     1      43.325 -17.802   4.339  1.00  0.00    -0.028 A 
HETATM   11  C   UNL     1      43.820 -18.820   5.166  1.00  0.00     0.012 A 
HETATM   12  C   UNL     1      44.307 -20.008   4.615  1.00  0.00     0.037 A 
HETATM   13  C   UNL     1      44.301 -20.211   3.235  1.00  0.00     0.068 A 
HETATM   14  C   UNL     1      43.817 -19.203   2.403  1.00  0.00     0.037 A 
HETATM   15  C   UNL     1      43.334 -18.009   2.953  1.00  0.00     0.012 A 
BRANCH  13  16
HETATM   16  O   UNL     1      44.795 -21.420   2.830  1.00  0.00    -0.356 OA
HETATM   17  C   UNL     1      44.258 -21.957   1.628  1.00  0.00     0.210 C 
ENDBRANCH  13  16
ENDBRANCH   7  10
ENDBRANCH   5   7
ENDBRANCH   2   5
BRANCH   1  18
HETATM   18  C   UNL     1      40.365 -14.750   1.319  1.00  0.00     0.075 C 
HETATM   19  C   UNL     1      40.709 -14.710  -0.031  1.00  0.00     0.051 C 
HETATM   20  C   UNL     1      41.242 -15.760  -0.945  1.00  0.00     0.071 C 
HETATM   21  N   UNL     1      40.433 -13.410  -0.466  1.00  0.00    -0.220 N 
HETATM   22  N   UNL     1      39.753 -12.707   0.482  1.00  0.00    -0.177 NA
HETATM   23  C   UNL     1      39.748 -13.502   1.547  1.00  0.00     0.158 C 
BRANCH  21  24
HETATM   24  C   UNL     1      40.782 -12.785  -1.714  1.00  0.00     0.150 A 
HETATM   25  N   UNL     1      39.835 -12.655  -2.682  1.00  0.00    -0.241 NA
HETATM   26  C   UNL     1      40.211 -12.090  -3.851  1.00  0.00     0.119 A 
HETATM   27  C   UNL     1      41.492 -11.636  -4.113  1.00  0.00     0.019 A 
HETATM   28  C   UNL     1      42.450 -11.771  -3.118  1.00  0.00     0.005 A 
HETATM   29  C   UNL     1      42.098 -12.356  -1.903  1.00  0.00     0.052 A 
ENDBRANCH  21  24
ENDBRANCH   1  18
TORSDOF 7
ENDMDL
