MODEL 1
REMARK VINA RESULT:      -8.4      0.000      0.000
REMARK  5 active torsions:
REMARK  status: ('A' for Active; 'I' for Inactive)
REMARK    1  A    between atoms: C_2  and  C_3 
REMARK    2  A    between atoms: C_7  and  N_8 
REMARK    3  A    between atoms: N_8  and  C_9 
REMARK    4  A    between atoms: C_11  and  N_12 
REMARK    5  A    between atoms: C_14  and  N_15 
ROOT
HETATM    1  C   UNL     1      43.146 -15.614   5.546  1.00  0.00     0.111 A 
HETATM    2  N   UNL     1      42.923 -16.675   6.337  1.00  0.00    -0.206 NA
HETATM    3  C   UNL     1      43.417 -16.648   7.577  1.00  0.00     0.202 A 
HETATM    4  N   UNL     1      44.138 -15.656   8.091  1.00  0.00    -0.199 NA
HETATM    5  C   UNL     1      44.370 -14.605   7.273  1.00  0.00     0.156 A 
HETATM    6  C   UNL     1      43.906 -14.548   5.975  1.00  0.00     0.096 A 
ENDROOT
BRANCH   1   7
HETATM    7  N   UNL     1      42.664 -15.602   4.235  1.00  0.00    -0.265 NA
HETATM    8  H   UNL     1      42.336 -14.688   3.948  1.00  0.00     0.130 HD
BRANCH   7   9
HETATM    9  C   UNL     1      41.786 -16.702   3.810  1.00  0.00     0.133 C 
HETATM   10  C   UNL     1      42.556 -17.803   3.128  1.00  0.00     0.142 A 
HETATM   11  N   UNL     1      42.572 -17.938   1.770  1.00  0.00    -0.253 N 
HETATM   12  N   UNL     1      43.301 -18.756   3.653  1.00  0.00    -0.215 NA
HETATM   13  N   UNL     1      43.316 -18.982   1.379  1.00  0.00    -0.155 NA
HETATM   14  C   UNL     1      41.810 -17.162   0.819  1.00  0.00     0.153 C 
HETATM   15  C   UNL     1      43.750 -19.452   2.557  1.00  0.00     0.151 A 
HETATM   16  C   UNL     1      41.224 -15.900   1.447  1.00  0.00     0.024 C 
HETATM   17  C   UNL     1      40.679 -16.188   2.851  1.00  0.00     0.029 C 
BRANCH  15  18
HETATM   18  C   UNL     1      44.633 -20.652   2.667  1.00  0.00     0.051 C 
HETATM   19  C   UNL     1      44.094 -21.813   1.830  1.00  0.00     0.018 C 
HETATM   20  C   UNL     1      44.816 -21.079   4.123  1.00  0.00     0.018 C 
ENDBRANCH  15  18
ENDBRANCH   7   9
ENDBRANCH   1   7
BRANCH   3  21
HETATM   21  N   UNL     1      43.190 -17.750   8.375  1.00  0.00    -0.271 NA
HETATM   22  H   UNL     1      42.467 -18.321   7.959  1.00  0.00     0.127 HD
HETATM   23  H   UNL     1      44.069 -18.206   8.581  1.00  0.00     0.127 HD
ENDBRANCH   3  21
BRANCH   5  24
HETATM   24  N   UNL     1      45.113 -13.504   7.789  1.00  0.00    -0.227 N 
HETATM   25  N   UNL     1      44.767 -12.867   8.944  1.00  0.00    -0.179 NA
HETATM   26  C   UNL     1      45.700 -11.924   9.094  1.00  0.00     0.141 A 
HETATM   27  C   UNL     1      46.651 -11.934   8.062  1.00  0.00     0.040 A 
HETATM   28  C   UNL     1      46.253 -12.957   7.237  1.00  0.00     0.122 A 
ENDBRANCH   5  24
TORSDOF 5
ENDMDL
MODEL 2
REMARK VINA RESULT:      -8.0      2.991      5.696
REMARK  5 active torsions:
REMARK  status: ('A' for Active; 'I' for Inactive)
REMARK    1  A    between atoms: C_2  and  C_3 
REMARK    2  A    between atoms: C_7  and  N_8 
REMARK    3  A    between atoms: N_8  and  C_9 
REMARK    4  A    between atoms: C_11  and  N_12 
REMARK    5  A    between atoms: C_14  and  N_15 
ROOT
HETATM    1  C   UNL     1      41.022 -15.904   4.790  1.00  0.00     0.111 A 
HETATM    2  N   UNL     1      40.684 -15.164   5.857  1.00  0.00    -0.206 NA
HETATM    3  C   UNL     1      39.943 -14.072   5.657  1.00  0.00     0.202 A 
HETATM    4  N   UNL     1      39.526 -13.640   4.471  1.00  0.00    -0.199 NA
HETATM    5  C   UNL     1      39.892 -14.385   3.404  1.00  0.00     0.156 A 
HETATM    6  C   UNL     1      40.663 -15.525   3.515  1.00  0.00     0.096 A 
ENDROOT
BRANCH   1   7
HETATM    7  N   UNL     1      41.810 -17.046   4.946  1.00  0.00    -0.265 NA
HETATM    8  H   UNL     1      41.668 -17.499   5.841  1.00  0.00     0.130 HD
BRANCH   7   9
HETATM    9  C   UNL     1      43.222 -16.972   4.542  1.00  0.00     0.133 C 
HETATM   10  C   UNL     1      43.823 -18.340   4.350  1.00  0.00     0.142 A 
HETATM   11  N   UNL     1      44.627 -18.914   5.293  1.00  0.00    -0.253 N 
HETATM   12  N   UNL     1      43.699 -19.178   3.338  1.00  0.00    -0.215 NA
HETATM   13  N   UNL     1      45.051 -20.129   4.917  1.00  0.00    -0.155 NA
HETATM   14  C   UNL     1      45.098 -18.298   6.511  1.00  0.00     0.153 C 
HETATM   15  C   UNL     1      44.458 -20.257   3.722  1.00  0.00     0.151 A 
HETATM   16  C   UNL     1      44.322 -17.029   6.850  1.00  0.00     0.024 C 
HETATM   17  C   UNL     1      44.059 -16.193   5.592  1.00  0.00     0.029 C 
BRANCH  15  18
HETATM   18  C   UNL     1      44.629 -21.470   2.866  1.00  0.00     0.051 C 
HETATM   19  C   UNL     1      43.553 -21.536   1.782  1.00  0.00     0.018 C 
HETATM   20  C   UNL     1      44.627 -22.749   3.704  1.00  0.00     0.018 C 
ENDBRANCH  15  18
ENDBRANCH   7   9
ENDBRANCH   1   7
BRANCH   3  21
HETATM   21  N   UNL     1      39.615 -13.316   6.762  1.00  0.00    -0.271 NA
HETATM   22  H   UNL     1      39.273 -13.924   7.494  1.00  0.00     0.127 HD
HETATM   23  H   UNL     1      40.387 -12.707   6.999  1.00  0.00     0.127 HD
ENDBRANCH   3  21
BRANCH   5  24
HETATM   24  N   UNL     1      39.443 -13.978   2.115  1.00  0.00    -0.227 N 
HETATM   25  N   UNL     1      40.066 -12.999   1.400  1.00  0.00    -0.179 NA
HETATM   26  C   UNL     1      39.371 -12.926   0.263  1.00  0.00     0.141 A 
HETATM   27  C   UNL     1      38.309 -13.842   0.217  1.00  0.00     0.040 A 
HETATM   28  C   UNL     1      38.376 -14.506   1.417  1.00  0.00     0.122 A 
ENDBRANCH   5  24
TORSDOF 5
ENDMDL
MODEL 3
REMARK VINA RESULT:      -8.0      2.883      5.636
REMARK  5 active torsions:
REMARK  status: ('A' for Active; 'I' for Inactive)
REMARK    1  A    between atoms: C_2  and  C_3 
REMARK    2  A    between atoms: C_7  and  N_8 
REMARK    3  A    between atoms: N_8  and  C_9 
REMARK    4  A    between atoms: C_11  and  N_12 
REMARK    5  A    between atoms: C_14  and  N_15 
ROOT
HETATM    1  C   UNL     1      41.080 -16.167   4.357  1.00  0.00     0.111 A 
HETATM    2  N   UNL     1      41.055 -16.875   3.217  1.00  0.00    -0.206 NA
HETATM    3  C   UNL     1      40.485 -16.321   2.145  1.00  0.00     0.202 A 
HETATM    4  N   UNL     1      39.913 -15.122   2.119  1.00  0.00    -0.199 NA
HETATM    5  C   UNL     1      39.928 -14.430   3.280  1.00  0.00     0.156 A 
HETATM    6  C   UNL     1      40.489 -14.925   4.440  1.00  0.00     0.096 A 
ENDROOT
BRANCH   1   7
HETATM    7  N   UNL     1      41.651 -16.710   5.510  1.00  0.00    -0.265 NA
HETATM    8  H   UNL     1      41.199 -16.389   6.358  1.00  0.00     0.130 HD
BRANCH   7   9
HETATM    9  C   UNL     1      43.118 -16.746   5.604  1.00  0.00     0.133 C 
HETATM   10  C   UNL     1      43.667 -18.113   5.290  1.00  0.00     0.142 A 
HETATM   11  N   UNL     1      44.068 -18.973   6.272  1.00  0.00    -0.253 N 
HETATM   12  N   UNL     1      43.844 -18.699   4.122  1.00  0.00    -0.215 NA
HETATM   13  N   UNL     1      44.523 -20.129   5.770  1.00  0.00    -0.155 NA
HETATM   14  C   UNL     1      44.133 -18.691   7.688  1.00  0.00     0.153 C 
HETATM   15  C   UNL     1      44.364 -19.927   4.455  1.00  0.00     0.151 A 
HETATM   16  C   UNL     1      43.364 -17.426   8.057  1.00  0.00     0.024 C 
HETATM   17  C   UNL     1      43.593 -16.321   7.020  1.00  0.00     0.029 C 
BRANCH  15  18
HETATM   18  C   UNL     1      44.743 -20.948   3.433  1.00  0.00     0.051 C 
HETATM   19  C   UNL     1      43.903 -20.798   2.164  1.00  0.00     0.018 C 
HETATM   20  C   UNL     1      44.625 -22.366   3.991  1.00  0.00     0.018 C 
ENDBRANCH  15  18
ENDBRANCH   7   9
ENDBRANCH   1   7
BRANCH   3  21
HETATM   21  N   UNL     1      40.456 -17.066   0.985  1.00  0.00    -0.271 NA
HETATM   22  H   UNL     1      40.335 -18.043   1.218  1.00  0.00     0.127 HD
HETATM   23  H   UNL     1      39.789 -16.665   0.340  1.00  0.00     0.127 HD
ENDBRANCH   3  21
BRANCH   5  24
HETATM   24  N   UNL     1      39.354 -13.127   3.294  1.00  0.00    -0.227 N 
HETATM   25  N   UNL     1      38.714 -12.600   2.212  1.00  0.00    -0.179 NA
HETATM   26  C   UNL     1      38.310 -11.395   2.621  1.00  0.00     0.141 A 
HETATM   27  C   UNL     1      38.669 -11.125   3.950  1.00  0.00     0.040 A 
HETATM   28  C   UNL     1      39.338 -12.251   4.361  1.00  0.00     0.122 A 
ENDBRANCH   5  24
TORSDOF 5
ENDMDL
MODEL 4
REMARK VINA RESULT:      -7.9      2.949      6.815
REMARK  5 active torsions:
REMARK  status: ('A' for Active; 'I' for Inactive)
REMARK    1  A    between atoms: C_2  and  C_3 
REMARK    2  A    between atoms: C_7  and  N_8 
REMARK    3  A    between atoms: N_8  and  C_9 
REMARK    4  A    between atoms: C_11  and  N_12 
REMARK    5  A    between atoms: C_14  and  N_15 
ROOT
HETATM    1  C   UNL     1      43.239 -16.621   1.779  1.00  0.00     0.111 A 
HETATM    2  N   UNL     1      43.556 -15.642   2.639  1.00  0.00    -0.206 NA
HETATM    3  C   UNL     1      42.989 -14.446   2.467  1.00  0.00     0.202 A 
HETATM    4  N   UNL     1      42.143 -14.136   1.490  1.00  0.00    -0.199 NA
HETATM    5  C   UNL     1      41.851 -15.128   0.619  1.00  0.00     0.156 A 
HETATM    6  C   UNL     1      42.395 -16.393   0.714  1.00  0.00     0.096 A 
ENDROOT
BRANCH   1   7
HETATM    7  N   UNL     1      43.819 -17.886   1.907  1.00  0.00    -0.265 NA
HETATM    8  H   UNL     1      44.253 -18.204   1.049  1.00  0.00     0.130 HD
BRANCH   7   9
HETATM    9  C   UNL     1      43.053 -18.930   2.602  1.00  0.00     0.133 C 
HETATM   10  C   UNL     1      43.343 -18.949   4.080  1.00  0.00     0.142 A 
HETATM   11  N   UNL     1      44.180 -19.870   4.640  1.00  0.00    -0.253 N 
HETATM   12  N   UNL     1      42.898 -18.153   5.033  1.00  0.00    -0.215 NA
HETATM   13  N   UNL     1      44.293 -19.705   5.965  1.00  0.00    -0.155 NA
HETATM   14  C   UNL     1      44.805 -20.986   3.967  1.00  0.00     0.153 C 
HETATM   15  C   UNL     1      43.501 -18.642   6.166  1.00  0.00     0.151 A 
HETATM   16  C   UNL     1      44.733 -20.853   2.448  1.00  0.00     0.024 C 
HETATM   17  C   UNL     1      43.361 -20.331   2.007  1.00  0.00     0.029 C 
BRANCH  15  18
HETATM   18  C   UNL     1      43.276 -18.053   7.520  1.00  0.00     0.051 C 
HETATM   19  C   UNL     1      43.319 -16.525   7.471  1.00  0.00     0.018 C 
HETATM   20  C   UNL     1      44.287 -18.586   8.536  1.00  0.00     0.018 C 
ENDBRANCH  15  18
ENDBRANCH   7   9
ENDBRANCH   1   7
BRANCH   3  21
HETATM   21  N   UNL     1      43.334 -13.446   3.352  1.00  0.00    -0.271 NA
HETATM   22  H   UNL     1      42.508 -12.919   3.600  1.00  0.00     0.127 HD
HETATM   23  H   UNL     1      43.871 -13.838   4.115  1.00  0.00     0.127 HD
ENDBRANCH   3  21
BRANCH   5  24
HETATM   24  N   UNL     1      40.925 -14.852  -0.428  1.00  0.00    -0.227 N 
HETATM   25  N   UNL     1      39.830 -14.062  -0.245  1.00  0.00    -0.179 NA
HETATM   26  C   UNL     1      39.238 -14.034  -1.441  1.00  0.00     0.141 A 
HETATM   27  C   UNL     1      39.928 -14.785  -2.405  1.00  0.00     0.040 A 
HETATM   28  C   UNL     1      41.008 -15.300  -1.731  1.00  0.00     0.122 A 
ENDBRANCH   5  24
TORSDOF 5
ENDMDL
MODEL 5
REMARK VINA RESULT:      -7.9      3.008      6.645
REMARK  5 active torsions:
REMARK  status: ('A' for Active; 'I' for Inactive)
REMARK    1  A    between atoms: C_2  and  C_3 
REMARK    2  A    between atoms: C_7  and  N_8 
REMARK    3  A    between atoms: N_8  and  C_9 
REMARK    4  A    between atoms: C_11  and  N_12 
REMARK    5  A    between atoms: C_14  and  N_15 
ROOT
HETATM    1  C   UNL     1      43.005 -16.642   3.395  1.00  0.00     0.111 A 
HETATM    2  N   UNL     1      43.382 -16.392   4.658  1.00  0.00    -0.206 NA
HETATM    3  C   UNL     1      43.952 -17.380   5.351  1.00  0.00     0.202 A 
HETATM    4  N   UNL     1      44.158 -18.612   4.896  1.00  0.00    -0.199 NA
HETATM    5  C   UNL     1      43.753 -18.853   3.629  1.00  0.00     0.156 A 
HETATM    6  C   UNL     1      43.149 -17.894   2.840  1.00  0.00     0.096 A 
ENDROOT
BRANCH   1   7
HETATM    7  N   UNL     1      42.390 -15.645   2.634  1.00  0.00    -0.265 NA
HETATM    8  H   UNL     1      42.496 -14.723   3.039  1.00  0.00     0.130 HD
BRANCH   7   9
HETATM    9  C   UNL     1      41.040 -15.907   2.114  1.00  0.00     0.133 C 
HETATM   10  C   UNL     1      40.873 -15.400   0.705  1.00  0.00     0.142 A 
HETATM   11  N   UNL     1      40.225 -14.229   0.431  1.00  0.00    -0.253 N 
HETATM   12  N   UNL     1      41.287 -15.926  -0.432  1.00  0.00    -0.215 NA
HETATM   13  N   UNL     1      40.192 -13.971  -0.884  1.00  0.00    -0.155 NA
HETATM   14  C   UNL     1      39.534 -13.387   1.379  1.00  0.00     0.153 C 
HETATM   15  C   UNL     1      40.856 -15.026  -1.377  1.00  0.00     0.151 A 
HETATM   16  C   UNL     1      39.890 -13.735   2.822  1.00  0.00     0.024 C 
HETATM   17  C   UNL     1      39.961 -15.254   3.019  1.00  0.00     0.029 C 
BRANCH  15  18
HETATM   18  C   UNL     1      41.088 -15.217  -2.840  1.00  0.00     0.051 C 
HETATM   19  C   UNL     1      41.425 -13.891  -3.523  1.00  0.00     0.018 C 
HETATM   20  C   UNL     1      39.887 -15.878  -3.515  1.00  0.00     0.018 C 
ENDBRANCH  15  18
ENDBRANCH   7   9
ENDBRANCH   1   7
BRANCH   3  21
HETATM   21  N   UNL     1      44.322 -17.112   6.652  1.00  0.00    -0.271 NA
HETATM   22  H   UNL     1      45.073 -17.732   6.921  1.00  0.00     0.127 HD
HETATM   23  H   UNL     1      44.489 -16.120   6.760  1.00  0.00     0.127 HD
ENDBRANCH   3  21
BRANCH   5  24
HETATM   24  N   UNL     1      43.981 -20.150   3.086  1.00  0.00    -0.227 N 
HETATM   25  N   UNL     1      44.655 -21.119   3.767  1.00  0.00    -0.179 NA
HETATM   26  C   UNL     1      44.642 -22.171   2.947  1.00  0.00     0.141 A 
HETATM   27  C   UNL     1      43.967 -21.912   1.744  1.00  0.00     0.040 A 
HETATM   28  C   UNL     1      43.552 -20.608   1.857  1.00  0.00     0.122 A 
ENDBRANCH   5  24
TORSDOF 5
ENDMDL
MODEL 6
REMARK VINA RESULT:      -7.9      3.543      7.024
REMARK  5 active torsions:
REMARK  status: ('A' for Active; 'I' for Inactive)
REMARK    1  A    between atoms: C_2  and  C_3 
REMARK    2  A    between atoms: C_7  and  N_8 
REMARK    3  A    between atoms: N_8  and  C_9 
REMARK    4  A    between atoms: C_11  and  N_12 
REMARK    5  A    between atoms: C_14  and  N_15 
ROOT
HETATM    1  C   UNL     1      39.677 -15.385   1.707  1.00  0.00     0.111 A 
HETATM    2  N   UNL     1      38.453 -14.839   1.763  1.00  0.00    -0.206 NA
HETATM    3  C   UNL     1      38.080 -14.028   0.771  1.00  0.00     0.202 A 
HETATM    4  N   UNL     1      38.839 -13.693  -0.268  1.00  0.00    -0.199 NA
HETATM    5  C   UNL     1      40.077 -14.235  -0.299  1.00  0.00     0.156 A 
HETATM    6  C   UNL     1      40.550 -15.080   0.686  1.00  0.00     0.096 A 
ENDROOT
BRANCH   1   7
HETATM    7  N   UNL     1      40.120 -16.228   2.729  1.00  0.00    -0.265 NA
HETATM    8  H   UNL     1      39.385 -16.467   3.383  1.00  0.00     0.130 HD
BRANCH   7   9
HETATM    9  C   UNL     1      41.404 -15.917   3.374  1.00  0.00     0.133 C 
HETATM   10  C   UNL     1      42.227 -17.156   3.612  1.00  0.00     0.142 A 
HETATM   11  N   UNL     1      42.306 -17.746   4.840  1.00  0.00    -0.253 N 
HETATM   12  N   UNL     1      42.957 -17.855   2.763  1.00  0.00    -0.215 NA
HETATM   13  N   UNL     1      43.092 -18.831   4.826  1.00  0.00    -0.155 NA
HETATM   14  C   UNL     1      41.737 -17.248   6.071  1.00  0.00     0.153 C 
HETATM   15  C   UNL     1      43.465 -18.869   3.539  1.00  0.00     0.151 A 
HETATM   16  C   UNL     1      40.707 -16.149   5.824  1.00  0.00     0.024 C 
HETATM   17  C   UNL     1      41.181 -15.189   4.727  1.00  0.00     0.029 C 
BRANCH  15  18
HETATM   18  C   UNL     1      44.379 -19.919   2.998  1.00  0.00     0.051 C 
HETATM   19  C   UNL     1      43.672 -20.780   1.949  1.00  0.00     0.018 C 
HETATM   20  C   UNL     1      44.948 -20.794   4.115  1.00  0.00     0.018 C 
ENDBRANCH  15  18
ENDBRANCH   7   9
ENDBRANCH   1   7
BRANCH   3  21
HETATM   21  N   UNL     1      36.824 -13.464   0.850  1.00  0.00    -0.271 NA
HETATM   22  H   UNL     1      36.190 -14.120   1.287  1.00  0.00     0.127 HD
HETATM   23  H   UNL     1      36.889 -12.546   1.267  1.00  0.00     0.127 HD
ENDBRANCH   3  21
BRANCH   5  24
HETATM   24  N   UNL     1      40.916 -13.931  -1.409  1.00  0.00    -0.227 N 
HETATM   25  N   UNL     1      40.676 -14.414  -2.660  1.00  0.00    -0.179 NA
HETATM   26  C   UNL     1      41.653 -13.899  -3.408  1.00  0.00     0.141 A 
HETATM   27  C   UNL     1      42.526 -13.084  -2.672  1.00  0.00     0.040 A 
HETATM   28  C   UNL     1      42.032 -13.120  -1.391  1.00  0.00     0.122 A 
ENDBRANCH   5  24
TORSDOF 5
ENDMDL
MODEL 7
REMARK VINA RESULT:      -7.8      3.201      7.192
REMARK  5 active torsions:
REMARK  status: ('A' for Active; 'I' for Inactive)
REMARK    1  A    between atoms: C_2  and  C_3 
REMARK    2  A    between atoms: C_7  and  N_8 
REMARK    3  A    between atoms: N_8  and  C_9 
REMARK    4  A    between atoms: C_11  and  N_12 
REMARK    5  A    between atoms: C_14  and  N_15 
ROOT
HETATM    1  C   UNL     1      41.750 -15.113   1.665  1.00  0.00     0.111 A 
HETATM    2  N   UNL     1      42.196 -13.861   1.848  1.00  0.00    -0.206 NA
HETATM    3  C   UNL     1      41.998 -12.974   0.870  1.00  0.00     0.202 A 
HETATM    4  N   UNL     1      41.409 -13.238  -0.292  1.00  0.00    -0.199 NA
HETATM    5  C   UNL     1      40.985 -14.509  -0.469  1.00  0.00     0.156 A 
HETATM    6  C   UNL     1      41.152 -15.494   0.484  1.00  0.00     0.096 A 
ENDROOT
BRANCH   1   7
HETATM    7  N   UNL     1      41.947 -16.082   2.652  1.00  0.00    -0.265 NA
HETATM    8  H   UNL     1      41.222 -16.073   3.358  1.00  0.00     0.130 HD
BRANCH   7   9
HETATM    9  C   UNL     1      43.301 -16.242   3.202  1.00  0.00     0.133 C 
HETATM   10  C   UNL     1      43.647 -17.690   3.430  1.00  0.00     0.142 A 
HETATM   11  N   UNL     1      43.600 -18.257   4.672  1.00  0.00    -0.253 N 
HETATM   12  N   UNL     1      44.017 -18.612   2.563  1.00  0.00    -0.215 NA
HETATM   13  N   UNL     1      43.947 -19.551   4.646  1.00  0.00    -0.155 NA
HETATM   14  C   UNL     1      43.336 -17.575   5.918  1.00  0.00     0.153 C 
HETATM   15  C   UNL     1      44.187 -19.733   3.339  1.00  0.00     0.151 A 
HETATM   16  C   UNL     1      42.748 -16.184   5.699  1.00  0.00     0.024 C 
HETATM   17  C   UNL     1      43.451 -15.468   4.540  1.00  0.00     0.029 C 
BRANCH  15  18
HETATM   18  C   UNL     1      44.627 -21.046   2.779  1.00  0.00     0.051 C 
HETATM   19  C   UNL     1      43.720 -21.487   1.630  1.00  0.00     0.018 C 
HETATM   20  C   UNL     1      44.685 -22.124   3.861  1.00  0.00     0.018 C 
ENDBRANCH  15  18
ENDBRANCH   7   9
ENDBRANCH   1   7
BRANCH   3  21
HETATM   21  N   UNL     1      42.473 -11.695   1.067  1.00  0.00    -0.271 NA
HETATM   22  H   UNL     1      42.885 -11.355   0.209  1.00  0.00     0.127 HD
HETATM   23  H   UNL     1      41.749 -11.124   1.483  1.00  0.00     0.127 HD
ENDBRANCH   3  21
BRANCH   5  24
HETATM   24  N   UNL     1      40.320 -14.833  -1.686  1.00  0.00    -0.227 N 
HETATM   25  N   UNL     1      39.144 -14.250  -2.054  1.00  0.00    -0.179 NA
HETATM   26  C   UNL     1      38.862 -14.793  -3.240  1.00  0.00     0.141 A 
HETATM   27  C   UNL     1      39.831 -15.717  -3.658  1.00  0.00     0.040 A 
HETATM   28  C   UNL     1      40.758 -15.725  -2.644  1.00  0.00     0.122 A 
ENDBRANCH   5  24
TORSDOF 5
ENDMDL
MODEL 8
REMARK VINA RESULT:      -7.7      4.029      7.028
REMARK  5 active torsions:
REMARK  status: ('A' for Active; 'I' for Inactive)
REMARK    1  A    between atoms: C_2  and  C_3 
REMARK    2  A    between atoms: C_7  and  N_8 
REMARK    3  A    between atoms: N_8  and  C_9 
REMARK    4  A    between atoms: C_11  and  N_12 
REMARK    5  A    between atoms: C_14  and  N_15 
ROOT
HETATM    1  C   UNL     1      41.327 -14.940  -0.279  1.00  0.00     0.111 A 
HETATM    2  N   UNL     1      40.966 -15.548  -1.420  1.00  0.00    -0.206 NA
HETATM    3  C   UNL     1      41.145 -14.889  -2.567  1.00  0.00     0.202 A 
HETATM    4  N   UNL     1      41.635 -13.658  -2.672  1.00  0.00    -0.199 NA
HETATM    5  C   UNL     1      41.974 -13.052  -1.512  1.00  0.00     0.156 A 
HETATM    6  C   UNL     1      41.818 -13.653  -0.279  1.00  0.00     0.096 A 
ENDROOT
BRANCH   1   7
HETATM    7  N   UNL     1      41.144 -15.581   0.948  1.00  0.00    -0.265 NA
HETATM    8  H   UNL     1      40.205 -15.471   1.311  1.00  0.00     0.130 HD
BRANCH   7   9
HETATM    9  C   UNL     1      42.191 -15.430   1.970  1.00  0.00     0.133 C 
HETATM   10  C   UNL     1      42.665 -16.761   2.490  1.00  0.00     0.142 A 
HETATM   11  N   UNL     1      42.244 -17.258   3.691  1.00  0.00    -0.253 N 
HETATM   12  N   UNL     1      43.490 -17.632   1.942  1.00  0.00    -0.215 NA
HETATM   13  N   UNL     1      42.790 -18.453   3.957  1.00  0.00    -0.155 NA
HETATM   14  C   UNL     1      41.411 -16.581   4.657  1.00  0.00     0.153 C 
HETATM   15  C   UNL     1      43.539 -18.651   2.863  1.00  0.00     0.151 A 
HETATM   16  C   UNL     1      40.724 -15.355   4.063  1.00  0.00     0.024 C 
HETATM   17  C   UNL     1      41.683 -14.571   3.160  1.00  0.00     0.029 C 
BRANCH  15  18
HETATM   18  C   UNL     1      44.377 -19.873   2.673  1.00  0.00     0.051 C 
HETATM   19  C   UNL     1      43.635 -20.929   1.854  1.00  0.00     0.018 C 
HETATM   20  C   UNL     1      44.830 -20.453   4.013  1.00  0.00     0.018 C 
ENDBRANCH  15  18
ENDBRANCH   7   9
ENDBRANCH   1   7
BRANCH   3  21
HETATM   21  N   UNL     1      40.757 -15.522  -3.729  1.00  0.00    -0.271 NA
HETATM   22  H   UNL     1      41.102 -15.001  -4.525  1.00  0.00     0.127 HD
HETATM   23  H   UNL     1      41.006 -16.501  -3.683  1.00  0.00     0.127 HD
ENDBRANCH   3  21
BRANCH   5  24
HETATM   24  N   UNL     1      42.532 -11.743  -1.576  1.00  0.00    -0.227 N 
HETATM   25  N   UNL     1      43.209 -11.186  -0.532  1.00  0.00    -0.179 NA
HETATM   26  C   UNL     1      43.583  -9.987  -0.982  1.00  0.00     0.141 A 
HETATM   27  C   UNL     1      43.168  -9.749  -2.301  1.00  0.00     0.040 A 
HETATM   28  C   UNL     1      42.496 -10.891  -2.661  1.00  0.00     0.122 A 
ENDBRANCH   5  24
TORSDOF 5
ENDMDL
MODEL 9
REMARK VINA RESULT:      -7.6      2.130      7.455
REMARK  5 active torsions:
REMARK  status: ('A' for Active; 'I' for Inactive)
REMARK    1  A    between atoms: C_2  and  C_3 
REMARK    2  A    between atoms: C_7  and  N_8 
REMARK    3  A    between atoms: N_8  and  C_9 
REMARK    4  A    between atoms: C_11  and  N_12 
REMARK    5  A    between atoms: C_14  and  N_15 
ROOT
HETATM    1  C   UNL     1      43.001 -16.415   6.705  1.00  0.00     0.111 A 
HETATM    2  N   UNL     1      43.343 -16.942   7.891  1.00  0.00    -0.206 NA
HETATM    3  C   UNL     1      43.911 -18.149   7.902  1.00  0.00     0.202 A 
HETATM    4  N   UNL     1      44.148 -18.892   6.825  1.00  0.00    -0.199 NA
HETATM    5  C   UNL     1      43.779 -18.356   5.641  1.00  0.00     0.156 A 
HETATM    6  C   UNL     1      43.179 -17.117   5.533  1.00  0.00     0.096 A 
ENDROOT
BRANCH   1   7
HETATM    7  N   UNL     1      42.388 -15.162   6.642  1.00  0.00    -0.265 NA
HETATM    8  H   UNL     1      41.450 -15.204   6.263  1.00  0.00     0.130 HD
BRANCH   7   9
HETATM    9  C   UNL     1      43.178 -14.031   6.131  1.00  0.00     0.133 C 
HETATM   10  C   UNL     1      43.314 -12.934   7.154  1.00  0.00     0.142 A 
HETATM   11  N   UNL     1      42.556 -11.800   7.101  1.00  0.00    -0.253 N 
HETATM   12  N   UNL     1      44.106 -12.860   8.206  1.00  0.00    -0.215 NA
HETATM   13  N   UNL     1      42.841 -10.959   8.105  1.00  0.00    -0.155 NA
HETATM   14  C   UNL     1      41.631 -11.432   6.054  1.00  0.00     0.153 C 
HETATM   15  C   UNL     1      43.787 -11.645   8.762  1.00  0.00     0.151 A 
HETATM   16  C   UNL     1      41.290 -12.613   5.148  1.00  0.00     0.024 C 
HETATM   17  C   UNL     1      42.539 -13.447   4.842  1.00  0.00     0.029 C 
BRANCH  15  18
HETATM   18  C   UNL     1      44.456 -11.117   9.989  1.00  0.00     0.051 C 
HETATM   19  C   UNL     1      45.961 -10.961   9.774  1.00  0.00     0.018 C 
HETATM   20  C   UNL     1      44.176 -12.004  11.203  1.00  0.00     0.018 C 
ENDBRANCH  15  18
ENDBRANCH   7   9
ENDBRANCH   1   7
BRANCH   3  21
HETATM   21  N   UNL     1      44.245 -18.682   9.129  1.00  0.00    -0.271 NA
HETATM   22  H   UNL     1      44.608 -19.617   9.001  1.00  0.00     0.127 HD
HETATM   23  H   UNL     1      44.831 -18.031   9.634  1.00  0.00     0.127 HD
ENDBRANCH   3  21
BRANCH   5  24
HETATM   24  N   UNL     1      44.041 -19.101   4.455  1.00  0.00    -0.227 N 
HETATM   25  N   UNL     1      44.876 -20.178   4.439  1.00  0.00    -0.179 NA
HETATM   26  C   UNL     1      44.843 -20.604   3.175  1.00  0.00     0.141 A 
HETATM   27  C   UNL     1      44.000 -19.829   2.363  1.00  0.00     0.040 A 
HETATM   28  C   UNL     1      43.497 -18.871   3.208  1.00  0.00     0.122 A 
ENDBRANCH   5  24
TORSDOF 5
ENDMDL
MODEL 10
REMARK VINA RESULT:      -7.4      4.214      9.929
REMARK  5 active torsions:
REMARK  status: ('A' for Active; 'I' for Inactive)
REMARK    1  A    between atoms: C_2  and  C_3 
REMARK    2  A    between atoms: C_7  and  N_8 
REMARK    3  A    between atoms: N_8  and  C_9 
REMARK    4  A    between atoms: C_11  and  N_12 
REMARK    5  A    between atoms: C_14  and  N_15 
ROOT
HETATM    1  C   UNL     1      44.997 -11.379   9.626  1.00  0.00     0.111 A 
HETATM    2  N   UNL     1      46.225 -11.040   9.204  1.00  0.00    -0.206 NA
HETATM    3  C   UNL     1      46.750 -11.725   8.185  1.00  0.00     0.202 A 
HETATM    4  N   UNL     1      46.161 -12.740   7.563  1.00  0.00    -0.199 NA
HETATM    5  C   UNL     1      44.933 -13.082   8.014  1.00  0.00     0.156 A 
HETATM    6  C   UNL     1      44.314 -12.436   9.065  1.00  0.00     0.096 A 
ENDROOT
BRANCH   1   7
HETATM    7  N   UNL     1      44.411 -10.704  10.699  1.00  0.00    -0.265 NA
HETATM    8  H   UNL     1      45.015 -10.662  11.511  1.00  0.00     0.130 HD
BRANCH   7   9
HETATM    9  C   UNL     1      43.009 -11.007  11.024  1.00  0.00     0.133 C 
HETATM   10  C   UNL     1      42.088  -9.878  10.642  1.00  0.00     0.142 A 
HETATM   11  N   UNL     1      41.604  -8.997  11.566  1.00  0.00    -0.253 N 
HETATM   12  N   UNL     1      41.618  -9.542   9.456  1.00  0.00    -0.215 NA
HETATM   13  N   UNL     1      40.804  -8.077  11.010  1.00  0.00    -0.155 NA
HETATM   14  C   UNL     1      41.794  -9.061  12.997  1.00  0.00     0.153 C 
HETATM   15  C   UNL     1      40.843  -8.439   9.720  1.00  0.00     0.151 A 
HETATM   16  C   UNL     1      42.907 -10.030  13.386  1.00  0.00     0.024 C 
HETATM   17  C   UNL     1      42.844 -11.307  12.538  1.00  0.00     0.029 C 
BRANCH  15  18
HETATM   18  C   UNL     1      40.085  -7.711   8.659  1.00  0.00     0.051 C 
HETATM   19  C   UNL     1      38.817  -8.470   8.267  1.00  0.00     0.018 C 
HETATM   20  C   UNL     1      40.955  -7.449   7.430  1.00  0.00     0.018 C 
ENDBRANCH  15  18
ENDBRANCH   7   9
ENDBRANCH   1   7
BRANCH   3  21
HETATM   21  N   UNL     1      48.018 -11.373   7.771  1.00  0.00    -0.271 NA
HETATM   22  H   UNL     1      48.652 -11.418   8.558  1.00  0.00     0.127 HD
HETATM   23  H   UNL     1      48.269 -11.911   6.952  1.00  0.00     0.127 HD
ENDBRANCH   3  21
BRANCH   5  24
HETATM   24  N   UNL     1      44.248 -14.145   7.358  1.00  0.00    -0.227 N 
HETATM   25  N   UNL     1      44.198 -15.407   7.870  1.00  0.00    -0.179 NA
HETATM   26  C   UNL     1      43.464 -16.092   6.990  1.00  0.00     0.141 A 
HETATM   27  C   UNL     1      43.029 -15.302   5.916  1.00  0.00     0.040 A 
HETATM   28  C   UNL     1      43.544 -14.056   6.174  1.00  0.00     0.122 A 
ENDBRANCH   5  24
TORSDOF 5
ENDMDL
