MODEL 1
REMARK VINA RESULT:      -8.5      0.000      0.000
REMARK  8 active torsions:
REMARK  status: ('A' for Active; 'I' for Inactive)
REMARK    1  A    between atoms: N_4  and  C_5 
REMARK    2  A    between atoms: C_5  and  C_6 
REMARK    3  A    between atoms: C_6  and  C_7 
REMARK    4  A    between atoms: C_7  and  N_8 
REMARK       I    between atoms: N_8  and  C_9 
REMARK       I    between atoms: C_9  and  N_10 
REMARK    5  A    between atoms: N_10  and  N_11 
REMARK       I    between atoms: N_11  and  C_12 
REMARK    6  A    between atoms: C_12  and  C_13 
REMARK    7  A    between atoms: C_13  and  O_14 
REMARK    8  A    between atoms: O_14  and  C_15 
ROOT
HETATM    1  N   UNL     1      44.767 -13.059   8.437  1.00  0.00    -0.341 N 
HETATM    2  C   UNL     1      45.194 -13.624   7.273  1.00  0.00     0.334 C 
HETATM    3  N   UNL     1      44.456 -14.701   6.844  1.00  0.00    -0.249 N 
HETATM    4  O   UNL     1      46.141 -13.218   6.606  1.00  0.00    -0.246 OA
HETATM    5  H   UNL     1      43.844 -13.332   8.753  1.00  0.00     0.164 HD
HETATM    6  H   UNL     1      44.849 -15.163   6.028  1.00  0.00     0.192 HD
ENDROOT
BRANCH   1   7
HETATM    7  C   UNL     1      45.281 -11.797   8.933  1.00  0.00     0.130 C 
BRANCH   7   8
HETATM    8  C   UNL     1      45.061 -11.622  10.450  1.00  0.00     0.019 C 
HETATM    9  C   UNL     1      44.382 -12.848  11.075  1.00  0.00     0.013 C 
BRANCH   8  10
HETATM   10  C   UNL     1      44.196 -10.378  10.735  1.00  0.00     0.156 C 
BRANCH  10  11
HETATM   11  N   UNL     1      42.763 -10.600  10.865  1.00  0.00    -0.274 N 
HETATM   12  N   UNL     1      41.990 -10.722   9.771  1.00  0.00    -0.177 NA
HETATM   13  C   UNL     1      40.749 -10.853  10.249  1.00  0.00     0.053 A 
HETATM   14  C   UNL     1      39.599 -11.011   9.327  1.00  0.00     0.072 C 
HETATM   15  C   UNL     1      40.730 -10.804  11.658  1.00  0.00     0.055 A 
HETATM   16  C   UNL     1      42.045 -10.628  12.037  1.00  0.00     0.028 A 
HETATM   17  C   UNL     1      42.648 -10.487  13.384  1.00  0.00     0.070 C 
ENDBRANCH  10  11
ENDBRANCH   8  10
ENDBRANCH   7   8
ENDBRANCH   1   7
BRANCH   3  18
HETATM   18  N   UNL     1      43.718 -15.501   7.732  1.00  0.00    -0.264 N 
HETATM   19  C   UNL     1      43.157 -16.688   7.318  1.00  0.00     0.260 C 
HETATM   20  O   UNL     1      43.041 -17.616   8.118  1.00  0.00    -0.269 OA
HETATM   21  H   UNL     1      44.056 -15.512   8.691  1.00  0.00     0.190 HD
BRANCH  19  22
HETATM   22  C   UNL     1      42.625 -16.768   5.889  1.00  0.00     0.280 C 
BRANCH  22  23
HETATM   23  O   UNL     1      43.682 -16.686   4.929  1.00  0.00    -0.342 OA
BRANCH  23  24
HETATM   24  C   UNL     1      43.791 -17.847   4.211  1.00  0.00     0.069 A 
HETATM   25  C   UNL     1      43.397 -17.882   2.874  1.00  0.00     0.038 A 
HETATM   26  C   UNL     1      43.524 -19.066   2.147  1.00  0.00     0.022 A 
HETATM   27  C   UNL     1      44.067 -20.197   2.758  1.00  0.00     0.011 A 
HETATM   28 BR   UNL     1      44.234 -21.803   1.776  1.00  0.00    -0.051 Br
HETATM   29  C   UNL     1      44.494 -20.150   4.086  1.00  0.00     0.022 A 
HETATM   30  C   UNL     1      44.363 -18.966   4.814  1.00  0.00     0.038 A 
ENDBRANCH  23  24
ENDBRANCH  22  23
ENDBRANCH  19  22
ENDBRANCH   3  18
TORSDOF 8
ENDMDL
MODEL 2
REMARK VINA RESULT:      -8.3      2.079      3.571
REMARK  8 active torsions:
REMARK  status: ('A' for Active; 'I' for Inactive)
REMARK    1  A    between atoms: N_4  and  C_5 
REMARK    2  A    between atoms: C_5  and  C_6 
REMARK    3  A    between atoms: C_6  and  C_7 
REMARK    4  A    between atoms: C_7  and  N_8 
REMARK       I    between atoms: N_8  and  C_9 
REMARK       I    between atoms: C_9  and  N_10 
REMARK    5  A    between atoms: N_10  and  N_11 
REMARK       I    between atoms: N_11  and  C_12 
REMARK    6  A    between atoms: C_12  and  C_13 
REMARK    7  A    between atoms: C_13  and  O_14 
REMARK    8  A    between atoms: O_14  and  C_15 
ROOT
HETATM    1  N   UNL     1      40.653 -11.727   7.802  1.00  0.00    -0.341 N 
HETATM    2  C   UNL     1      40.111 -12.386   6.740  1.00  0.00     0.334 C 
HETATM    3  N   UNL     1      40.943 -13.296   6.133  1.00  0.00    -0.249 N 
HETATM    4  O   UNL     1      38.961 -12.236   6.339  1.00  0.00    -0.246 OA
HETATM    5  H   UNL     1      41.512 -12.114   8.176  1.00  0.00     0.164 HD
HETATM    6  H   UNL     1      40.550 -13.703   5.288  1.00  0.00     0.192 HD
ENDROOT
BRANCH   1   7
HETATM    7  C   UNL     1      39.870 -10.894   8.695  1.00  0.00     0.130 C 
BRANCH   7   8
HETATM    8  C   UNL     1      40.595 -10.607  10.026  1.00  0.00     0.019 C 
HETATM    9  C   UNL     1      39.701  -9.845  11.013  1.00  0.00     0.013 C 
BRANCH   8  10
HETATM   10  C   UNL     1      41.876  -9.784   9.782  1.00  0.00     0.156 C 
BRANCH  10  11
HETATM   11  N   UNL     1      43.135 -10.511   9.844  1.00  0.00    -0.274 N 
HETATM   12  N   UNL     1      43.565 -11.224   8.787  1.00  0.00    -0.177 NA
HETATM   13  C   UNL     1      44.698 -11.796   9.205  1.00  0.00     0.053 A 
HETATM   14  C   UNL     1      45.475 -12.678   8.302  1.00  0.00     0.072 C 
HETATM   15  C   UNL     1      44.988 -11.453  10.542  1.00  0.00     0.055 A 
HETATM   16  C   UNL     1      43.956 -10.627  10.941  1.00  0.00     0.028 A 
HETATM   17  C   UNL     1      43.701  -9.967  12.243  1.00  0.00     0.070 C 
ENDBRANCH  10  11
ENDBRANCH   8  10
ENDBRANCH   7   8
ENDBRANCH   1   7
BRANCH   3  18
HETATM   18  N   UNL     1      42.341 -13.182   6.192  1.00  0.00    -0.264 N 
HETATM   19  C   UNL     1      43.154 -14.050   5.497  1.00  0.00     0.260 C 
HETATM   20  O   UNL     1      44.239 -13.657   5.072  1.00  0.00    -0.269 OA
HETATM   21  H   UNL     1      42.699 -12.232   6.248  1.00  0.00     0.190 HD
BRANCH  19  22
HETATM   22  C   UNL     1      42.696 -15.501   5.358  1.00  0.00     0.280 C 
BRANCH  22  23
HETATM   23  O   UNL     1      43.712 -16.415   5.781  1.00  0.00    -0.342 OA
BRANCH  23  24
HETATM   24  C   UNL     1      43.783 -17.498   4.947  1.00  0.00     0.069 A 
HETATM   25  C   UNL     1      43.302 -17.407   3.641  1.00  0.00     0.038 A 
HETATM   26  C   UNL     1      43.390 -18.513   2.794  1.00  0.00     0.022 A 
HETATM   27  C   UNL     1      43.983 -19.689   3.253  1.00  0.00     0.011 A 
HETATM   28 BR   UNL     1      44.097 -21.189   2.108  1.00  0.00    -0.051 Br
HETATM   29  C   UNL     1      44.496 -19.767   4.548  1.00  0.00     0.022 A 
HETATM   30  C   UNL     1      44.404 -18.662   5.397  1.00  0.00     0.038 A 
ENDBRANCH  23  24
ENDBRANCH  22  23
ENDBRANCH  19  22
ENDBRANCH   3  18
TORSDOF 8
ENDMDL
MODEL 3
REMARK VINA RESULT:      -8.2      4.457     10.142
REMARK  8 active torsions:
REMARK  status: ('A' for Active; 'I' for Inactive)
REMARK    1  A    between atoms: N_4  and  C_5 
REMARK    2  A    between atoms: C_5  and  C_6 
REMARK    3  A    between atoms: C_6  and  C_7 
REMARK    4  A    between atoms: C_7  and  N_8 
REMARK       I    between atoms: N_8  and  C_9 
REMARK       I    between atoms: C_9  and  N_10 
REMARK    5  A    between atoms: N_10  and  N_11 
REMARK       I    between atoms: N_11  and  C_12 
REMARK    6  A    between atoms: C_12  and  C_13 
REMARK    7  A    between atoms: C_13  and  O_14 
REMARK    8  A    between atoms: O_14  and  C_15 
ROOT
HETATM    1  N   UNL     1      43.178 -13.867   6.233  1.00  0.00    -0.341 N 
HETATM    2  C   UNL     1      44.206 -13.539   7.065  1.00  0.00     0.334 C 
HETATM    3  N   UNL     1      43.873 -12.699   8.100  1.00  0.00    -0.249 N 
HETATM    4  O   UNL     1      45.353 -13.963   6.958  1.00  0.00    -0.246 OA
HETATM    5  H   UNL     1      42.247 -13.651   6.568  1.00  0.00     0.164 HD
HETATM    6  H   UNL     1      44.672 -12.393   8.648  1.00  0.00     0.192 HD
ENDROOT
BRANCH   1   7
HETATM    7  C   UNL     1      43.284 -14.901   5.221  1.00  0.00     0.130 C 
BRANCH   7   8
HETATM    8  C   UNL     1      42.022 -15.783   5.140  1.00  0.00     0.019 C 
HETATM    9  C   UNL     1      40.836 -15.157   5.886  1.00  0.00     0.013 C 
BRANCH   8  10
HETATM   10  C   UNL     1      42.296 -17.181   5.731  1.00  0.00     0.156 C 
BRANCH  10  11
HETATM   11  N   UNL     1      43.134 -18.068   4.938  1.00  0.00    -0.274 N 
HETATM   12  N   UNL     1      42.673 -18.597   3.790  1.00  0.00    -0.177 NA
HETATM   13  C   UNL     1      43.660 -19.391   3.365  1.00  0.00     0.053 A 
HETATM   14  C   UNL     1      43.517 -20.163   2.108  1.00  0.00     0.072 C 
HETATM   15  C   UNL     1      44.756 -19.374   4.252  1.00  0.00     0.055 A 
HETATM   16  C   UNL     1      44.390 -18.517   5.271  1.00  0.00     0.028 A 
HETATM   17  C   UNL     1      45.119 -18.113   6.496  1.00  0.00     0.070 C 
ENDBRANCH  10  11
ENDBRANCH   8  10
ENDBRANCH   7   8
ENDBRANCH   1   7
BRANCH   3  18
HETATM   18  N   UNL     1      42.783 -11.816   8.021  1.00  0.00    -0.264 N 
HETATM   19  C   UNL     1      42.804 -10.603   8.672  1.00  0.00     0.260 C 
HETATM   20  O   UNL     1      42.204  -9.644   8.188  1.00  0.00    -0.269 OA
HETATM   21  H   UNL     1      42.299 -11.800   7.127  1.00  0.00     0.190 HD
BRANCH  19  22
HETATM   22  C   UNL     1      43.512 -10.529  10.023  1.00  0.00     0.280 C 
BRANCH  22  23
HETATM   23  O   UNL     1      42.960 -11.461  10.958  1.00  0.00    -0.342 OA
BRANCH  23  24
HETATM   24  C   UNL     1      42.720 -10.866  12.167  1.00  0.00     0.069 A 
HETATM   25  C   UNL     1      43.619  -9.931  12.678  1.00  0.00     0.038 A 
HETATM   26  C   UNL     1      43.359  -9.322  13.906  1.00  0.00     0.022 A 
HETATM   27  C   UNL     1      42.189  -9.634  14.598  1.00  0.00     0.011 A 
HETATM   28 BR   UNL     1      41.839  -8.812  16.264  1.00  0.00    -0.051 Br
HETATM   29  C   UNL     1      41.273 -10.543  14.069  1.00  0.00     0.022 A 
HETATM   30  C   UNL     1      41.535 -11.156  12.842  1.00  0.00     0.038 A 
ENDBRANCH  23  24
ENDBRANCH  22  23
ENDBRANCH  19  22
ENDBRANCH   3  18
TORSDOF 8
ENDMDL
MODEL 4
REMARK VINA RESULT:      -7.8      4.017      9.151
REMARK  8 active torsions:
REMARK  status: ('A' for Active; 'I' for Inactive)
REMARK    1  A    between atoms: N_4  and  C_5 
REMARK    2  A    between atoms: C_5  and  C_6 
REMARK    3  A    between atoms: C_6  and  C_7 
REMARK    4  A    between atoms: C_7  and  N_8 
REMARK       I    between atoms: N_8  and  C_9 
REMARK       I    between atoms: C_9  and  N_10 
REMARK    5  A    between atoms: N_10  and  N_11 
REMARK       I    between atoms: N_11  and  C_12 
REMARK    6  A    between atoms: C_12  and  C_13 
REMARK    7  A    between atoms: C_13  and  O_14 
REMARK    8  A    between atoms: O_14  and  C_15 
ROOT
HETATM    1  N   UNL     1      43.984 -17.079   6.124  1.00  0.00    -0.341 N 
HETATM    2  C   UNL     1      43.669 -16.649   7.378  1.00  0.00     0.334 C 
HETATM    3  N   UNL     1      43.669 -15.285   7.543  1.00  0.00    -0.249 N 
HETATM    4  O   UNL     1      43.371 -17.385   8.314  1.00  0.00    -0.246 OA
HETATM    5  H   UNL     1      43.969 -16.376   5.395  1.00  0.00     0.164 HD
HETATM    6  H   UNL     1      43.527 -14.992   8.506  1.00  0.00     0.192 HD
ENDROOT
BRANCH   1   7
HETATM    7  C   UNL     1      43.829 -18.459   5.703  1.00  0.00     0.130 C 
BRANCH   7   8
HETATM    8  C   UNL     1      43.024 -18.593   4.395  1.00  0.00     0.019 C 
HETATM    9  C   UNL     1      43.829 -18.125   3.176  1.00  0.00     0.013 C 
BRANCH   8  10
HETATM   10  C   UNL     1      41.720 -17.773   4.471  1.00  0.00     0.156 C 
BRANCH  10  11
HETATM   11  N   UNL     1      41.738 -16.465   3.833  1.00  0.00    -0.274 N 
HETATM   12  N   UNL     1      42.235 -15.396   4.481  1.00  0.00    -0.177 NA
HETATM   13  C   UNL     1      42.042 -14.374   3.642  1.00  0.00     0.053 A 
HETATM   14  C   UNL     1      42.466 -13.004   4.015  1.00  0.00     0.072 C 
HETATM   15  C   UNL     1      41.409 -14.793   2.454  1.00  0.00     0.055 A 
HETATM   16  C   UNL     1      41.211 -16.151   2.603  1.00  0.00     0.028 A 
HETATM   17  C   UNL     1      40.576 -17.136   1.695  1.00  0.00     0.070 C 
ENDBRANCH  10  11
ENDBRANCH   8  10
ENDBRANCH   7   8
ENDBRANCH   1   7
BRANCH   3  18
HETATM   18  N   UNL     1      44.437 -14.436   6.729  1.00  0.00    -0.264 N 
HETATM   19  C   UNL     1      45.295 -13.510   7.279  1.00  0.00     0.260 C 
HETATM   20  O   UNL     1      46.325 -13.204   6.680  1.00  0.00    -0.269 OA
HETATM   21  H   UNL     1      44.772 -14.849   5.862  1.00  0.00     0.190 HD
BRANCH  19  22
HETATM   22  C   UNL     1      44.878 -12.837   8.586  1.00  0.00     0.280 C 
BRANCH  22  23
HETATM   23  O   UNL     1      43.880 -11.835   8.367  1.00  0.00    -0.342 OA
BRANCH  23  24
HETATM   24  C   UNL     1      43.616 -11.140   9.515  1.00  0.00     0.069 A 
HETATM   25  C   UNL     1      44.540 -11.137  10.559  1.00  0.00     0.038 A 
HETATM   26  C   UNL     1      44.266 -10.414  11.722  1.00  0.00     0.022 A 
HETATM   27  C   UNL     1      43.084  -9.680  11.817  1.00  0.00     0.011 A 
HETATM   28 BR   UNL     1      42.711  -8.706  13.393  1.00  0.00    -0.051 Br
HETATM   29  C   UNL     1      42.177  -9.655  10.757  1.00  0.00     0.022 A 
HETATM   30  C   UNL     1      42.449 -10.382   9.596  1.00  0.00     0.038 A 
ENDBRANCH  23  24
ENDBRANCH  22  23
ENDBRANCH  19  22
ENDBRANCH   3  18
TORSDOF 8
ENDMDL
MODEL 5
REMARK VINA RESULT:      -7.8      4.732      8.449
REMARK  8 active torsions:
REMARK  status: ('A' for Active; 'I' for Inactive)
REMARK    1  A    between atoms: N_4  and  C_5 
REMARK    2  A    between atoms: C_5  and  C_6 
REMARK    3  A    between atoms: C_6  and  C_7 
REMARK    4  A    between atoms: C_7  and  N_8 
REMARK       I    between atoms: N_8  and  C_9 
REMARK       I    between atoms: C_9  and  N_10 
REMARK    5  A    between atoms: N_10  and  N_11 
REMARK       I    between atoms: N_11  and  C_12 
REMARK    6  A    between atoms: C_12  and  C_13 
REMARK    7  A    between atoms: C_13  and  O_14 
REMARK    8  A    between atoms: O_14  and  C_15 
ROOT
HETATM    1  N   UNL     1      41.360 -13.810   3.639  1.00  0.00    -0.341 N 
HETATM    2  C   UNL     1      41.703 -13.070   4.731  1.00  0.00     0.334 C 
HETATM    3  N   UNL     1      41.927 -13.793   5.878  1.00  0.00    -0.249 N 
HETATM    4  O   UNL     1      41.846 -11.851   4.730  1.00  0.00    -0.246 OA
HETATM    5  H   UNL     1      41.514 -14.809   3.712  1.00  0.00     0.164 HD
HETATM    6  H   UNL     1      42.087 -13.213   6.697  1.00  0.00     0.192 HD
ENDROOT
BRANCH   1   7
HETATM    7  C   UNL     1      41.294 -13.255   2.301  1.00  0.00     0.130 C 
BRANCH   7   8
HETATM    8  C   UNL     1      40.716 -14.251   1.274  1.00  0.00     0.019 C 
HETATM    9  C   UNL     1      40.232 -15.545   1.940  1.00  0.00     0.013 C 
BRANCH   8  10
HETATM   10  C   UNL     1      41.771 -14.607   0.207  1.00  0.00     0.156 C 
BRANCH  10  11
HETATM   11  N   UNL     1      41.349 -14.504  -1.182  1.00  0.00    -0.274 N 
HETATM   12  N   UNL     1      40.518 -15.420  -1.712  1.00  0.00    -0.177 NA
HETATM   13  C   UNL     1      40.392 -15.059  -2.993  1.00  0.00     0.053 A 
HETATM   14  C   UNL     1      39.541 -15.844  -3.917  1.00  0.00     0.072 C 
HETATM   15  C   UNL     1      41.157 -13.910  -3.283  1.00  0.00     0.055 A 
HETATM   16  C   UNL     1      41.778 -13.573  -2.098  1.00  0.00     0.028 A 
HETATM   17  C   UNL     1      42.718 -12.471  -1.783  1.00  0.00     0.070 C 
ENDBRANCH  10  11
ENDBRANCH   8  10
ENDBRANCH   7   8
ENDBRANCH   1   7
BRANCH   3  18
HETATM   18  N   UNL     1      41.337 -15.049   6.094  1.00  0.00    -0.264 N 
HETATM   19  C   UNL     1      42.110 -16.165   6.323  1.00  0.00     0.260 C 
HETATM   20  O   UNL     1      41.680 -17.063   7.046  1.00  0.00    -0.269 OA
HETATM   21  H   UNL     1      40.461 -15.036   6.610  1.00  0.00     0.190 HD
BRANCH  19  22
HETATM   22  C   UNL     1      43.447 -16.271   5.593  1.00  0.00     0.280 C 
BRANCH  22  23
HETATM   23  O   UNL     1      43.271 -16.288   4.174  1.00  0.00    -0.342 OA
BRANCH  23  24
HETATM   24  C   UNL     1      43.500 -17.536   3.661  1.00  0.00     0.069 A 
HETATM   25  C   UNL     1      44.183 -18.488   4.416  1.00  0.00     0.038 A 
HETATM   26  C   UNL     1      44.401 -19.762   3.889  1.00  0.00     0.022 A 
HETATM   27  C   UNL     1      43.910 -20.079   2.622  1.00  0.00     0.011 A 
HETATM   28 BR   UNL     1      44.210 -21.803   1.907  1.00  0.00    -0.051 Br
HETATM   29  C   UNL     1      43.196 -19.137   1.882  1.00  0.00     0.022 A 
HETATM   30  C   UNL     1      42.982 -17.861   2.408  1.00  0.00     0.038 A 
ENDBRANCH  23  24
ENDBRANCH  22  23
ENDBRANCH  19  22
ENDBRANCH   3  18
TORSDOF 8
ENDMDL
MODEL 6
REMARK VINA RESULT:      -7.8      2.324      3.934
REMARK  8 active torsions:
REMARK  status: ('A' for Active; 'I' for Inactive)
REMARK    1  A    between atoms: N_4  and  C_5 
REMARK    2  A    between atoms: C_5  and  C_6 
REMARK    3  A    between atoms: C_6  and  C_7 
REMARK    4  A    between atoms: C_7  and  N_8 
REMARK       I    between atoms: N_8  and  C_9 
REMARK       I    between atoms: C_9  and  N_10 
REMARK    5  A    between atoms: N_10  and  N_11 
REMARK       I    between atoms: N_11  and  C_12 
REMARK    6  A    between atoms: C_12  and  C_13 
REMARK    7  A    between atoms: C_13  and  O_14 
REMARK    8  A    between atoms: O_14  and  C_15 
ROOT
HETATM    1  N   UNL     1      40.337 -11.990   7.581  1.00  0.00    -0.341 N 
HETATM    2  C   UNL     1      39.816 -12.590   6.473  1.00  0.00     0.334 C 
HETATM    3  N   UNL     1      40.486 -13.712   6.050  1.00  0.00    -0.249 N 
HETATM    4  O   UNL     1      38.809 -12.210   5.883  1.00  0.00    -0.246 OA
HETATM    5  H   UNL     1      41.011 -12.533   8.106  1.00  0.00     0.164 HD
HETATM    6  H   UNL     1      40.138 -14.084   5.170  1.00  0.00     0.192 HD
ENDROOT
BRANCH   1   7
HETATM    7  C   UNL     1      39.653 -10.930   8.297  1.00  0.00     0.130 C 
BRANCH   7   8
HETATM    8  C   UNL     1      40.618  -9.841   8.808  1.00  0.00     0.019 C 
HETATM    9  C   UNL     1      40.416  -8.507   8.077  1.00  0.00     0.013 C 
BRANCH   8  10
HETATM   10  C   UNL     1      42.084 -10.286   8.629  1.00  0.00     0.156 C 
BRANCH  10  11
HETATM   11  N   UNL     1      42.870 -10.435   9.846  1.00  0.00    -0.274 N 
HETATM   12  N   UNL     1      42.517  -9.783  10.969  1.00  0.00    -0.177 NA
HETATM   13  C   UNL     1      43.471 -10.094  11.852  1.00  0.00     0.053 A 
HETATM   14  C   UNL     1      43.428  -9.551  13.230  1.00  0.00     0.072 C 
HETATM   15  C   UNL     1      44.443 -10.944  11.284  1.00  0.00     0.055 A 
HETATM   16  C   UNL     1      44.040 -11.143   9.980  1.00  0.00     0.028 A 
HETATM   17  C   UNL     1      44.665 -11.927   8.888  1.00  0.00     0.070 C 
ENDBRANCH  10  11
ENDBRANCH   8  10
ENDBRANCH   7   8
ENDBRANCH   1   7
BRANCH   3  18
HETATM   18  N   UNL     1      41.846 -13.920   6.333  1.00  0.00    -0.264 N 
HETATM   19  C   UNL     1      42.748 -14.180   5.326  1.00  0.00     0.260 C 
HETATM   20  O   UNL     1      43.913 -13.801   5.442  1.00  0.00    -0.269 OA
HETATM   21  H   UNL     1      42.222 -13.363   7.096  1.00  0.00     0.190 HD
BRANCH  19  22
HETATM   22  C   UNL     1      42.272 -15.008   4.135  1.00  0.00     0.280 C 
BRANCH  22  23
HETATM   23  O   UNL     1      43.332 -15.249   3.205  1.00  0.00    -0.342 OA
BRANCH  23  24
HETATM   24  C   UNL     1      43.463 -16.584   2.936  1.00  0.00     0.069 A 
HETATM   25  C   UNL     1      43.384 -17.517   3.970  1.00  0.00     0.038 A 
HETATM   26  C   UNL     1      43.506 -18.877   3.685  1.00  0.00     0.022 A 
HETATM   27  C   UNL     1      43.679 -19.293   2.365  1.00  0.00     0.011 A 
HETATM   28 BR   UNL     1      43.849 -21.136   1.979  1.00  0.00    -0.051 Br
HETATM   29  C   UNL     1      43.721 -18.362   1.327  1.00  0.00     0.022 A 
HETATM   30  C   UNL     1      43.604 -17.000   1.613  1.00  0.00     0.038 A 
ENDBRANCH  23  24
ENDBRANCH  22  23
ENDBRANCH  19  22
ENDBRANCH   3  18
TORSDOF 8
ENDMDL
MODEL 7
REMARK VINA RESULT:      -7.8      4.489     10.009
REMARK  8 active torsions:
REMARK  status: ('A' for Active; 'I' for Inactive)
REMARK    1  A    between atoms: N_4  and  C_5 
REMARK    2  A    between atoms: C_5  and  C_6 
REMARK    3  A    between atoms: C_6  and  C_7 
REMARK    4  A    between atoms: C_7  and  N_8 
REMARK       I    between atoms: N_8  and  C_9 
REMARK       I    between atoms: C_9  and  N_10 
REMARK    5  A    between atoms: N_10  and  N_11 
REMARK       I    between atoms: N_11  and  C_12 
REMARK    6  A    between atoms: C_12  and  C_13 
REMARK    7  A    between atoms: C_13  and  O_14 
REMARK    8  A    between atoms: O_14  and  C_15 
ROOT
HETATM    1  N   UNL     1      41.669 -14.680   4.121  1.00  0.00    -0.341 N 
HETATM    2  C   UNL     1      42.455 -13.568   4.177  1.00  0.00     0.334 C 
HETATM    3  N   UNL     1      42.433 -12.899   5.377  1.00  0.00    -0.249 N 
HETATM    4  O   UNL     1      43.170 -13.173   3.262  1.00  0.00    -0.246 OA
HETATM    5  H   UNL     1      41.326 -15.028   5.008  1.00  0.00     0.164 HD
HETATM    6  H   UNL     1      42.951 -12.024   5.363  1.00  0.00     0.192 HD
ENDROOT
BRANCH   1   7
HETATM    7  C   UNL     1      41.723 -15.628   3.025  1.00  0.00     0.130 C 
BRANCH   7   8
HETATM    8  C   UNL     1      42.025 -17.065   3.498  1.00  0.00     0.019 C 
HETATM    9  C   UNL     1      41.435 -17.347   4.885  1.00  0.00     0.013 C 
BRANCH   8  10
HETATM   10  C   UNL     1      43.546 -17.313   3.547  1.00  0.00     0.156 C 
BRANCH  10  11
HETATM   11  N   UNL     1      43.978 -18.702   3.501  1.00  0.00    -0.274 N 
HETATM   12  N   UNL     1      43.777 -19.443   2.396  1.00  0.00    -0.177 NA
HETATM   13  C   UNL     1      44.232 -20.658   2.718  1.00  0.00     0.053 A 
HETATM   14  C   UNL     1      44.175 -21.768   1.738  1.00  0.00     0.072 C 
HETATM   15  C   UNL     1      44.719 -20.693   4.041  1.00  0.00     0.055 A 
HETATM   16  C   UNL     1      44.535 -19.418   4.534  1.00  0.00     0.028 A 
HETATM   17  C   UNL     1      44.836 -18.850   5.870  1.00  0.00     0.070 C 
ENDBRANCH  10  11
ENDBRANCH   8  10
ENDBRANCH   7   8
ENDBRANCH   1   7
BRANCH   3  18
HETATM   18  N   UNL     1      41.338 -12.975   6.253  1.00  0.00    -0.264 N 
HETATM   19  C   UNL     1      40.823 -11.843   6.844  1.00  0.00     0.260 C 
HETATM   20  O   UNL     1      39.621 -11.786   7.102  1.00  0.00    -0.269 OA
HETATM   21  H   UNL     1      40.640 -13.676   6.018  1.00  0.00     0.190 HD
BRANCH  19  22
HETATM   22  C   UNL     1      41.797 -10.732   7.231  1.00  0.00     0.280 C 
BRANCH  22  23
HETATM   23  O   UNL     1      42.955 -11.254   7.890  1.00  0.00    -0.342 OA
BRANCH  23  24
HETATM   24  C   UNL     1      43.019 -10.828   9.189  1.00  0.00     0.069 A 
HETATM   25  C   UNL     1      44.090 -11.208   9.997  1.00  0.00     0.038 A 
HETATM   26  C   UNL     1      44.153 -10.760  11.317  1.00  0.00     0.022 A 
HETATM   27  C   UNL     1      43.158  -9.914  11.807  1.00  0.00     0.011 A 
HETATM   28 BR   UNL     1      43.241  -9.311  13.597  1.00  0.00    -0.051 Br
HETATM   29  C   UNL     1      42.106  -9.506  10.987  1.00  0.00     0.022 A 
HETATM   30  C   UNL     1      42.041  -9.958   9.668  1.00  0.00     0.038 A 
ENDBRANCH  23  24
ENDBRANCH  22  23
ENDBRANCH  19  22
ENDBRANCH   3  18
TORSDOF 8
ENDMDL
MODEL 8
REMARK VINA RESULT:      -7.7      4.091     10.205
REMARK  8 active torsions:
REMARK  status: ('A' for Active; 'I' for Inactive)
REMARK    1  A    between atoms: N_4  and  C_5 
REMARK    2  A    between atoms: C_5  and  C_6 
REMARK    3  A    between atoms: C_6  and  C_7 
REMARK    4  A    between atoms: C_7  and  N_8 
REMARK       I    between atoms: N_8  and  C_9 
REMARK       I    between atoms: C_9  and  N_10 
REMARK    5  A    between atoms: N_10  and  N_11 
REMARK       I    between atoms: N_11  and  C_12 
REMARK    6  A    between atoms: C_12  and  C_13 
REMARK    7  A    between atoms: C_13  and  O_14 
REMARK    8  A    between atoms: O_14  and  C_15 
ROOT
HETATM    1  N   UNL     1      42.940 -14.890   4.718  1.00  0.00    -0.341 N 
HETATM    2  C   UNL     1      42.622 -15.322   5.971  1.00  0.00     0.334 C 
HETATM    3  N   UNL     1      43.232 -14.638   6.995  1.00  0.00    -0.249 N 
HETATM    4  O   UNL     1      41.831 -16.228   6.217  1.00  0.00    -0.246 OA
HETATM    5  H   UNL     1      43.405 -13.992   4.661  1.00  0.00     0.164 HD
HETATM    6  H   UNL     1      43.055 -15.038   7.912  1.00  0.00     0.192 HD
ENDROOT
BRANCH   1   7
HETATM    7  C   UNL     1      42.241 -15.340   3.530  1.00  0.00     0.130 C 
BRANCH   7   8
HETATM    8  C   UNL     1      42.962 -16.506   2.823  1.00  0.00     0.019 C 
HETATM    9  C   UNL     1      42.890 -16.383   1.295  1.00  0.00     0.013 C 
BRANCH   8  10
HETATM   10  C   UNL     1      42.351 -17.859   3.241  1.00  0.00     0.156 C 
BRANCH  10  11
HETATM   11  N   UNL     1      43.234 -19.015   3.185  1.00  0.00    -0.274 N 
HETATM   12  N   UNL     1      43.155 -19.884   2.161  1.00  0.00    -0.177 NA
HETATM   13  C   UNL     1      44.048 -20.833   2.456  1.00  0.00     0.053 A 
HETATM   14  C   UNL     1      44.251 -21.986   1.547  1.00  0.00     0.072 C 
HETATM   15  C   UNL     1      44.695 -20.571   3.682  1.00  0.00     0.055 A 
HETATM   16  C   UNL     1      44.144 -19.393   4.143  1.00  0.00     0.028 A 
HETATM   17  C   UNL     1      44.407 -18.628   5.385  1.00  0.00     0.070 C 
ENDBRANCH  10  11
ENDBRANCH   8  10
ENDBRANCH   7   8
ENDBRANCH   1   7
BRANCH   3  18
HETATM   18  N   UNL     1      44.455 -13.969   6.819  1.00  0.00    -0.264 N 
HETATM   19  C   UNL     1      44.868 -13.002   7.708  1.00  0.00     0.260 C 
HETATM   20  O   UNL     1      46.070 -12.844   7.919  1.00  0.00    -0.269 OA
HETATM   21  H   UNL     1      45.210 -14.534   6.439  1.00  0.00     0.190 HD
BRANCH  19  22
HETATM   22  C   UNL     1      43.802 -12.106   8.336  1.00  0.00     0.280 C 
BRANCH  22  23
HETATM   23  O   UNL     1      44.389 -11.018   9.056  1.00  0.00    -0.342 OA
BRANCH  23  24
HETATM   24  C   UNL     1      43.718 -10.778  10.225  1.00  0.00     0.069 A 
HETATM   25  C   UNL     1      44.421 -10.412  11.372  1.00  0.00     0.038 A 
HETATM   26  C   UNL     1      43.727 -10.158  12.556  1.00  0.00     0.022 A 
HETATM   27  C   UNL     1      42.334 -10.247  12.573  1.00  0.00     0.011 A 
HETATM   28 BR   UNL     1      41.395  -9.908  14.178  1.00  0.00    -0.051 Br
HETATM   29  C   UNL     1      41.630 -10.578  11.415  1.00  0.00     0.022 A 
HETATM   30  C   UNL     1      42.325 -10.836  10.232  1.00  0.00     0.038 A 
ENDBRANCH  23  24
ENDBRANCH  22  23
ENDBRANCH  19  22
ENDBRANCH   3  18
TORSDOF 8
ENDMDL
MODEL 9
REMARK VINA RESULT:      -7.7      4.992      8.448
REMARK  8 active torsions:
REMARK  status: ('A' for Active; 'I' for Inactive)
REMARK    1  A    between atoms: N_4  and  C_5 
REMARK    2  A    between atoms: C_5  and  C_6 
REMARK    3  A    between atoms: C_6  and  C_7 
REMARK    4  A    between atoms: C_7  and  N_8 
REMARK       I    between atoms: N_8  and  C_9 
REMARK       I    between atoms: C_9  and  N_10 
REMARK    5  A    between atoms: N_10  and  N_11 
REMARK       I    between atoms: N_11  and  C_12 
REMARK    6  A    between atoms: C_12  and  C_13 
REMARK    7  A    between atoms: C_13  and  O_14 
REMARK    8  A    between atoms: O_14  and  C_15 
ROOT
HETATM    1  N   UNL     1      39.819 -15.429   3.422  1.00  0.00    -0.341 N 
HETATM    2  C   UNL     1      39.987 -14.292   4.153  1.00  0.00     0.334 C 
HETATM    3  N   UNL     1      40.721 -14.443   5.305  1.00  0.00    -0.249 N 
HETATM    4  O   UNL     1      39.561 -13.187   3.832  1.00  0.00    -0.246 OA
HETATM    5  H   UNL     1      40.417 -16.209   3.666  1.00  0.00     0.164 HD
HETATM    6  H   UNL     1      40.752 -13.605   5.880  1.00  0.00     0.192 HD
ENDROOT
BRANCH   1   7
HETATM    7  C   UNL     1      39.262 -15.428   2.082  1.00  0.00     0.130 C 
BRANCH   7   8
HETATM    8  C   UNL     1      39.888 -14.344   1.181  1.00  0.00     0.019 C 
HETATM    9  C   UNL     1      38.839 -13.660   0.295  1.00  0.00     0.013 C 
BRANCH   8  10
HETATM   10  C   UNL     1      40.979 -14.952   0.276  1.00  0.00     0.156 C 
BRANCH  10  11
HETATM   11  N   UNL     1      41.568 -14.064  -0.716  1.00  0.00    -0.274 N 
HETATM   12  N   UNL     1      42.127 -12.899  -0.342  1.00  0.00    -0.177 NA
HETATM   13  C   UNL     1      42.504 -12.324  -1.488  1.00  0.00     0.053 A 
HETATM   14  C   UNL     1      43.169 -10.999  -1.483  1.00  0.00     0.072 C 
HETATM   15  C   UNL     1      42.174 -13.125  -2.601  1.00  0.00     0.055 A 
HETATM   16  C   UNL     1      41.558 -14.244  -2.079  1.00  0.00     0.028 A 
HETATM   17  C   UNL     1      40.978 -15.427  -2.756  1.00  0.00     0.070 C 
ENDBRANCH  10  11
ENDBRANCH   8  10
ENDBRANCH   7   8
ENDBRANCH   1   7
BRANCH   3  18
HETATM   18  N   UNL     1      40.814 -15.675   5.973  1.00  0.00    -0.264 N 
HETATM   19  C   UNL     1      42.038 -16.246   6.242  1.00  0.00     0.260 C 
HETATM   20  O   UNL     1      42.177 -16.937   7.250  1.00  0.00    -0.269 OA
HETATM   21  H   UNL     1      40.113 -15.835   6.692  1.00  0.00     0.190 HD
BRANCH  19  22
HETATM   22  C   UNL     1      43.155 -16.057   5.218  1.00  0.00     0.280 C 
BRANCH  22  23
HETATM   23  O   UNL     1      42.690 -16.283   3.884  1.00  0.00    -0.342 OA
BRANCH  23  24
HETATM   24  C   UNL     1      43.030 -17.534   3.445  1.00  0.00     0.069 A 
HETATM   25  C   UNL     1      42.552 -17.999   2.220  1.00  0.00     0.038 A 
HETATM   26  C   UNL     1      42.914 -19.271   1.775  1.00  0.00     0.022 A 
HETATM   27  C   UNL     1      43.772 -20.054   2.548  1.00  0.00     0.011 A 
HETATM   28 BR   UNL     1      44.259 -21.780   1.947  1.00  0.00    -0.051 Br
HETATM   29  C   UNL     1      44.278 -19.574   3.756  1.00  0.00     0.022 A 
HETATM   30  C   UNL     1      43.912 -18.302   4.203  1.00  0.00     0.038 A 
ENDBRANCH  23  24
ENDBRANCH  22  23
ENDBRANCH  19  22
ENDBRANCH   3  18
TORSDOF 8
ENDMDL
MODEL 10
REMARK VINA RESULT:      -7.7      5.456      8.594
REMARK  8 active torsions:
REMARK  status: ('A' for Active; 'I' for Inactive)
REMARK    1  A    between atoms: N_4  and  C_5 
REMARK    2  A    between atoms: C_5  and  C_6 
REMARK    3  A    between atoms: C_6  and  C_7 
REMARK    4  A    between atoms: C_7  and  N_8 
REMARK       I    between atoms: N_8  and  C_9 
REMARK       I    between atoms: C_9  and  N_10 
REMARK    5  A    between atoms: N_10  and  N_11 
REMARK       I    between atoms: N_11  and  C_12 
REMARK    6  A    between atoms: C_12  and  C_13 
REMARK    7  A    between atoms: C_13  and  O_14 
REMARK    8  A    between atoms: O_14  and  C_15 
ROOT
HETATM    1  N   UNL     1      42.354 -16.573   6.408  1.00  0.00    -0.341 N 
HETATM    2  C   UNL     1      41.002 -16.544   6.238  1.00  0.00     0.334 C 
HETATM    3  N   UNL     1      40.555 -15.676   5.272  1.00  0.00    -0.249 N 
HETATM    4  O   UNL     1      40.207 -17.245   6.855  1.00  0.00    -0.246 OA
HETATM    5  H   UNL     1      42.904 -16.134   5.679  1.00  0.00     0.164 HD
HETATM    6  H   UNL     1      39.542 -15.602   5.230  1.00  0.00     0.192 HD
ENDROOT
BRANCH   1   7
HETATM    7  C   UNL     1      43.025 -17.569   7.221  1.00  0.00     0.130 C 
BRANCH   7   8
HETATM    8  C   UNL     1      43.367 -18.848   6.429  1.00  0.00     0.019 C 
HETATM    9  C   UNL     1      43.898 -19.961   7.341  1.00  0.00     0.013 C 
BRANCH   8  10
HETATM   10  C   UNL     1      44.422 -18.550   5.344  1.00  0.00     0.156 C 
BRANCH  10  11
HETATM   11  N   UNL     1      44.118 -19.015   3.999  1.00  0.00    -0.274 N 
HETATM   12  N   UNL     1      44.294 -20.307   3.667  1.00  0.00    -0.177 NA
HETATM   13  C   UNL     1      43.981 -20.366   2.369  1.00  0.00     0.053 A 
HETATM   14  C   UNL     1      44.058 -21.651   1.634  1.00  0.00     0.072 C 
HETATM   15  C   UNL     1      43.612 -19.101   1.868  1.00  0.00     0.055 A 
HETATM   16  C   UNL     1      43.717 -18.236   2.938  1.00  0.00     0.028 A 
HETATM   17  C   UNL     1      43.478 -16.776   3.024  1.00  0.00     0.070 C 
ENDBRANCH  10  11
ENDBRANCH   8  10
ENDBRANCH   7   8
ENDBRANCH   1   7
BRANCH   3  18
HETATM   18  N   UNL     1      41.290 -14.541   4.892  1.00  0.00    -0.264 N 
HETATM   19  C   UNL     1      40.699 -13.516   4.186  1.00  0.00     0.260 C 
HETATM   20  O   UNL     1      41.093 -12.362   4.348  1.00  0.00    -0.269 OA
HETATM   21  H   UNL     1      41.995 -14.235   5.558  1.00  0.00     0.190 HD
BRANCH  19  22
HETATM   22  C   UNL     1      39.625 -13.879   3.163  1.00  0.00     0.280 C 
BRANCH  22  23
HETATM   23  O   UNL     1      39.916 -15.119   2.512  1.00  0.00    -0.342 OA
BRANCH  23  24
HETATM   24  C   UNL     1      40.075 -14.946   1.164  1.00  0.00     0.069 A 
HETATM   25  C   UNL     1      41.054 -15.662   0.477  1.00  0.00     0.038 A 
HETATM   26  C   UNL     1      41.201 -15.488  -0.900  1.00  0.00     0.022 A 
HETATM   27  C   UNL     1      40.348 -14.618  -1.580  1.00  0.00     0.011 A 
HETATM   28 BR   UNL     1      40.549 -14.377  -3.444  1.00  0.00    -0.051 Br
HETATM   29  C   UNL     1      39.345 -13.929  -0.898  1.00  0.00     0.022 A 
HETATM   30  C   UNL     1      39.202 -14.101   0.481  1.00  0.00     0.038 A 
ENDBRANCH  23  24
ENDBRANCH  22  23
ENDBRANCH  19  22
ENDBRANCH   3  18
TORSDOF 8
ENDMDL
