MODEL 1
REMARK VINA RESULT:      -9.4      0.000      0.000
REMARK  8 active torsions:
REMARK  status: ('A' for Active; 'I' for Inactive)
REMARK    1  A    between atoms: C_4  and  N_5 
REMARK       I    between atoms: N_5  and  C_6 
REMARK    2  A    between atoms: C_6  and  C_7 
REMARK    3  A    between atoms: C_7  and  N_8 
REMARK       I    between atoms: N_8  and  C_9 
REMARK    4  A    between atoms: C_9  and  C_10 
REMARK    5  A    between atoms: C_10  and  S_11 
REMARK    6  A    between atoms: S_11  and  C_12 
REMARK    7  A    between atoms: C_14  and  C_15 
REMARK    8  A    between atoms: C_27  and  O_28 
ROOT
HETATM    1  N   UNL     1      43.156 -15.406   5.595  1.00  0.00    -0.352 N 
HETATM    2  C   UNL     1      44.003 -14.384   5.978  1.00  0.00     0.227 C 
HETATM    3  O   UNL     1      44.510 -13.632   5.150  1.00  0.00    -0.273 OA
HETATM    4  H   UNL     1      42.570 -15.855   6.291  1.00  0.00     0.162 HD
ENDROOT
BRANCH   2   5
HETATM    5  C   UNL     1      44.228 -14.327   7.482  1.00  0.00     0.185 C 
BRANCH   5   6
HETATM    6  S   UNL     1      45.296 -12.941   7.962  1.00  0.00    -0.081 SA
BRANCH   6   7
HETATM    7  C   UNL     1      44.217 -12.077   8.980  1.00  0.00     0.185 A 
HETATM    8  N   UNL     1      44.286 -11.902  10.273  1.00  0.00    -0.201 NA
HETATM    9  C   UNL     1      43.179 -11.123  10.552  1.00  0.00     0.185 A 
HETATM   10  N   UNL     1      42.444 -10.824   9.462  1.00  0.00    -0.152 NA
HETATM   11  N   UNL     1      43.126 -11.445   8.485  1.00  0.00    -0.253 N 
HETATM   12  H   UNL     1      42.805 -11.393   7.526  1.00  0.00     0.191 HD
BRANCH   9  13
HETATM   13  C   UNL     1      42.850 -10.662  11.896  1.00  0.00     0.052 A 
HETATM   14  C   UNL     1      41.677 -11.064  12.545  1.00  0.00     0.130 A 
HETATM   15  F   UNL     1      40.799 -11.890  11.955  1.00  0.00    -0.205 F 
HETATM   16  C   UNL     1      41.373 -10.619  13.833  1.00  0.00     0.043 A 
HETATM   17  C   UNL     1      42.243  -9.758  14.499  1.00  0.00     0.003 A 
HETATM   18  C   UNL     1      43.416  -9.344  13.871  1.00  0.00     0.001 A 
HETATM   19  C   UNL     1      43.717  -9.792  12.581  1.00  0.00     0.018 A 
ENDBRANCH   9  13
ENDBRANCH   6   7
ENDBRANCH   5   6
ENDBRANCH   2   5
BRANCH   1  20
HETATM   20  C   UNL     1      42.811 -15.603   4.199  1.00  0.00     0.225 C 
BRANCH  20  21
HETATM   21  C   UNL     1      42.703 -17.094   3.871  1.00  0.00     0.239 C 
HETATM   22  N   UNL     1      43.896 -17.764   4.053  1.00  0.00    -0.323 N 
HETATM   23  H   UNL     1      44.724 -17.199   4.259  1.00  0.00     0.169 HD
HETATM   24  O   UNL     1      41.654 -17.563   3.440  1.00  0.00    -0.271 OA
BRANCH  22  25
HETATM   25  C   UNL     1      44.159 -19.144   3.908  1.00  0.00     0.069 A 
HETATM   26  C   UNL     1      43.963 -19.843   2.712  1.00  0.00     0.039 A 
HETATM   27  C   UNL     1      44.238 -21.216   2.632  1.00  0.00    -0.060 A 
HETATM   28  C   UNL     1      43.986 -21.962   1.354  1.00  0.00     0.048 C 
HETATM   29  C   UNL     1      44.687 -21.890   3.769  1.00  0.00     0.009 A 
HETATM   30  C   UNL     1      44.883 -21.204   4.971  1.00  0.00     0.039 A 
HETATM   31  C   UNL     1      44.619 -19.835   5.048  1.00  0.00     0.095 A 
BRANCH  31  32
HETATM   32  O   UNL     1      44.766 -19.068   6.180  1.00  0.00    -0.354 OA
HETATM   33  C   UNL     1      43.757 -19.175   7.176  1.00  0.00     0.210 C 
ENDBRANCH  31  32
ENDBRANCH  22  25
ENDBRANCH  20  21
ENDBRANCH   1  20
TORSDOF 8
ENDMDL
MODEL 2
REMARK VINA RESULT:      -9.3      3.021     11.292
REMARK  8 active torsions:
REMARK  status: ('A' for Active; 'I' for Inactive)
REMARK    1  A    between atoms: C_4  and  N_5 
REMARK       I    between atoms: N_5  and  C_6 
REMARK    2  A    between atoms: C_6  and  C_7 
REMARK    3  A    between atoms: C_7  and  N_8 
REMARK       I    between atoms: N_8  and  C_9 
REMARK    4  A    between atoms: C_9  and  C_10 
REMARK    5  A    between atoms: C_10  and  S_11 
REMARK    6  A    between atoms: S_11  and  C_12 
REMARK    7  A    between atoms: C_14  and  C_15 
REMARK    8  A    between atoms: C_27  and  O_28 
ROOT
HETATM    1  N   UNL     1      44.027 -13.005   7.364  1.00  0.00    -0.352 N 
HETATM    2  C   UNL     1      43.845 -14.196   6.686  1.00  0.00     0.227 C 
HETATM    3  O   UNL     1      44.515 -15.190   6.955  1.00  0.00    -0.273 OA
HETATM    4  H   UNL     1      43.319 -12.282   7.297  1.00  0.00     0.162 HD
ENDROOT
BRANCH   2   5
HETATM    5  C   UNL     1      42.775 -14.113   5.608  1.00  0.00     0.185 C 
BRANCH   5   6
HETATM    6  S   UNL     1      41.665 -15.549   5.635  1.00  0.00    -0.081 SA
BRANCH   6   7
HETATM    7  C   UNL     1      42.527 -16.604   4.590  1.00  0.00     0.185 A 
HETATM    8  N   UNL     1      42.617 -17.907   4.646  1.00  0.00    -0.201 NA
HETATM    9  C   UNL     1      43.409 -18.221   3.559  1.00  0.00     0.185 A 
HETATM   10  N   UNL     1      43.799 -17.144   2.848  1.00  0.00    -0.152 NA
HETATM   11  N   UNL     1      43.225 -16.137   3.528  1.00  0.00    -0.253 N 
HETATM   12  H   UNL     1      43.342 -15.180   3.218  1.00  0.00     0.191 HD
BRANCH   9  13
HETATM   13  C   UNL     1      43.775 -19.590   3.212  1.00  0.00     0.052 A 
HETATM   14  C   UNL     1      44.563 -20.378   4.059  1.00  0.00     0.130 A 
HETATM   15  F   UNL     1      45.021 -19.906   5.228  1.00  0.00    -0.205 F 
HETATM   16  C   UNL     1      44.905 -21.688   3.718  1.00  0.00     0.043 A 
HETATM   17  C   UNL     1      44.463 -22.236   2.515  1.00  0.00     0.003 A 
HETATM   18  C   UNL     1      43.679 -21.469   1.656  1.00  0.00     0.001 A 
HETATM   19  C   UNL     1      43.338 -20.157   2.002  1.00  0.00     0.018 A 
ENDBRANCH   9  13
ENDBRANCH   6   7
ENDBRANCH   5   6
ENDBRANCH   2   5
BRANCH   1  20
HETATM   20  C   UNL     1      44.995 -12.900   8.440  1.00  0.00     0.225 C 
BRANCH  20  21
HETATM   21  C   UNL     1      44.799 -11.600   9.222  1.00  0.00     0.239 C 
HETATM   22  N   UNL     1      43.552 -11.516   9.805  1.00  0.00    -0.323 N 
HETATM   23  H   UNL     1      42.871 -12.241   9.563  1.00  0.00     0.169 HD
HETATM   24  O   UNL     1      45.678 -10.743   9.237  1.00  0.00    -0.271 OA
BRANCH  22  25
HETATM   25  C   UNL     1      43.041 -10.499  10.642  1.00  0.00     0.069 A 
HETATM   26  C   UNL     1      43.449 -10.314  11.967  1.00  0.00     0.039 A 
HETATM   27  C   UNL     1      42.900  -9.288  12.750  1.00  0.00    -0.060 A 
HETATM   28  C   UNL     1      43.318  -9.126  14.182  1.00  0.00     0.048 C 
HETATM   29  C   UNL     1      41.916  -8.463  12.200  1.00  0.00     0.009 A 
HETATM   30  C   UNL     1      41.496  -8.639  10.879  1.00  0.00     0.039 A 
HETATM   31  C   UNL     1      42.051  -9.655  10.097  1.00  0.00     0.095 A 
BRANCH  31  32
HETATM   32  O   UNL     1      41.703  -9.922   8.794  1.00  0.00    -0.354 OA
HETATM   33  C   UNL     1      40.368 -10.345   8.549  1.00  0.00     0.210 C 
ENDBRANCH  31  32
ENDBRANCH  22  25
ENDBRANCH  20  21
ENDBRANCH   1  20
TORSDOF 8
ENDMDL
MODEL 3
REMARK VINA RESULT:      -9.1      3.839     10.975
REMARK  8 active torsions:
REMARK  status: ('A' for Active; 'I' for Inactive)
REMARK    1  A    between atoms: C_4  and  N_5 
REMARK       I    between atoms: N_5  and  C_6 
REMARK    2  A    between atoms: C_6  and  C_7 
REMARK    3  A    between atoms: C_7  and  N_8 
REMARK       I    between atoms: N_8  and  C_9 
REMARK    4  A    between atoms: C_9  and  C_10 
REMARK    5  A    between atoms: C_10  and  S_11 
REMARK    6  A    between atoms: S_11  and  C_12 
REMARK    7  A    between atoms: C_14  and  C_15 
REMARK    8  A    between atoms: C_27  and  O_28 
ROOT
HETATM    1  N   UNL     1      40.116 -12.153   7.617  1.00  0.00    -0.352 N 
HETATM    2  C   UNL     1      39.785 -12.579   6.344  1.00  0.00     0.227 C 
HETATM    3  O   UNL     1      38.644 -12.454   5.907  1.00  0.00    -0.273 OA
HETATM    4  H   UNL     1      41.093 -12.046   7.867  1.00  0.00     0.162 HD
ENDROOT
BRANCH   2   5
HETATM    5  C   UNL     1      40.954 -13.208   5.601  1.00  0.00     0.185 C 
BRANCH   5   6
HETATM    6  S   UNL     1      40.451 -13.917   4.008  1.00  0.00    -0.081 SA
BRANCH   6   7
HETATM    7  C   UNL     1      41.007 -15.528   4.216  1.00  0.00     0.185 A 
HETATM    8  N   UNL     1      41.897 -16.177   3.513  1.00  0.00    -0.201 NA
HETATM    9  C   UNL     1      41.960 -17.410   4.132  1.00  0.00     0.185 A 
HETATM   10  N   UNL     1      41.133 -17.523   5.190  1.00  0.00    -0.152 NA
HETATM   11  N   UNL     1      40.542 -16.316   5.214  1.00  0.00    -0.253 N 
HETATM   12  H   UNL     1      39.854 -16.100   5.924  1.00  0.00     0.191 HD
BRANCH   9  13
HETATM   13  C   UNL     1      42.849 -18.478   3.687  1.00  0.00     0.052 A 
HETATM   14  C   UNL     1      42.780 -18.998   2.389  1.00  0.00     0.130 A 
HETATM   15  F   UNL     1      41.890 -18.538   1.497  1.00  0.00    -0.205 F 
HETATM   16  C   UNL     1      43.637 -20.019   1.972  1.00  0.00     0.043 A 
HETATM   17  C   UNL     1      44.582 -20.541   2.852  1.00  0.00     0.003 A 
HETATM   18  C   UNL     1      44.667 -20.039   4.149  1.00  0.00     0.001 A 
HETATM   19  C   UNL     1      43.807 -19.017   4.563  1.00  0.00     0.018 A 
ENDBRANCH   9  13
ENDBRANCH   6   7
ENDBRANCH   5   6
ENDBRANCH   2   5
BRANCH   1  20
HETATM   20  C   UNL     1      39.130 -11.511   8.467  1.00  0.00     0.225 C 
BRANCH  20  21
HETATM   21  C   UNL     1      39.811 -10.687   9.561  1.00  0.00     0.239 C 
HETATM   22  N   UNL     1      40.844 -11.368  10.172  1.00  0.00    -0.323 N 
HETATM   23  H   UNL     1      40.963 -12.356   9.929  1.00  0.00     0.169 HD
HETATM   24  O   UNL     1      39.393  -9.570   9.851  1.00  0.00    -0.271 OA
BRANCH  22  25
HETATM   25  C   UNL     1      41.728 -10.909  11.174  1.00  0.00     0.069 A 
HETATM   26  C   UNL     1      41.347 -10.717  12.506  1.00  0.00     0.039 A 
HETATM   27  C   UNL     1      42.271 -10.253  13.455  1.00  0.00    -0.060 A 
HETATM   28  C   UNL     1      41.840 -10.013  14.872  1.00  0.00     0.048 C 
HETATM   29  C   UNL     1      43.575  -9.959  13.051  1.00  0.00     0.009 A 
HETATM   30  C   UNL     1      43.966 -10.142  11.722  1.00  0.00     0.039 A 
HETATM   31  C   UNL     1      43.049 -10.614  10.780  1.00  0.00     0.095 A 
BRANCH  31  32
HETATM   32  O   UNL     1      43.326 -10.819   9.449  1.00  0.00    -0.354 OA
HETATM   33  C   UNL     1      44.387 -11.710   9.133  1.00  0.00     0.210 C 
ENDBRANCH  31  32
ENDBRANCH  22  25
ENDBRANCH  20  21
ENDBRANCH   1  20
TORSDOF 8
ENDMDL
MODEL 4
REMARK VINA RESULT:      -9.0      3.513     11.077
REMARK  8 active torsions:
REMARK  status: ('A' for Active; 'I' for Inactive)
REMARK    1  A    between atoms: C_4  and  N_5 
REMARK       I    between atoms: N_5  and  C_6 
REMARK    2  A    between atoms: C_6  and  C_7 
REMARK    3  A    between atoms: C_7  and  N_8 
REMARK       I    between atoms: N_8  and  C_9 
REMARK    4  A    between atoms: C_9  and  C_10 
REMARK    5  A    between atoms: C_10  and  S_11 
REMARK    6  A    between atoms: S_11  and  C_12 
REMARK    7  A    between atoms: C_14  and  C_15 
REMARK    8  A    between atoms: C_27  and  O_28 
ROOT
HETATM    1  N   UNL     1      44.485 -13.508   8.111  1.00  0.00    -0.352 N 
HETATM    2  C   UNL     1      44.872 -13.855   6.830  1.00  0.00     0.227 C 
HETATM    3  O   UNL     1      45.930 -13.453   6.354  1.00  0.00    -0.273 OA
HETATM    4  H   UNL     1      43.744 -14.030   8.566  1.00  0.00     0.162 HD
ENDROOT
BRANCH   2   5
HETATM    5  C   UNL     1      43.858 -14.740   6.119  1.00  0.00     0.185 C 
BRANCH   5   6
HETATM    6  S   UNL     1      43.309 -16.122   7.159  1.00  0.00    -0.081 SA
BRANCH   6   7
HETATM    7  C   UNL     1      44.004 -17.433   6.295  1.00  0.00     0.185 A 
HETATM    8  N   UNL     1      43.474 -18.145   5.336  1.00  0.00    -0.201 NA
HETATM    9  C   UNL     1      44.477 -19.036   5.004  1.00  0.00     0.185 A 
HETATM   10  N   UNL     1      45.598 -18.881   5.737  1.00  0.00    -0.152 NA
HETATM   11  N   UNL     1      45.265 -17.860   6.546  1.00  0.00    -0.253 N 
HETATM   12  H   UNL     1      45.929 -17.509   7.223  1.00  0.00     0.191 HD
BRANCH   9  13
HETATM   13  C   UNL     1      44.334 -20.037   3.953  1.00  0.00     0.052 A 
HETATM   14  C   UNL     1      44.720 -21.369   4.149  1.00  0.00     0.130 A 
HETATM   15  F   UNL     1      45.243 -21.781   5.313  1.00  0.00    -0.205 F 
HETATM   16  C   UNL     1      44.577 -22.320   3.136  1.00  0.00     0.043 A 
HETATM   17  C   UNL     1      44.042 -21.953   1.903  1.00  0.00     0.003 A 
HETATM   18  C   UNL     1      43.652 -20.633   1.686  1.00  0.00     0.001 A 
HETATM   19  C   UNL     1      43.797 -19.684   2.703  1.00  0.00     0.018 A 
ENDBRANCH   9  13
ENDBRANCH   6   7
ENDBRANCH   5   6
ENDBRANCH   2   5
BRANCH   1  20
HETATM   20  C   UNL     1      45.336 -12.681   8.948  1.00  0.00     0.225 C 
BRANCH  20  21
HETATM   21  C   UNL     1      44.641 -11.363   9.294  1.00  0.00     0.239 C 
HETATM   22  N   UNL     1      43.266 -11.469   9.279  1.00  0.00    -0.323 N 
HETATM   23  H   UNL     1      42.867 -12.345   8.932  1.00  0.00     0.169 HD
HETATM   24  O   UNL     1      45.299 -10.346   9.494  1.00  0.00    -0.271 OA
BRANCH  22  25
HETATM   25  C   UNL     1      42.306 -10.484   9.602  1.00  0.00     0.069 A 
HETATM   26  C   UNL     1      41.828  -9.545   8.683  1.00  0.00     0.039 A 
HETATM   27  C   UNL     1      40.877  -8.587   9.066  1.00  0.00    -0.060 A 
HETATM   28  C   UNL     1      40.401  -7.560   8.081  1.00  0.00     0.048 C 
HETATM   29  C   UNL     1      40.427  -8.563  10.388  1.00  0.00     0.009 A 
HETATM   30  C   UNL     1      40.900  -9.494  11.318  1.00  0.00     0.039 A 
HETATM   31  C   UNL     1      41.839 -10.453  10.933  1.00  0.00     0.095 A 
BRANCH  31  32
HETATM   32  O   UNL     1      42.377 -11.405  11.767  1.00  0.00    -0.354 OA
HETATM   33  C   UNL     1      42.758 -10.989  13.072  1.00  0.00     0.210 C 
ENDBRANCH  31  32
ENDBRANCH  22  25
ENDBRANCH  20  21
ENDBRANCH   1  20
TORSDOF 8
ENDMDL
MODEL 5
REMARK VINA RESULT:      -8.9      3.181     10.709
REMARK  8 active torsions:
REMARK  status: ('A' for Active; 'I' for Inactive)
REMARK    1  A    between atoms: C_4  and  N_5 
REMARK       I    between atoms: N_5  and  C_6 
REMARK    2  A    between atoms: C_6  and  C_7 
REMARK    3  A    between atoms: C_7  and  N_8 
REMARK       I    between atoms: N_8  and  C_9 
REMARK    4  A    between atoms: C_9  and  C_10 
REMARK    5  A    between atoms: C_10  and  S_11 
REMARK    6  A    between atoms: S_11  and  C_12 
REMARK    7  A    between atoms: C_14  and  C_15 
REMARK    8  A    between atoms: C_27  and  O_28 
ROOT
HETATM    1  N   UNL     1      41.288 -12.440   6.306  1.00  0.00    -0.352 N 
HETATM    2  C   UNL     1      40.420 -13.438   5.907  1.00  0.00     0.227 C 
HETATM    3  O   UNL     1      39.233 -13.203   5.695  1.00  0.00    -0.273 OA
HETATM    4  H   UNL     1      42.288 -12.596   6.246  1.00  0.00     0.162 HD
ENDROOT
BRANCH   2   5
HETATM    5  C   UNL     1      41.089 -14.800   5.788  1.00  0.00     0.185 C 
BRANCH   5   6
HETATM    6  S   UNL     1      42.898 -14.671   5.749  1.00  0.00    -0.081 SA
BRANCH   6   7
HETATM    7  C   UNL     1      43.254 -15.896   4.599  1.00  0.00     0.185 A 
HETATM    8  N   UNL     1      43.422 -17.175   4.801  1.00  0.00    -0.201 NA
HETATM    9  C   UNL     1      43.662 -17.673   3.535  1.00  0.00     0.185 A 
HETATM   10  N   UNL     1      43.643 -16.728   2.574  1.00  0.00    -0.152 NA
HETATM   11  N   UNL     1      43.385 -15.614   3.281  1.00  0.00    -0.253 N 
HETATM   12  H   UNL     1      43.307 -14.720   2.813  1.00  0.00     0.191 HD
BRANCH   9  13
HETATM   13  C   UNL     1      43.900 -19.087   3.269  1.00  0.00     0.052 A 
HETATM   14  C   UNL     1      44.629 -19.890   4.154  1.00  0.00     0.130 A 
HETATM   15  F   UNL     1      45.146 -19.390   5.287  1.00  0.00    -0.205 F 
HETATM   16  C   UNL     1      44.849 -21.243   3.890  1.00  0.00     0.043 A 
HETATM   17  C   UNL     1      44.340 -21.821   2.729  1.00  0.00     0.003 A 
HETATM   18  C   UNL     1      43.612 -21.041   1.833  1.00  0.00     0.001 A 
HETATM   19  C   UNL     1      43.394 -19.685   2.101  1.00  0.00     0.018 A 
ENDBRANCH   9  13
ENDBRANCH   6   7
ENDBRANCH   5   6
ENDBRANCH   2   5
BRANCH   1  20
HETATM   20  C   UNL     1      40.830 -11.071   6.456  1.00  0.00     0.225 C 
BRANCH  20  21
HETATM   21  C   UNL     1      41.603 -10.358   7.567  1.00  0.00     0.239 C 
HETATM   22  N   UNL     1      41.702 -11.117   8.715  1.00  0.00    -0.323 N 
HETATM   23  H   UNL     1      41.165 -11.988   8.749  1.00  0.00     0.169 HD
HETATM   24  O   UNL     1      42.012  -9.212   7.406  1.00  0.00    -0.271 OA
BRANCH  22  25
HETATM   25  C   UNL     1      42.386 -10.813   9.914  1.00  0.00     0.069 A 
HETATM   26  C   UNL     1      41.749 -10.343  11.065  1.00  0.00     0.039 A 
HETATM   27  C   UNL     1      42.485 -10.053  12.224  1.00  0.00    -0.060 A 
HETATM   28  C   UNL     1      41.794  -9.512  13.441  1.00  0.00     0.048 C 
HETATM   29  C   UNL     1      43.872 -10.215  12.210  1.00  0.00     0.009 A 
HETATM   30  C   UNL     1      44.521 -10.681  11.063  1.00  0.00     0.039 A 
HETATM   31  C   UNL     1      43.787 -10.978   9.913  1.00  0.00     0.095 A 
BRANCH  31  32
HETATM   32  O   UNL     1      44.325 -11.430   8.731  1.00  0.00    -0.354 OA
HETATM   33  C   UNL     1      45.346 -12.416   8.814  1.00  0.00     0.210 C 
ENDBRANCH  31  32
ENDBRANCH  22  25
ENDBRANCH  20  21
ENDBRANCH   1  20
TORSDOF 8
ENDMDL
MODEL 6
REMARK VINA RESULT:      -8.8      6.020     10.103
REMARK  8 active torsions:
REMARK  status: ('A' for Active; 'I' for Inactive)
REMARK    1  A    between atoms: C_4  and  N_5 
REMARK       I    between atoms: N_5  and  C_6 
REMARK    2  A    between atoms: C_6  and  C_7 
REMARK    3  A    between atoms: C_7  and  N_8 
REMARK       I    between atoms: N_8  and  C_9 
REMARK    4  A    between atoms: C_9  and  C_10 
REMARK    5  A    between atoms: C_10  and  S_11 
REMARK    6  A    between atoms: S_11  and  C_12 
REMARK    7  A    between atoms: C_14  and  C_15 
REMARK    8  A    between atoms: C_27  and  O_28 
ROOT
HETATM    1  N   UNL     1      39.888 -15.534   3.129  1.00  0.00    -0.352 N 
HETATM    2  C   UNL     1      40.153 -14.621   4.133  1.00  0.00     0.227 C 
HETATM    3  O   UNL     1      39.957 -13.420   3.968  1.00  0.00    -0.273 OA
HETATM    4  H   UNL     1      39.828 -16.520   3.358  1.00  0.00     0.162 HD
ENDROOT
BRANCH   2   5
HETATM    5  C   UNL     1      40.706 -15.264   5.396  1.00  0.00     0.185 C 
BRANCH   5   6
HETATM    6  S   UNL     1      42.497 -15.023   5.558  1.00  0.00    -0.081 SA
BRANCH   6   7
HETATM    7  C   UNL     1      43.055 -16.222   4.462  1.00  0.00     0.185 A 
HETATM    8  N   UNL     1      43.156 -17.510   4.652  1.00  0.00    -0.201 NA
HETATM    9  C   UNL     1      43.637 -17.976   3.444  1.00  0.00     0.185 A 
HETATM   10  N   UNL     1      43.827 -17.004   2.530  1.00  0.00    -0.152 NA
HETATM   11  N   UNL     1      43.452 -15.906   3.207  1.00  0.00    -0.253 N 
HETATM   12  H   UNL     1      43.484 -14.997   2.763  1.00  0.00     0.191 HD
BRANCH   9  13
HETATM   13  C   UNL     1      43.898 -19.388   3.184  1.00  0.00     0.052 A 
HETATM   14  C   UNL     1      44.597 -20.187   4.097  1.00  0.00     0.130 A 
HETATM   15  F   UNL     1      45.061 -19.686   5.252  1.00  0.00    -0.205 F 
HETATM   16  C   UNL     1      44.840 -21.537   3.840  1.00  0.00     0.043 A 
HETATM   17  C   UNL     1      44.386 -22.116   2.656  1.00  0.00     0.003 A 
HETATM   18  C   UNL     1      43.690 -21.340   1.733  1.00  0.00     0.001 A 
HETATM   19  C   UNL     1      43.448 -19.987   1.994  1.00  0.00     0.018 A 
ENDBRANCH   9  13
ENDBRANCH   6   7
ENDBRANCH   5   6
ENDBRANCH   2   5
BRANCH   1  20
HETATM   20  C   UNL     1      39.338 -15.104   1.857  1.00  0.00     0.225 C 
BRANCH  20  21
HETATM   21  C   UNL     1      40.454 -14.836   0.846  1.00  0.00     0.239 C 
HETATM   22  N   UNL     1      40.177 -13.765   0.022  1.00  0.00    -0.323 N 
HETATM   23  H   UNL     1      39.240 -13.355   0.084  1.00  0.00     0.169 HD
HETATM   24  O   UNL     1      41.436 -15.572   0.791  1.00  0.00    -0.271 OA
BRANCH  22  25
HETATM   25  C   UNL     1      40.992 -13.195  -0.982  1.00  0.00     0.069 A 
HETATM   26  C   UNL     1      41.841 -12.108  -0.757  1.00  0.00     0.039 A 
HETATM   27  C   UNL     1      42.623 -11.582  -1.797  1.00  0.00    -0.060 A 
HETATM   28  C   UNL     1      43.502 -10.391  -1.552  1.00  0.00     0.048 C 
HETATM   29  C   UNL     1      42.525 -12.141  -3.073  1.00  0.00     0.009 A 
HETATM   30  C   UNL     1      41.676 -13.225  -3.312  1.00  0.00     0.039 A 
HETATM   31  C   UNL     1      40.906 -13.754  -2.274  1.00  0.00     0.095 A 
BRANCH  31  32
HETATM   32  O   UNL     1      40.033 -14.808  -2.402  1.00  0.00    -0.354 OA
HETATM   33  C   UNL     1      39.687 -15.213  -3.720  1.00  0.00     0.210 C 
ENDBRANCH  31  32
ENDBRANCH  22  25
ENDBRANCH  20  21
ENDBRANCH   1  20
TORSDOF 8
ENDMDL
MODEL 7
REMARK VINA RESULT:      -8.7      2.453      3.465
REMARK  8 active torsions:
REMARK  status: ('A' for Active; 'I' for Inactive)
REMARK    1  A    between atoms: C_4  and  N_5 
REMARK       I    between atoms: N_5  and  C_6 
REMARK    2  A    between atoms: C_6  and  C_7 
REMARK    3  A    between atoms: C_7  and  N_8 
REMARK       I    between atoms: N_8  and  C_9 
REMARK    4  A    between atoms: C_9  and  C_10 
REMARK    5  A    between atoms: C_10  and  S_11 
REMARK    6  A    between atoms: S_11  and  C_12 
REMARK    7  A    between atoms: C_14  and  C_15 
REMARK    8  A    between atoms: C_27  and  O_28 
ROOT
HETATM    1  N   UNL     1      40.026 -13.735   6.470  1.00  0.00    -0.352 N 
HETATM    2  C   UNL     1      39.528 -12.484   6.157  1.00  0.00     0.227 C 
HETATM    3  O   UNL     1      38.915 -12.286   5.111  1.00  0.00    -0.273 OA
HETATM    4  H   UNL     1      40.312 -13.932   7.422  1.00  0.00     0.162 HD
ENDROOT
BRANCH   2   5
HETATM    5  C   UNL     1      39.838 -11.435   7.215  1.00  0.00     0.185 C 
BRANCH   5   6
HETATM    6  S   UNL     1      41.442 -10.634   6.934  1.00  0.00    -0.081 SA
BRANCH   6   7
HETATM    7  C   UNL     1      42.122 -10.781   8.503  1.00  0.00     0.185 A 
HETATM    8  N   UNL     1      41.697 -10.262   9.624  1.00  0.00    -0.201 NA
HETATM    9  C   UNL     1      42.607 -10.721  10.557  1.00  0.00     0.185 A 
HETATM   10  N   UNL     1      43.569 -11.503  10.029  1.00  0.00    -0.152 NA
HETATM   11  N   UNL     1      43.235 -11.519   8.728  1.00  0.00    -0.253 N 
HETATM   12  H   UNL     1      43.791 -12.045   8.065  1.00  0.00     0.191 HD
BRANCH   9  13
HETATM   13  C   UNL     1      42.522 -10.396  11.977  1.00  0.00     0.052 A 
HETATM   14  C   UNL     1      41.480 -10.875  12.779  1.00  0.00     0.130 A 
HETATM   15  F   UNL     1      40.509 -11.652  12.276  1.00  0.00    -0.205 F 
HETATM   16  C   UNL     1      41.409 -10.560  14.138  1.00  0.00     0.043 A 
HETATM   17  C   UNL     1      42.386  -9.755  14.720  1.00  0.00     0.003 A 
HETATM   18  C   UNL     1      43.431  -9.266  13.940  1.00  0.00     0.001 A 
HETATM   19  C   UNL     1      43.498  -9.584  12.579  1.00  0.00     0.018 A 
ENDBRANCH   9  13
ENDBRANCH   6   7
ENDBRANCH   5   6
ENDBRANCH   2   5
BRANCH   1  20
HETATM   20  C   UNL     1      39.810 -14.865   5.585  1.00  0.00     0.225 C 
BRANCH  20  21
HETATM   21  C   UNL     1      41.130 -15.580   5.287  1.00  0.00     0.239 C 
HETATM   22  N   UNL     1      40.966 -16.669   4.455  1.00  0.00    -0.323 N 
HETATM   23  H   UNL     1      40.007 -16.950   4.234  1.00  0.00     0.169 HD
HETATM   24  O   UNL     1      42.174 -15.205   5.812  1.00  0.00    -0.271 OA
BRANCH  22  25
HETATM   25  C   UNL     1      41.957 -17.525   3.924  1.00  0.00     0.069 A 
HETATM   26  C   UNL     1      42.806 -18.304   4.715  1.00  0.00     0.039 A 
HETATM   27  C   UNL     1      43.774 -19.131   4.128  1.00  0.00    -0.060 A 
HETATM   28  C   UNL     1      44.705 -19.933   4.989  1.00  0.00     0.048 C 
HETATM   29  C   UNL     1      43.901 -19.151   2.737  1.00  0.00     0.009 A 
HETATM   30  C   UNL     1      43.062 -18.374   1.935  1.00  0.00     0.039 A 
HETATM   31  C   UNL     1      42.091 -17.558   2.520  1.00  0.00     0.095 A 
BRANCH  31  32
HETATM   32  O   UNL     1      41.223 -16.748   1.827  1.00  0.00    -0.354 OA
HETATM   33  C   UNL     1      41.443 -16.600   0.430  1.00  0.00     0.210 C 
ENDBRANCH  31  32
ENDBRANCH  22  25
ENDBRANCH  20  21
ENDBRANCH   1  20
TORSDOF 8
ENDMDL
MODEL 8
REMARK VINA RESULT:      -8.7      3.702     10.598
REMARK  8 active torsions:
REMARK  status: ('A' for Active; 'I' for Inactive)
REMARK    1  A    between atoms: C_4  and  N_5 
REMARK       I    between atoms: N_5  and  C_6 
REMARK    2  A    between atoms: C_6  and  C_7 
REMARK    3  A    between atoms: C_7  and  N_8 
REMARK       I    between atoms: N_8  and  C_9 
REMARK    4  A    between atoms: C_9  and  C_10 
REMARK    5  A    between atoms: C_10  and  S_11 
REMARK    6  A    between atoms: S_11  and  C_12 
REMARK    7  A    between atoms: C_14  and  C_15 
REMARK    8  A    between atoms: C_27  and  O_28 
ROOT
HETATM    1  N   UNL     1      39.474 -12.288   7.320  1.00  0.00    -0.352 N 
HETATM    2  C   UNL     1      39.542 -12.506   5.956  1.00  0.00     0.227 C 
HETATM    3  O   UNL     1      39.328 -11.600   5.155  1.00  0.00    -0.273 OA
HETATM    4  H   UNL     1      39.879 -12.968   7.953  1.00  0.00     0.162 HD
ENDROOT
BRANCH   2   5
HETATM    5  C   UNL     1      39.884 -13.944   5.597  1.00  0.00     0.185 C 
BRANCH   5   6
HETATM    6  S   UNL     1      41.012 -14.046   4.179  1.00  0.00    -0.081 SA
BRANCH   6   7
HETATM    7  C   UNL     1      41.388 -15.721   4.224  1.00  0.00     0.185 A 
HETATM    8  N   UNL     1      42.340 -16.356   3.594  1.00  0.00    -0.201 NA
HETATM    9  C   UNL     1      42.187 -17.663   4.013  1.00  0.00     0.185 A 
HETATM   10  N   UNL     1      41.168 -17.835   4.879  1.00  0.00    -0.152 NA
HETATM   11  N   UNL     1      40.682 -16.586   4.989  1.00  0.00    -0.253 N 
HETATM   12  H   UNL     1      39.892 -16.399   5.594  1.00  0.00     0.191 HD
BRANCH   9  13
HETATM   13  C   UNL     1      43.055 -18.748   3.566  1.00  0.00     0.052 A 
HETATM   14  C   UNL     1      44.080 -19.250   4.376  1.00  0.00     0.130 A 
HETATM   15  F   UNL     1      44.313 -18.752   5.600  1.00  0.00    -0.205 F 
HETATM   16  C   UNL     1      44.903 -20.290   3.939  1.00  0.00     0.043 A 
HETATM   17  C   UNL     1      44.714 -20.848   2.677  1.00  0.00     0.003 A 
HETATM   18  C   UNL     1      43.701 -20.363   1.854  1.00  0.00     0.001 A 
HETATM   19  C   UNL     1      42.878 -19.322   2.295  1.00  0.00     0.018 A 
ENDBRANCH   9  13
ENDBRANCH   6   7
ENDBRANCH   5   6
ENDBRANCH   2   5
BRANCH   1  20
HETATM   20  C   UNL     1      39.178 -10.969   7.849  1.00  0.00     0.225 C 
BRANCH  20  21
HETATM   21  C   UNL     1      40.428 -10.338   8.464  1.00  0.00     0.239 C 
HETATM   22  N   UNL     1      41.038 -11.161   9.387  1.00  0.00    -0.323 N 
HETATM   23  H   UNL     1      40.546 -12.020   9.648  1.00  0.00     0.169 HD
HETATM   24  O   UNL     1      40.760  -9.194   8.164  1.00  0.00    -0.271 OA
BRANCH  22  25
HETATM   25  C   UNL     1      42.235 -10.940  10.106  1.00  0.00     0.069 A 
HETATM   26  C   UNL     1      43.506 -11.039   9.533  1.00  0.00     0.039 A 
HETATM   27  C   UNL     1      44.658 -10.812  10.301  1.00  0.00    -0.060 A 
HETATM   28  C   UNL     1      46.018 -10.960   9.684  1.00  0.00     0.048 C 
HETATM   29  C   UNL     1      44.524 -10.510  11.659  1.00  0.00     0.009 A 
HETATM   30  C   UNL     1      43.259 -10.413  12.244  1.00  0.00     0.039 A 
HETATM   31  C   UNL     1      42.112 -10.628  11.476  1.00  0.00     0.095 A 
BRANCH  31  32
HETATM   32  O   UNL     1      40.824 -10.568  11.953  1.00  0.00    -0.354 OA
HETATM   33  C   UNL     1      40.413 -11.589  12.853  1.00  0.00     0.210 C 
ENDBRANCH  31  32
ENDBRANCH  22  25
ENDBRANCH  20  21
ENDBRANCH   1  20
TORSDOF 8
ENDMDL
MODEL 9
REMARK VINA RESULT:      -8.5      2.051      2.832
REMARK  8 active torsions:
REMARK  status: ('A' for Active; 'I' for Inactive)
REMARK    1  A    between atoms: C_4  and  N_5 
REMARK       I    between atoms: N_5  and  C_6 
REMARK    2  A    between atoms: C_6  and  C_7 
REMARK    3  A    between atoms: C_7  and  N_8 
REMARK       I    between atoms: N_8  and  C_9 
REMARK    4  A    between atoms: C_9  and  C_10 
REMARK    5  A    between atoms: C_10  and  S_11 
REMARK    6  A    between atoms: S_11  and  C_12 
REMARK    7  A    between atoms: C_14  and  C_15 
REMARK    8  A    between atoms: C_27  and  O_28 
ROOT
HETATM    1  N   UNL     1      42.254 -14.729   6.328  1.00  0.00    -0.352 N 
HETATM    2  C   UNL     1      42.386 -13.616   5.517  1.00  0.00     0.227 C 
HETATM    3  O   UNL     1      43.455 -13.347   4.975  1.00  0.00    -0.273 OA
HETATM    4  H   UNL     1      41.327 -15.062   6.567  1.00  0.00     0.162 HD
ENDROOT
BRANCH   2   5
HETATM    5  C   UNL     1      41.105 -12.803   5.405  1.00  0.00     0.185 C 
BRANCH   5   6
HETATM    6  S   UNL     1      41.407 -11.023   5.584  1.00  0.00    -0.081 SA
BRANCH   6   7
HETATM    7  C   UNL     1      41.290 -10.876   7.291  1.00  0.00     0.185 A 
HETATM    8  N   UNL     1      42.157 -10.363   8.123  1.00  0.00    -0.201 NA
HETATM    9  C   UNL     1      41.538 -10.489   9.351  1.00  0.00     0.185 A 
HETATM   10  N   UNL     1      40.321 -11.065   9.283  1.00  0.00    -0.152 NA
HETATM   11  N   UNL     1      40.195 -11.299   7.966  1.00  0.00    -0.253 N 
HETATM   12  H   UNL     1      39.356 -11.734   7.603  1.00  0.00     0.191 HD
BRANCH   9  13
HETATM   13  C   UNL     1      42.144 -10.031  10.597  1.00  0.00     0.052 A 
HETATM   14  C   UNL     1      43.026 -10.838  11.326  1.00  0.00     0.130 A 
HETATM   15  F   UNL     1      43.350 -12.072  10.912  1.00  0.00    -0.205 F 
HETATM   16  C   UNL     1      43.602 -10.389  12.516  1.00  0.00     0.043 A 
HETATM   17  C   UNL     1      43.303  -9.117  13.001  1.00  0.00     0.003 A 
HETATM   18  C   UNL     1      42.427  -8.298  12.292  1.00  0.00     0.001 A 
HETATM   19  C   UNL     1      41.853  -8.751  11.100  1.00  0.00     0.018 A 
ENDBRANCH   9  13
ENDBRANCH   6   7
ENDBRANCH   5   6
ENDBRANCH   2   5
BRANCH   1  20
HETATM   20  C   UNL     1      43.370 -15.633   6.537  1.00  0.00     0.225 C 
BRANCH  20  21
HETATM   21  C   UNL     1      43.078 -17.005   5.925  1.00  0.00     0.239 C 
HETATM   22  N   UNL     1      44.142 -17.497   5.197  1.00  0.00    -0.323 N 
HETATM   23  H   UNL     1      44.935 -16.868   5.043  1.00  0.00     0.169 HD
HETATM   24  O   UNL     1      41.974 -17.525   6.059  1.00  0.00    -0.271 OA
BRANCH  22  25
HETATM   25  C   UNL     1      44.258 -18.745   4.545  1.00  0.00     0.069 A 
HETATM   26  C   UNL     1      44.613 -19.926   5.202  1.00  0.00     0.039 A 
HETATM   27  C   UNL     1      44.716 -21.135   4.498  1.00  0.00    -0.060 A 
HETATM   28  C   UNL     1      45.136 -22.389   5.208  1.00  0.00     0.048 C 
HETATM   29  C   UNL     1      44.485 -21.144   3.121  1.00  0.00     0.009 A 
HETATM   30  C   UNL     1      44.134 -19.968   2.451  1.00  0.00     0.039 A 
HETATM   31  C   UNL     1      44.021 -18.768   3.155  1.00  0.00     0.095 A 
BRANCH  31  32
HETATM   32  O   UNL     1      43.694 -17.556   2.594  1.00  0.00    -0.354 OA
HETATM   33  C   UNL     1      43.971 -17.381   1.211  1.00  0.00     0.210 C 
ENDBRANCH  31  32
ENDBRANCH  22  25
ENDBRANCH  20  21
ENDBRANCH   1  20
TORSDOF 8
ENDMDL
MODEL 10
REMARK VINA RESULT:      -8.5      5.968      9.790
REMARK  8 active torsions:
REMARK  status: ('A' for Active; 'I' for Inactive)
REMARK    1  A    between atoms: C_4  and  N_5 
REMARK       I    between atoms: N_5  and  C_6 
REMARK    2  A    between atoms: C_6  and  C_7 
REMARK    3  A    between atoms: C_7  and  N_8 
REMARK       I    between atoms: N_8  and  C_9 
REMARK    4  A    between atoms: C_9  and  C_10 
REMARK    5  A    between atoms: C_10  and  S_11 
REMARK    6  A    between atoms: S_11  and  C_12 
REMARK    7  A    between atoms: C_14  and  C_15 
REMARK    8  A    between atoms: C_27  and  O_28 
ROOT
HETATM    1  N   UNL     1      39.911 -13.286   3.018  1.00  0.00    -0.352 N 
HETATM    2  C   UNL     1      40.879 -12.495   3.609  1.00  0.00     0.227 C 
HETATM    3  O   UNL     1      40.921 -11.284   3.408  1.00  0.00    -0.273 OA
HETATM    4  H   UNL     1      39.747 -14.221   3.375  1.00  0.00     0.162 HD
ENDROOT
BRANCH   2   5
HETATM    5  C   UNL     1      41.845 -13.284   4.480  1.00  0.00     0.185 C 
BRANCH   5   6
HETATM    6  S   UNL     1      43.286 -13.870   3.546  1.00  0.00    -0.081 SA
BRANCH   6   7
HETATM    7  C   UNL     1      42.972 -15.558   3.551  1.00  0.00     0.185 A 
HETATM    8  N   UNL     1      43.765 -16.533   3.195  1.00  0.00    -0.201 NA
HETATM    9  C   UNL     1      43.007 -17.664   3.422  1.00  0.00     0.185 A 
HETATM   10  N   UNL     1      41.777 -17.400   3.906  1.00  0.00    -0.152 NA
HETATM   11  N   UNL     1      41.786 -16.057   3.974  1.00  0.00    -0.253 N 
HETATM   12  H   UNL     1      40.974 -15.559   4.315  1.00  0.00     0.191 HD
BRANCH   9  13
HETATM   13  C   UNL     1      43.500 -19.015   3.171  1.00  0.00     0.052 A 
HETATM   14  C   UNL     1      44.373 -19.655   4.058  1.00  0.00     0.130 A 
HETATM   15  F   UNL     1      44.799 -19.052   5.179  1.00  0.00    -0.205 F 
HETATM   16  C   UNL     1      44.837 -20.949   3.810  1.00  0.00     0.043 A 
HETATM   17  C   UNL     1      44.433 -21.628   2.662  1.00  0.00     0.003 A 
HETATM   18  C   UNL     1      43.565 -21.009   1.765  1.00  0.00     0.001 A 
HETATM   19  C   UNL     1      43.103 -19.713   2.017  1.00  0.00     0.018 A 
ENDBRANCH   9  13
ENDBRANCH   6   7
ENDBRANCH   5   6
ENDBRANCH   2   5
BRANCH   1  20
HETATM   20  C   UNL     1      38.892 -12.703   2.166  1.00  0.00     0.225 C 
BRANCH  20  21
HETATM   21  C   UNL     1      38.543 -13.646   1.013  1.00  0.00     0.239 C 
HETATM   22  N   UNL     1      39.281 -13.388  -0.124  1.00  0.00    -0.323 N 
HETATM   23  H   UNL     1      39.870 -12.551  -0.121  1.00  0.00     0.169 HD
HETATM   24  O   UNL     1      37.651 -14.480   1.138  1.00  0.00    -0.271 OA
BRANCH  22  25
HETATM   25  C   UNL     1      39.274 -14.085  -1.353  1.00  0.00     0.069 A 
HETATM   26  C   UNL     1      38.201 -14.053  -2.250  1.00  0.00     0.039 A 
HETATM   27  C   UNL     1      38.251 -14.771  -3.453  1.00  0.00    -0.060 A 
HETATM   28  C   UNL     1      37.078 -14.759  -4.388  1.00  0.00     0.048 C 
HETATM   29  C   UNL     1      39.378 -15.545  -3.740  1.00  0.00     0.009 A 
HETATM   30  C   UNL     1      40.455 -15.590  -2.850  1.00  0.00     0.039 A 
HETATM   31  C   UNL     1      40.409 -14.866  -1.656  1.00  0.00     0.095 A 
BRANCH  31  32
HETATM   32  O   UNL     1      41.405 -14.848  -0.709  1.00  0.00    -0.354 OA
HETATM   33  C   UNL     1      41.593 -16.028   0.062  1.00  0.00     0.210 C 
ENDBRANCH  31  32
ENDBRANCH  22  25
ENDBRANCH  20  21
ENDBRANCH   1  20
TORSDOF 8
ENDMDL
