MODEL 1
REMARK VINA RESULT:      -9.4      0.000      0.000
REMARK  8 active torsions:
REMARK  status: ('A' for Active; 'I' for Inactive)
REMARK    1  A    between atoms: C_6  and  N_7 
REMARK       I    between atoms: N_7  and  C_8 
REMARK    2  A    between atoms: C_8  and  C_9 
REMARK    3  A    between atoms: C_9  and  S_10 
REMARK    4  A    between atoms: S_10  and  C_11 
REMARK    5  A    between atoms: N_12  and  C_13 
REMARK    6  A    between atoms: C_13  and  C_14 
REMARK    7  A    between atoms: C_25  and  C_26 
REMARK       I    between atoms: C_26  and  N_27 
REMARK    8  A    between atoms: C_30  and  C_31 
REMARK       I    between atoms: C_31  and  N_32 
ROOT
HETATM    1  C   UNL     1      40.926 -12.761   4.725  1.00  0.00     0.172 C 
HETATM    2  N   UNL     1      39.790 -12.190   5.262  1.00  0.00    -0.286 N 
HETATM    3  C   UNL     1      38.948 -11.424   4.461  1.00  0.00     0.262 C 
HETATM    4  O   UNL     1      37.992 -10.777   4.882  1.00  0.00    -0.267 OA
HETATM    5  C   UNL     1      39.239 -11.418   3.018  1.00  0.00     0.061 A 
HETATM    6  C   UNL     1      40.379 -12.093   2.584  1.00  0.00     0.076 A 
HETATM    7  C   UNL     1      38.370 -10.791   2.115  1.00  0.00     0.020 A 
HETATM    8  C   UNL     1      38.629 -10.869   0.749  1.00  0.00     0.018 A 
HETATM    9  C   UNL     1      39.743 -11.585   0.304  1.00  0.00     0.034 A 
HETATM   10  C   UNL     1      40.633 -12.171   1.213  1.00  0.00     0.050 A 
HETATM   11  N   UNL     1      41.263 -12.712   3.477  1.00  0.00    -0.224 NA
ENDROOT
BRANCH   1  12
HETATM   12  S   UNL     1      42.068 -13.575   5.770  1.00  0.00    -0.082 SA
BRANCH  12  13
HETATM   13  C   UNL     1      43.117 -14.304   4.481  1.00  0.00     0.185 C 
BRANCH  13  14
HETATM   14  C   UNL     1      42.858 -15.781   4.227  1.00  0.00     0.231 C 
HETATM   15  N   UNL     1      43.834 -16.440   3.504  1.00  0.00    -0.326 N 
HETATM   16  H   UNL     1      44.574 -15.861   3.111  1.00  0.00     0.169 HD
HETATM   17  O   UNL     1      41.863 -16.304   4.728  1.00  0.00    -0.272 OA
BRANCH  15  18
HETATM   18  C   UNL     1      43.878 -17.814   3.179  1.00  0.00     0.036 A 
HETATM   19  C   UNL     1      44.353 -18.807   4.038  1.00  0.00     0.053 A 
HETATM   20  C   UNL     1      44.363 -20.150   3.639  1.00  0.00     0.042 A 
HETATM   21  C   UNL     1      43.880 -20.531   2.379  1.00  0.00    -0.040 A 
HETATM   22 CL   UNL     1      45.002 -21.314   4.749  1.00  0.00    -0.084 Cl
HETATM   23  C   UNL     1      43.891 -21.958   1.910  1.00  0.00     0.050 C 
HETATM   24  C   UNL     1      43.424 -19.527   1.513  1.00  0.00     0.011 A 
HETATM   25  C   UNL     1      43.424 -18.185   1.910  1.00  0.00     0.030 A 
ENDBRANCH  15  18
ENDBRANCH  13  14
ENDBRANCH  12  13
ENDBRANCH   1  12
BRANCH   2  26
HETATM   26  C   UNL     1      39.351 -12.358   6.650  1.00  0.00     0.199 C 
BRANCH  26  27
HETATM   27  C   UNL     1      39.745 -11.152   7.431  1.00  0.00     0.070 A 
HETATM   28  O   UNL     1      38.775 -10.554   8.180  1.00  0.00    -0.325 OA
HETATM   29  C   UNL     1      39.345  -9.475   8.776  1.00  0.00     0.142 A 
HETATM   30  C   UNL     1      40.669  -9.370   8.422  1.00  0.00     0.027 A 
HETATM   31  C   UNL     1      40.931 -10.455   7.552  1.00  0.00     0.036 A 
ENDBRANCH  26  27
ENDBRANCH   2  26
BRANCH   9  32
HETATM   32  C   UNL     1      39.992 -11.679  -1.149  1.00  0.00     0.253 C 
HETATM   33  N   UNL     1      40.271 -12.931  -1.704  1.00  0.00    -0.348 N 
HETATM   34  C   UNL     1      40.454 -12.980  -3.153  1.00  0.00     0.127 C 
HETATM   35  C   UNL     1      39.847 -14.191  -1.092  1.00  0.00     0.127 C 
HETATM   36  C   UNL     1      41.393 -14.111  -3.567  1.00  0.00     0.034 C 
HETATM   37  C   UNL     1      41.015 -15.462  -2.948  1.00  0.00     0.081 C 
HETATM   38  C   UNL     1      40.809 -15.323  -1.435  1.00  0.00     0.034 C 
HETATM   39  O   UNL     1      39.949 -10.632  -1.788  1.00  0.00    -0.267 OA
BRANCH  37  40
HETATM   40  C   UNL     1      39.798 -16.081  -3.624  1.00  0.00     0.219 C 
HETATM   41  N   UNL     1      39.502 -17.353  -3.228  1.00  0.00    -0.370 N 
HETATM   42  H   UNL     1      40.171 -17.936  -2.745  1.00  0.00     0.159 HD
HETATM   43  H   UNL     1      38.749 -17.815  -3.725  1.00  0.00     0.159 HD
HETATM   44  O   UNL     1      39.104 -15.517  -4.460  1.00  0.00    -0.273 OA
ENDBRANCH  37  40
ENDBRANCH   9  32
TORSDOF 8
ENDMDL
MODEL 2
REMARK VINA RESULT:      -9.3      3.045      8.920
REMARK  8 active torsions:
REMARK  status: ('A' for Active; 'I' for Inactive)
REMARK    1  A    between atoms: C_6  and  N_7 
REMARK       I    between atoms: N_7  and  C_8 
REMARK    2  A    between atoms: C_8  and  C_9 
REMARK    3  A    between atoms: C_9  and  S_10 
REMARK    4  A    between atoms: S_10  and  C_11 
REMARK    5  A    between atoms: N_12  and  C_13 
REMARK    6  A    between atoms: C_13  and  C_14 
REMARK    7  A    between atoms: C_25  and  C_26 
REMARK       I    between atoms: C_26  and  N_27 
REMARK    8  A    between atoms: C_30  and  C_31 
REMARK       I    between atoms: C_31  and  N_32 
ROOT
HETATM    1  C   UNL     1      40.112 -13.022   4.994  1.00  0.00     0.172 C 
HETATM    2  N   UNL     1      40.175 -11.972   4.100  1.00  0.00    -0.286 N 
HETATM    3  C   UNL     1      39.823 -10.688   4.506  1.00  0.00     0.262 C 
HETATM    4  O   UNL     1      39.726  -9.725   3.748  1.00  0.00    -0.267 OA
HETATM    5  C   UNL     1      39.568 -10.498   5.942  1.00  0.00     0.061 A 
HETATM    6  C   UNL     1      39.603 -11.626   6.762  1.00  0.00     0.076 A 
HETATM    7  C   UNL     1      39.343  -9.219   6.467  1.00  0.00     0.020 A 
HETATM    8  C   UNL     1      39.183  -9.060   7.842  1.00  0.00     0.018 A 
HETATM    9  C   UNL     1      39.265 -10.180   8.673  1.00  0.00     0.034 A 
HETATM   10  C   UNL     1      39.445 -11.462   8.139  1.00  0.00     0.050 A 
HETATM   11  N   UNL     1      39.813 -12.913   6.248  1.00  0.00    -0.224 NA
ENDROOT
BRANCH   1  12
HETATM   12  S   UNL     1      40.387 -14.656   4.438  1.00  0.00    -0.082 SA
BRANCH  12  13
HETATM   13  C   UNL     1      42.159 -14.760   4.818  1.00  0.00     0.185 C 
BRANCH  13  14
HETATM   14  C   UNL     1      42.900 -15.844   4.050  1.00  0.00     0.231 C 
HETATM   15  N   UNL     1      42.626 -17.141   4.439  1.00  0.00    -0.326 N 
HETATM   16  H   UNL     1      42.049 -17.252   5.270  1.00  0.00     0.169 HD
HETATM   17  O   UNL     1      43.620 -15.516   3.108  1.00  0.00    -0.272 OA
BRANCH  15  18
HETATM   18  C   UNL     1      43.123 -18.331   3.862  1.00  0.00     0.036 A 
HETATM   19  C   UNL     1      43.894 -19.272   4.549  1.00  0.00     0.053 A 
HETATM   20  C   UNL     1      44.349 -20.428   3.904  1.00  0.00     0.042 A 
HETATM   21  C   UNL     1      44.027 -20.679   2.562  1.00  0.00    -0.040 A 
HETATM   22 CL   UNL     1      45.328 -21.526   4.815  1.00  0.00    -0.084 Cl
HETATM   23  C   UNL     1      44.512 -21.899   1.832  1.00  0.00     0.050 C 
HETATM   24  C   UNL     1      43.271 -19.721   1.872  1.00  0.00     0.011 A 
HETATM   25  C   UNL     1      42.826 -18.561   2.516  1.00  0.00     0.030 A 
ENDBRANCH  15  18
ENDBRANCH  13  14
ENDBRANCH  12  13
ENDBRANCH   1  12
BRANCH   2  26
HETATM   26  C   UNL     1      40.638 -12.087   2.714  1.00  0.00     0.199 C 
BRANCH  26  27
HETATM   27  C   UNL     1      39.528 -12.623   1.877  1.00  0.00     0.070 A 
HETATM   28  O   UNL     1      39.846 -13.589   0.970  1.00  0.00    -0.325 OA
HETATM   29  C   UNL     1      38.702 -13.905   0.310  1.00  0.00     0.142 A 
HETATM   30  C   UNL     1      37.650 -13.155   0.781  1.00  0.00     0.027 A 
HETATM   31  C   UNL     1      38.182 -12.325   1.796  1.00  0.00     0.036 A 
ENDBRANCH  26  27
ENDBRANCH   2  26
BRANCH   9  32
HETATM   32  C   UNL     1      39.116  -9.993  10.130  1.00  0.00     0.253 C 
HETATM   33  N   UNL     1      40.181 -10.346  10.965  1.00  0.00    -0.348 N 
HETATM   34  C   UNL     1      40.006 -10.089  12.394  1.00  0.00     0.127 C 
HETATM   35  C   UNL     1      41.571 -10.397  10.512  1.00  0.00     0.127 C 
HETATM   36  C   UNL     1      40.804 -11.073  13.247  1.00  0.00     0.034 C 
HETATM   37  C   UNL     1      42.271 -11.189  12.817  1.00  0.00     0.081 C 
HETATM   38  C   UNL     1      42.373 -11.424  11.305  1.00  0.00     0.034 C 
HETATM   39  O   UNL     1      38.045  -9.542  10.526  1.00  0.00    -0.267 OA
BRANCH  37  40
HETATM   40  C   UNL     1      43.092  -9.980  13.251  1.00  0.00     0.219 C 
HETATM   41  N   UNL     1      42.822  -9.519  14.507  1.00  0.00    -0.370 N 
HETATM   42  H   UNL     1      41.978  -9.771  15.002  1.00  0.00     0.159 HD
HETATM   43  H   UNL     1      43.293  -8.667  14.783  1.00  0.00     0.159 HD
HETATM   44  O   UNL     1      43.942  -9.433  12.561  1.00  0.00    -0.273 OA
ENDBRANCH  37  40
ENDBRANCH   9  32
TORSDOF 8
ENDMDL
MODEL 3
REMARK VINA RESULT:      -9.2      2.478      7.994
REMARK  8 active torsions:
REMARK  status: ('A' for Active; 'I' for Inactive)
REMARK    1  A    between atoms: C_6  and  N_7 
REMARK       I    between atoms: N_7  and  C_8 
REMARK    2  A    between atoms: C_8  and  C_9 
REMARK    3  A    between atoms: C_9  and  S_10 
REMARK    4  A    between atoms: S_10  and  C_11 
REMARK    5  A    between atoms: N_12  and  C_13 
REMARK    6  A    between atoms: C_13  and  C_14 
REMARK    7  A    between atoms: C_25  and  C_26 
REMARK       I    between atoms: C_26  and  N_27 
REMARK    8  A    between atoms: C_30  and  C_31 
REMARK       I    between atoms: C_31  and  N_32 
ROOT
HETATM    1  C   UNL     1      39.944 -14.187   2.657  1.00  0.00     0.172 C 
HETATM    2  N   UNL     1      38.997 -13.598   1.844  1.00  0.00    -0.286 N 
HETATM    3  C   UNL     1      38.448 -12.367   2.190  1.00  0.00     0.262 C 
HETATM    4  O   UNL     1      37.514 -11.834   1.596  1.00  0.00    -0.267 OA
HETATM    5  C   UNL     1      39.054 -11.675   3.339  1.00  0.00     0.061 A 
HETATM    6  C   UNL     1      40.056 -12.343   4.043  1.00  0.00     0.076 A 
HETATM    7  C   UNL     1      38.665 -10.373   3.678  1.00  0.00     0.020 A 
HETATM    8  C   UNL     1      39.311  -9.714   4.721  1.00  0.00     0.018 A 
HETATM    9  C   UNL     1      40.348 -10.359   5.399  1.00  0.00     0.034 A 
HETATM   10  C   UNL     1      40.703 -11.678   5.085  1.00  0.00     0.050 A 
HETATM   11  N   UNL     1      40.446 -13.650   3.723  1.00  0.00    -0.224 NA
ENDROOT
BRANCH   1  12
HETATM   12  S   UNL     1      40.502 -15.807   2.311  1.00  0.00    -0.082 SA
BRANCH  12  13
HETATM   13  C   UNL     1      42.254 -15.421   2.040  1.00  0.00     0.185 C 
BRANCH  13  14
HETATM   14  C   UNL     1      43.198 -16.583   2.303  1.00  0.00     0.231 C 
HETATM   15  N   UNL     1      42.736 -17.536   3.191  1.00  0.00    -0.326 N 
HETATM   16  H   UNL     1      41.865 -17.321   3.673  1.00  0.00     0.169 HD
HETATM   17  O   UNL     1      44.254 -16.645   1.673  1.00  0.00    -0.272 OA
BRANCH  15  18
HETATM   18  C   UNL     1      43.375 -18.738   3.567  1.00  0.00     0.036 A 
HETATM   19  C   UNL     1      43.696 -19.766   2.678  1.00  0.00     0.053 A 
HETATM   20  C   UNL     1      44.331 -20.930   3.131  1.00  0.00     0.042 A 
HETATM   21  C   UNL     1      44.677 -21.081   4.482  1.00  0.00    -0.040 A 
HETATM   22 CL   UNL     1      44.661 -22.171   1.972  1.00  0.00    -0.084 Cl
HETATM   23  C   UNL     1      45.343 -22.321   5.008  1.00  0.00     0.050 C 
HETATM   24  C   UNL     1      44.335 -20.055   5.373  1.00  0.00     0.011 A 
HETATM   25  C   UNL     1      43.690 -18.898   4.919  1.00  0.00     0.030 A 
ENDBRANCH  15  18
ENDBRANCH  13  14
ENDBRANCH  12  13
ENDBRANCH   1  12
BRANCH   2  26
HETATM   26  C   UNL     1      38.529 -14.158   0.573  1.00  0.00     0.199 C 
BRANCH  26  27
HETATM   27  C   UNL     1      39.453 -13.727  -0.514  1.00  0.00     0.070 A 
HETATM   28  O   UNL     1      40.382 -14.632  -0.933  1.00  0.00    -0.325 OA
HETATM   29  C   UNL     1      41.122 -14.023  -1.896  1.00  0.00     0.142 A 
HETATM   30  C   UNL     1      40.680 -12.738  -2.104  1.00  0.00     0.027 A 
HETATM   31  C   UNL     1      39.599 -12.544  -1.211  1.00  0.00     0.036 A 
ENDBRANCH  26  27
ENDBRANCH   2  26
BRANCH   9  32
HETATM   32  C   UNL     1      41.040  -9.640   6.487  1.00  0.00     0.253 C 
HETATM   33  N   UNL     1      40.602  -9.828   7.802  1.00  0.00    -0.348 N 
HETATM   34  C   UNL     1      41.355  -9.139   8.849  1.00  0.00     0.127 C 
HETATM   35  C   UNL     1      39.884 -11.025   8.243  1.00  0.00     0.127 C 
HETATM   36  C   UNL     1      40.477  -8.814  10.055  1.00  0.00     0.034 C 
HETATM   37  C   UNL     1      39.682 -10.022  10.563  1.00  0.00     0.081 C 
HETATM   38  C   UNL     1      38.948 -10.710   9.405  1.00  0.00     0.034 C 
HETATM   39  O   UNL     1      41.964  -8.900   6.164  1.00  0.00    -0.267 OA
BRANCH  37  40
HETATM   40  C   UNL     1      40.559 -11.004  11.330  1.00  0.00     0.219 C 
HETATM   41  N   UNL     1      39.883 -11.984  11.997  1.00  0.00    -0.370 N 
HETATM   42  H   UNL     1      38.895 -11.916  12.196  1.00  0.00     0.159 HD
HETATM   43  H   UNL     1      40.440 -12.596  12.582  1.00  0.00     0.159 HD
HETATM   44  O   UNL     1      41.782 -10.959  11.371  1.00  0.00    -0.273 OA
ENDBRANCH  37  40
ENDBRANCH   9  32
TORSDOF 8
ENDMDL
MODEL 4
REMARK VINA RESULT:      -9.2      3.889      7.797
REMARK  8 active torsions:
REMARK  status: ('A' for Active; 'I' for Inactive)
REMARK    1  A    between atoms: C_6  and  N_7 
REMARK       I    between atoms: N_7  and  C_8 
REMARK    2  A    between atoms: C_8  and  C_9 
REMARK    3  A    between atoms: C_9  and  S_10 
REMARK    4  A    between atoms: S_10  and  C_11 
REMARK    5  A    between atoms: N_12  and  C_13 
REMARK    6  A    between atoms: C_13  and  C_14 
REMARK    7  A    between atoms: C_25  and  C_26 
REMARK       I    between atoms: C_26  and  N_27 
REMARK    8  A    between atoms: C_30  and  C_31 
REMARK       I    between atoms: C_31  and  N_32 
ROOT
HETATM    1  C   UNL     1      43.377 -15.817   5.975  1.00  0.00     0.172 C 
HETATM    2  N   UNL     1      42.672 -16.996   5.839  1.00  0.00    -0.286 N 
HETATM    3  C   UNL     1      41.782 -17.159   4.782  1.00  0.00     0.262 C 
HETATM    4  O   UNL     1      41.023 -18.118   4.658  1.00  0.00    -0.267 OA
HETATM    5  C   UNL     1      41.779 -16.106   3.755  1.00  0.00     0.061 A 
HETATM    6  C   UNL     1      42.589 -14.991   3.967  1.00  0.00     0.076 A 
HETATM    7  C   UNL     1      41.021 -16.248   2.585  1.00  0.00     0.020 A 
HETATM    8  C   UNL     1      41.099 -15.272   1.594  1.00  0.00     0.018 A 
HETATM    9  C   UNL     1      41.946 -14.176   1.780  1.00  0.00     0.034 A 
HETATM   10  C   UNL     1      42.667 -14.017   2.971  1.00  0.00     0.050 A 
HETATM   11  N   UNL     1      43.342 -14.830   5.137  1.00  0.00    -0.224 NA
ENDROOT
BRANCH   1  12
HETATM   12  S   UNL     1      44.360 -15.548   7.395  1.00  0.00    -0.082 SA
BRANCH  12  13
HETATM   13  C   UNL     1      45.157 -14.006   6.866  1.00  0.00     0.185 C 
BRANCH  13  14
HETATM   14  C   UNL     1      45.171 -12.916   7.925  1.00  0.00     0.231 C 
HETATM   15  N   UNL     1      43.972 -12.706   8.579  1.00  0.00    -0.326 N 
HETATM   16  H   UNL     1      43.166 -13.213   8.219  1.00  0.00     0.169 HD
HETATM   17  O   UNL     1      46.235 -12.353   8.182  1.00  0.00    -0.272 OA
BRANCH  15  18
HETATM   18  C   UNL     1      43.721 -11.806   9.639  1.00  0.00     0.036 A 
HETATM   19  C   UNL     1      42.832 -10.732   9.560  1.00  0.00     0.053 A 
HETATM   20  C   UNL     1      42.638  -9.883  10.657  1.00  0.00     0.042 A 
HETATM   21  C   UNL     1      43.315 -10.103  11.866  1.00  0.00    -0.040 A 
HETATM   22 CL   UNL     1      41.546  -8.555  10.465  1.00  0.00    -0.084 Cl
HETATM   23  C   UNL     1      43.146  -9.205  13.058  1.00  0.00     0.050 C 
HETATM   24  C   UNL     1      44.221 -11.171  11.933  1.00  0.00     0.011 A 
HETATM   25  C   UNL     1      44.421 -12.010  10.831  1.00  0.00     0.030 A 
ENDBRANCH  15  18
ENDBRANCH  13  14
ENDBRANCH  12  13
ENDBRANCH   1  12
BRANCH   2  26
HETATM   26  C   UNL     1      42.815 -18.155   6.724  1.00  0.00     0.199 C 
BRANCH  26  27
HETATM   27  C   UNL     1      43.657 -19.180   6.044  1.00  0.00     0.070 A 
HETATM   28  O   UNL     1      43.590 -20.455   6.524  1.00  0.00    -0.325 OA
HETATM   29  C   UNL     1      44.448 -21.202   5.783  1.00  0.00     0.142 A 
HETATM   30  C   UNL     1      45.065 -20.427   4.831  1.00  0.00     0.027 A 
HETATM   31  C   UNL     1      44.554 -19.117   4.997  1.00  0.00     0.036 A 
ENDBRANCH  26  27
ENDBRANCH   2  26
BRANCH   9  32
HETATM   32  C   UNL     1      42.036 -13.161   0.712  1.00  0.00     0.253 C 
HETATM   33  N   UNL     1      41.645 -13.512  -0.584  1.00  0.00    -0.348 N 
HETATM   34  C   UNL     1      41.698 -12.456  -1.593  1.00  0.00     0.127 C 
HETATM   35  C   UNL     1      40.701 -14.593  -0.870  1.00  0.00     0.127 C 
HETATM   36  C   UNL     1      41.950 -13.022  -2.990  1.00  0.00     0.034 C 
HETATM   37  C   UNL     1      41.004 -14.172  -3.352  1.00  0.00     0.081 C 
HETATM   38  C   UNL     1      40.977 -15.220  -2.233  1.00  0.00     0.034 C 
HETATM   39  O   UNL     1      42.466 -12.056   1.030  1.00  0.00    -0.267 OA
BRANCH  37  40
HETATM   40  C   UNL     1      39.603 -13.677  -3.687  1.00  0.00     0.219 C 
HETATM   41  N   UNL     1      38.683 -14.658  -3.921  1.00  0.00    -0.370 N 
HETATM   42  H   UNL     1      38.953 -15.610  -4.124  1.00  0.00     0.159 HD
HETATM   43  H   UNL     1      37.768 -14.352  -4.229  1.00  0.00     0.159 HD
HETATM   44  O   UNL     1      39.278 -12.498  -3.751  1.00  0.00    -0.273 OA
ENDBRANCH  37  40
ENDBRANCH   9  32
TORSDOF 8
ENDMDL
MODEL 5
REMARK VINA RESULT:      -9.2      3.280      6.957
REMARK  8 active torsions:
REMARK  status: ('A' for Active; 'I' for Inactive)
REMARK    1  A    between atoms: C_6  and  N_7 
REMARK       I    between atoms: N_7  and  C_8 
REMARK    2  A    between atoms: C_8  and  C_9 
REMARK    3  A    between atoms: C_9  and  S_10 
REMARK    4  A    between atoms: S_10  and  C_11 
REMARK    5  A    between atoms: N_12  and  C_13 
REMARK    6  A    between atoms: C_13  and  C_14 
REMARK    7  A    between atoms: C_25  and  C_26 
REMARK       I    between atoms: C_26  and  N_27 
REMARK    8  A    between atoms: C_30  and  C_31 
REMARK       I    between atoms: C_31  and  N_32 
ROOT
HETATM    1  C   UNL     1      40.164 -14.127   4.194  1.00  0.00     0.172 C 
HETATM    2  N   UNL     1      40.735 -15.278   4.697  1.00  0.00    -0.286 N 
HETATM    3  C   UNL     1      41.091 -16.314   3.837  1.00  0.00     0.262 C 
HETATM    4  O   UNL     1      41.483 -17.417   4.209  1.00  0.00    -0.267 OA
HETATM    5  C   UNL     1      40.994 -16.035   2.396  1.00  0.00     0.061 A 
HETATM    6  C   UNL     1      40.467 -14.804   2.007  1.00  0.00     0.076 A 
HETATM    7  C   UNL     1      41.461 -16.962   1.454  1.00  0.00     0.020 A 
HETATM    8  C   UNL     1      41.429 -16.638   0.100  1.00  0.00     0.018 A 
HETATM    9  C   UNL     1      40.946 -15.387  -0.293  1.00  0.00     0.034 A 
HETATM   10  C   UNL     1      40.439 -14.483   0.649  1.00  0.00     0.050 A 
HETATM   11  N   UNL     1      39.985 -13.874   2.937  1.00  0.00    -0.224 NA
ENDROOT
BRANCH   1  12
HETATM   12  S   UNL     1      39.560 -12.905   5.289  1.00  0.00    -0.082 SA
BRANCH  12  13
HETATM   13  C   UNL     1      40.712 -11.574   4.845  1.00  0.00     0.185 C 
BRANCH  13  14
HETATM   14  C   UNL     1      41.274 -10.812   6.035  1.00  0.00     0.231 C 
HETATM   15  N   UNL     1      41.490 -11.563   7.174  1.00  0.00    -0.326 N 
HETATM   16  H   UNL     1      41.151 -12.523   7.154  1.00  0.00     0.169 HD
HETATM   17  O   UNL     1      41.564  -9.624   5.895  1.00  0.00    -0.272 OA
BRANCH  15  18
HETATM   18  C   UNL     1      42.055 -11.127   8.393  1.00  0.00     0.036 A 
HETATM   19  C   UNL     1      43.405 -11.263   8.723  1.00  0.00     0.053 A 
HETATM   20  C   UNL     1      43.888 -10.803   9.955  1.00  0.00     0.042 A 
HETATM   21  C   UNL     1      43.034 -10.180  10.876  1.00  0.00    -0.040 A 
HETATM   22 CL   UNL     1      45.566 -11.043  10.302  1.00  0.00    -0.084 Cl
HETATM   23  C   UNL     1      43.512  -9.690  12.213  1.00  0.00     0.050 C 
HETATM   24  C   UNL     1      41.676 -10.064  10.548  1.00  0.00     0.011 A 
HETATM   25  C   UNL     1      41.194 -10.534   9.320  1.00  0.00     0.030 A 
ENDBRANCH  15  18
ENDBRANCH  13  14
ENDBRANCH  12  13
ENDBRANCH   1  12
BRANCH   2  26
HETATM   26  C   UNL     1      41.049 -15.501   6.110  1.00  0.00     0.199 C 
BRANCH  26  27
HETATM   27  C   UNL     1      42.495 -15.217   6.334  1.00  0.00     0.070 A 
HETATM   28  O   UNL     1      42.937 -13.966   6.020  1.00  0.00    -0.325 OA
HETATM   29  C   UNL     1      44.270 -13.942   6.274  1.00  0.00     0.142 A 
HETATM   30  C   UNL     1      44.693 -15.160   6.750  1.00  0.00     0.027 A 
HETATM   31  C   UNL     1      43.546 -15.987   6.791  1.00  0.00     0.036 A 
ENDBRANCH  26  27
ENDBRANCH   2  26
BRANCH   9  32
HETATM   32  C   UNL     1      40.940 -15.049  -1.730  1.00  0.00     0.253 C 
HETATM   33  N   UNL     1      41.017 -13.705  -2.105  1.00  0.00    -0.348 N 
HETATM   34  C   UNL     1      41.064 -13.425  -3.539  1.00  0.00     0.127 C 
HETATM   35  C   UNL     1      41.603 -12.669  -1.254  1.00  0.00     0.127 C 
HETATM   36  C   UNL     1      40.458 -12.063  -3.870  1.00  0.00     0.034 C 
HETATM   37  C   UNL     1      41.018 -10.929  -3.003  1.00  0.00     0.081 C 
HETATM   38  C   UNL     1      40.964 -11.309  -1.518  1.00  0.00     0.034 C 
HETATM   39  O   UNL     1      40.854 -15.985  -2.520  1.00  0.00    -0.267 OA
BRANCH  37  40
HETATM   40  C   UNL     1      42.425 -10.526  -3.426  1.00  0.00     0.219 C 
HETATM   41  N   UNL     1      42.698 -10.688  -4.754  1.00  0.00    -0.370 N 
HETATM   42  H   UNL     1      42.129 -11.271  -5.353  1.00  0.00     0.159 HD
HETATM   43  H   UNL     1      43.652 -10.508  -5.042  1.00  0.00     0.159 HD
HETATM   44  O   UNL     1      43.279 -10.082  -2.670  1.00  0.00    -0.273 OA
ENDBRANCH  37  40
ENDBRANCH   9  32
TORSDOF 8
ENDMDL
MODEL 6
REMARK VINA RESULT:      -9.1      3.282      8.702
REMARK  8 active torsions:
REMARK  status: ('A' for Active; 'I' for Inactive)
REMARK    1  A    between atoms: C_6  and  N_7 
REMARK       I    between atoms: N_7  and  C_8 
REMARK    2  A    between atoms: C_8  and  C_9 
REMARK    3  A    between atoms: C_9  and  S_10 
REMARK    4  A    between atoms: S_10  and  C_11 
REMARK    5  A    between atoms: N_12  and  C_13 
REMARK    6  A    between atoms: C_13  and  C_14 
REMARK    7  A    between atoms: C_25  and  C_26 
REMARK       I    between atoms: C_26  and  N_27 
REMARK    8  A    between atoms: C_30  and  C_31 
REMARK       I    between atoms: C_31  and  N_32 
ROOT
HETATM    1  C   UNL     1      42.103 -12.598   4.880  1.00  0.00     0.172 C 
HETATM    2  N   UNL     1      41.261 -12.215   3.856  1.00  0.00    -0.286 N 
HETATM    3  C   UNL     1      40.263 -11.272   4.089  1.00  0.00     0.262 C 
HETATM    4  O   UNL     1      39.394 -10.970   3.276  1.00  0.00    -0.267 OA
HETATM    5  C   UNL     1      40.284 -10.601   5.399  1.00  0.00     0.061 A 
HETATM    6  C   UNL     1      41.232 -11.026   6.330  1.00  0.00     0.076 A 
HETATM    7  C   UNL     1      39.410  -9.542   5.675  1.00  0.00     0.020 A 
HETATM    8  C   UNL     1      39.506  -8.874   6.894  1.00  0.00     0.018 A 
HETATM    9  C   UNL     1      40.484  -9.264   7.812  1.00  0.00     0.034 A 
HETATM   10  C   UNL     1      41.326 -10.352   7.548  1.00  0.00     0.050 A 
HETATM   11  N   UNL     1      42.103 -12.092   6.072  1.00  0.00    -0.224 NA
ENDROOT
BRANCH   1  12
HETATM   12  S   UNL     1      43.238 -13.904   4.631  1.00  0.00    -0.082 SA
BRANCH  12  13
HETATM   13  C   UNL     1      42.538 -15.082   5.820  1.00  0.00     0.185 C 
BRANCH  13  14
HETATM   14  C   UNL     1      42.512 -16.522   5.332  1.00  0.00     0.231 C 
HETATM   15  N   UNL     1      43.460 -16.845   4.381  1.00  0.00    -0.326 N 
HETATM   16  H   UNL     1      44.011 -16.072   4.010  1.00  0.00     0.169 HD
HETATM   17  O   UNL     1      41.722 -17.310   5.851  1.00  0.00    -0.272 OA
BRANCH  15  18
HETATM   18  C   UNL     1      43.698 -18.112   3.805  1.00  0.00     0.036 A 
HETATM   19  C   UNL     1      44.214 -19.206   4.502  1.00  0.00     0.053 A 
HETATM   20  C   UNL     1      44.421 -20.431   3.856  1.00  0.00     0.042 A 
HETATM   21  C   UNL     1      44.098 -20.595   2.501  1.00  0.00    -0.040 A 
HETATM   22 CL   UNL     1      45.098 -21.726   4.783  1.00  0.00    -0.084 Cl
HETATM   23  C   UNL     1      44.322 -21.888   1.771  1.00  0.00     0.050 C 
HETATM   24  C   UNL     1      43.599 -19.488   1.801  1.00  0.00     0.011 A 
HETATM   25  C   UNL     1      43.403 -18.262   2.446  1.00  0.00     0.030 A 
ENDBRANCH  15  18
ENDBRANCH  13  14
ENDBRANCH  12  13
ENDBRANCH   1  12
BRANCH   2  26
HETATM   26  C   UNL     1      41.353 -12.702   2.478  1.00  0.00     0.199 C 
BRANCH  26  27
HETATM   27  C   UNL     1      40.569 -13.963   2.358  1.00  0.00     0.070 A 
HETATM   28  O   UNL     1      41.263 -15.134   2.431  1.00  0.00    -0.325 OA
HETATM   29  C   UNL     1      40.363 -16.139   2.272  1.00  0.00     0.142 A 
HETATM   30  C   UNL     1      39.097 -15.630   2.099  1.00  0.00     0.027 A 
HETATM   31  C   UNL     1      39.228 -14.222   2.155  1.00  0.00     0.036 A 
ENDBRANCH  26  27
ENDBRANCH   2  26
BRANCH   9  32
HETATM   32  C   UNL     1      40.589  -8.532   9.090  1.00  0.00     0.253 C 
HETATM   33  N   UNL     1      40.644  -9.263  10.280  1.00  0.00    -0.348 N 
HETATM   34  C   UNL     1      40.805  -8.495  11.514  1.00  0.00     0.127 C 
HETATM   35  C   UNL     1      41.112 -10.647  10.349  1.00  0.00     0.127 C 
HETATM   36  C   UNL     1      40.175  -9.208  12.709  1.00  0.00     0.034 C 
HETATM   37  C   UNL     1      40.611 -10.672  12.834  1.00  0.00     0.081 C 
HETATM   38  C   UNL     1      40.444 -11.401  11.495  1.00  0.00     0.034 C 
HETATM   39  O   UNL     1      40.611  -7.306   9.028  1.00  0.00    -0.267 OA
BRANCH  37  40
HETATM   40  C   UNL     1      42.032 -10.803  13.368  1.00  0.00     0.219 C 
HETATM   41  N   UNL     1      42.287 -10.101  14.511  1.00  0.00    -0.370 N 
HETATM   42  H   UNL     1      41.687  -9.352  14.827  1.00  0.00     0.159 HD
HETATM   43  H   UNL     1      43.246 -10.105  14.836  1.00  0.00     0.159 HD
HETATM   44  O   UNL     1      42.912 -11.476  12.847  1.00  0.00    -0.273 OA
ENDBRANCH  37  40
ENDBRANCH   9  32
TORSDOF 8
ENDMDL
MODEL 7
REMARK VINA RESULT:      -9.0      4.115      9.010
REMARK  8 active torsions:
REMARK  status: ('A' for Active; 'I' for Inactive)
REMARK    1  A    between atoms: C_6  and  N_7 
REMARK       I    between atoms: N_7  and  C_8 
REMARK    2  A    between atoms: C_8  and  C_9 
REMARK    3  A    between atoms: C_9  and  S_10 
REMARK    4  A    between atoms: S_10  and  C_11 
REMARK    5  A    between atoms: N_12  and  C_13 
REMARK    6  A    between atoms: C_13  and  C_14 
REMARK    7  A    between atoms: C_25  and  C_26 
REMARK       I    between atoms: C_26  and  N_27 
REMARK    8  A    between atoms: C_30  and  C_31 
REMARK       I    between atoms: C_31  and  N_32 
ROOT
HETATM    1  C   UNL     1      40.479 -12.103   4.066  1.00  0.00     0.172 C 
HETATM    2  N   UNL     1      39.337 -12.115   3.291  1.00  0.00    -0.286 N 
HETATM    3  C   UNL     1      39.074 -13.196   2.453  1.00  0.00     0.262 C 
HETATM    4  O   UNL     1      38.155 -13.232   1.638  1.00  0.00    -0.267 OA
HETATM    5  C   UNL     1      39.963 -14.361   2.583  1.00  0.00     0.061 A 
HETATM    6  C   UNL     1      41.046 -14.256   3.455  1.00  0.00     0.076 A 
HETATM    7  C   UNL     1      39.697 -15.546   1.885  1.00  0.00     0.020 A 
HETATM    8  C   UNL     1      40.511 -16.659   2.088  1.00  0.00     0.018 A 
HETATM    9  C   UNL     1      41.569 -16.575   2.997  1.00  0.00     0.034 A 
HETATM   10  C   UNL     1      41.857 -15.374   3.657  1.00  0.00     0.050 A 
HETATM   11  N   UNL     1      41.332 -13.073   4.149  1.00  0.00    -0.224 NA
ENDROOT
BRANCH   1  12
HETATM   12  S   UNL     1      40.893 -10.673   4.983  1.00  0.00    -0.082 SA
BRANCH  12  13
HETATM   13  C   UNL     1      41.697 -11.494   6.387  1.00  0.00     0.185 C 
BRANCH  13  14
HETATM   14  C   UNL     1      41.855 -10.615   7.618  1.00  0.00     0.231 C 
HETATM   15  N   UNL     1      42.074 -11.286   8.805  1.00  0.00    -0.326 N 
HETATM   16  H   UNL     1      41.997 -12.301   8.771  1.00  0.00     0.169 HD
HETATM   17  O   UNL     1      41.853  -9.392   7.477  1.00  0.00    -0.272 OA
BRANCH  15  18
HETATM   18  C   UNL     1      42.314 -10.722  10.077  1.00  0.00     0.036 A 
HETATM   19  C   UNL     1      41.342 -10.071  10.841  1.00  0.00     0.053 A 
HETATM   20  C   UNL     1      41.661  -9.537  12.096  1.00  0.00     0.042 A 
HETATM   21  C   UNL     1      42.954  -9.659  12.623  1.00  0.00    -0.040 A 
HETATM   22 CL   UNL     1      40.408  -8.715  12.962  1.00  0.00    -0.084 Cl
HETATM   23  C   UNL     1      43.337  -9.085  13.957  1.00  0.00     0.050 C 
HETATM   24  C   UNL     1      43.930 -10.295  11.844  1.00  0.00     0.011 A 
HETATM   25  C   UNL     1      43.612 -10.818  10.585  1.00  0.00     0.030 A 
ENDBRANCH  15  18
ENDBRANCH  13  14
ENDBRANCH  12  13
ENDBRANCH   1  12
BRANCH   2  26
HETATM   26  C   UNL     1      38.314 -11.067   3.301  1.00  0.00     0.199 C 
BRANCH  26  27
HETATM   27  C   UNL     1      38.750  -9.957   2.408  1.00  0.00     0.070 A 
HETATM   28  O   UNL     1      38.921 -10.254   1.088  1.00  0.00    -0.325 OA
HETATM   29  C   UNL     1      39.341  -9.116   0.477  1.00  0.00     0.142 A 
HETATM   30  C   UNL     1      39.441  -8.090   1.386  1.00  0.00     0.027 A 
HETATM   31  C   UNL     1      39.058  -8.631   2.636  1.00  0.00     0.036 A 
ENDBRANCH  26  27
ENDBRANCH   2  26
BRANCH   9  32
HETATM   32  C   UNL     1      42.409 -17.769   3.218  1.00  0.00     0.253 C 
HETATM   33  N   UNL     1      43.130 -17.871   4.412  1.00  0.00    -0.348 N 
HETATM   34  C   UNL     1      43.901 -19.097   4.609  1.00  0.00     0.127 C 
HETATM   35  C   UNL     1      42.743 -17.180   5.642  1.00  0.00     0.127 C 
HETATM   36  C   UNL     1      45.127 -18.859   5.489  1.00  0.00     0.034 C 
HETATM   37  C   UNL     1      44.797 -18.123   6.793  1.00  0.00     0.081 C 
HETATM   38  C   UNL     1      43.961 -16.869   6.507  1.00  0.00     0.034 C 
HETATM   39  O   UNL     1      42.432 -18.606   2.321  1.00  0.00    -0.267 OA
BRANCH  37  40
HETATM   40  C   UNL     1      44.112 -19.032   7.806  1.00  0.00     0.219 C 
HETATM   41  N   UNL     1      44.020 -18.524   9.069  1.00  0.00    -0.370 N 
HETATM   42  H   UNL     1      44.585 -17.745   9.378  1.00  0.00     0.159 HD
HETATM   43  H   UNL     1      43.646 -19.144   9.777  1.00  0.00     0.159 HD
HETATM   44  O   UNL     1      43.661 -20.142   7.552  1.00  0.00    -0.273 OA
ENDBRANCH  37  40
ENDBRANCH   9  32
TORSDOF 8
ENDMDL
MODEL 8
REMARK VINA RESULT:      -8.9      1.748      2.073
REMARK  8 active torsions:
REMARK  status: ('A' for Active; 'I' for Inactive)
REMARK    1  A    between atoms: C_6  and  N_7 
REMARK       I    between atoms: N_7  and  C_8 
REMARK    2  A    between atoms: C_8  and  C_9 
REMARK    3  A    between atoms: C_9  and  S_10 
REMARK    4  A    between atoms: S_10  and  C_11 
REMARK    5  A    between atoms: N_12  and  C_13 
REMARK    6  A    between atoms: C_13  and  C_14 
REMARK    7  A    between atoms: C_25  and  C_26 
REMARK       I    between atoms: C_26  and  N_27 
REMARK    8  A    between atoms: C_30  and  C_31 
REMARK       I    between atoms: C_31  and  N_32 
ROOT
HETATM    1  C   UNL     1      41.939 -12.793   5.360  1.00  0.00     0.172 C 
HETATM    2  N   UNL     1      41.564 -11.547   5.821  1.00  0.00    -0.286 N 
HETATM    3  C   UNL     1      40.712 -10.750   5.063  1.00  0.00     0.262 C 
HETATM    4  O   UNL     1      40.431  -9.585   5.333  1.00  0.00    -0.267 OA
HETATM    5  C   UNL     1      40.112 -11.374   3.873  1.00  0.00     0.061 A 
HETATM    6  C   UNL     1      40.515 -12.669   3.547  1.00  0.00     0.076 A 
HETATM    7  C   UNL     1      39.136 -10.701   3.126  1.00  0.00     0.020 A 
HETATM    8  C   UNL     1      38.529 -11.347   2.051  1.00  0.00     0.018 A 
HETATM    9  C   UNL     1      38.894 -12.662   1.748  1.00  0.00     0.034 A 
HETATM   10  C   UNL     1      39.903 -13.313   2.471  1.00  0.00     0.050 A 
HETATM   11  N   UNL     1      41.499 -13.348   4.277  1.00  0.00    -0.224 NA
ENDROOT
BRANCH   1  12
HETATM   12  S   UNL     1      43.143 -13.716   6.229  1.00  0.00    -0.082 SA
BRANCH  12  13
HETATM   13  C   UNL     1      42.284 -15.314   6.235  1.00  0.00     0.185 C 
BRANCH  13  14
HETATM   14  C   UNL     1      43.123 -16.477   5.731  1.00  0.00     0.231 C 
HETATM   15  N   UNL     1      42.493 -17.324   4.839  1.00  0.00    -0.326 N 
HETATM   16  H   UNL     1      41.498 -17.164   4.690  1.00  0.00     0.169 HD
HETATM   17  O   UNL     1      44.302 -16.551   6.076  1.00  0.00    -0.272 OA
BRANCH  15  18
HETATM   18  C   UNL     1      43.052 -18.437   4.174  1.00  0.00     0.036 A 
HETATM   19  C   UNL     1      43.799 -19.433   4.806  1.00  0.00     0.053 A 
HETATM   20  C   UNL     1      44.320 -20.508   4.073  1.00  0.00     0.042 A 
HETATM   21  C   UNL     1      44.088 -20.619   2.695  1.00  0.00    -0.040 A 
HETATM   22 CL   UNL     1      45.265 -21.680   4.925  1.00  0.00    -0.084 Cl
HETATM   23  C   UNL     1      44.644 -21.747   1.873  1.00  0.00     0.050 C 
HETATM   24  C   UNL     1      43.354 -19.606   2.062  1.00  0.00     0.011 A 
HETATM   25  C   UNL     1      42.844 -18.528   2.795  1.00  0.00     0.030 A 
ENDBRANCH  15  18
ENDBRANCH  13  14
ENDBRANCH  12  13
ENDBRANCH   1  12
BRANCH   2  26
HETATM   26  C   UNL     1      41.969 -10.981   7.110  1.00  0.00     0.199 C 
BRANCH  26  27
HETATM   27  C   UNL     1      40.754 -10.762   7.944  1.00  0.00     0.070 A 
HETATM   28  O   UNL     1      40.712  -9.622   8.691  1.00  0.00    -0.325 OA
HETATM   29  C   UNL     1      39.543  -9.644   9.381  1.00  0.00     0.142 A 
HETATM   30  C   UNL     1      38.831 -10.783   9.089  1.00  0.00     0.027 A 
HETATM   31  C   UNL     1      39.612 -11.508   8.158  1.00  0.00     0.036 A 
ENDBRANCH  26  27
ENDBRANCH   2  26
BRANCH   9  32
HETATM   32  C   UNL     1      38.226 -13.342   0.621  1.00  0.00     0.253 C 
HETATM   33  N   UNL     1      38.831 -13.307  -0.639  1.00  0.00    -0.348 N 
HETATM   34  C   UNL     1      38.160 -14.042  -1.709  1.00  0.00     0.127 C 
HETATM   35  C   UNL     1      40.268 -13.110  -0.831  1.00  0.00     0.127 C 
HETATM   36  C   UNL     1      38.430 -13.420  -3.078  1.00  0.00     0.034 C 
HETATM   37  C   UNL     1      39.919 -13.171  -3.342  1.00  0.00     0.081 C 
HETATM   38  C   UNL     1      40.559 -12.426  -2.164  1.00  0.00     0.034 C 
HETATM   39  O   UNL     1      37.157 -13.895   0.861  1.00  0.00    -0.267 OA
BRANCH  37  40
HETATM   40  C   UNL     1      40.667 -14.460  -3.661  1.00  0.00     0.219 C 
HETATM   41  N   UNL     1      42.016 -14.410  -3.458  1.00  0.00    -0.370 N 
HETATM   42  H   UNL     1      42.515 -13.536  -3.370  1.00  0.00     0.159 HD
HETATM   43  H   UNL     1      42.544 -15.226  -3.744  1.00  0.00     0.159 HD
HETATM   44  O   UNL     1      40.141 -15.488  -4.066  1.00  0.00    -0.273 OA
ENDBRANCH  37  40
ENDBRANCH   9  32
TORSDOF 8
ENDMDL
MODEL 9
REMARK VINA RESULT:      -8.7      1.923      2.732
REMARK  8 active torsions:
REMARK  status: ('A' for Active; 'I' for Inactive)
REMARK    1  A    between atoms: C_6  and  N_7 
REMARK       I    between atoms: N_7  and  C_8 
REMARK    2  A    between atoms: C_8  and  C_9 
REMARK    3  A    between atoms: C_9  and  S_10 
REMARK    4  A    between atoms: S_10  and  C_11 
REMARK    5  A    between atoms: N_12  and  C_13 
REMARK    6  A    between atoms: C_13  and  C_14 
REMARK    7  A    between atoms: C_25  and  C_26 
REMARK       I    between atoms: C_26  and  N_27 
REMARK    8  A    between atoms: C_30  and  C_31 
REMARK       I    between atoms: C_31  and  N_32 
ROOT
HETATM    1  C   UNL     1      40.339 -13.580   4.561  1.00  0.00     0.172 C 
HETATM    2  N   UNL     1      39.527 -12.648   5.177  1.00  0.00    -0.286 N 
HETATM    3  C   UNL     1      38.803 -11.739   4.411  1.00  0.00     0.262 C 
HETATM    4  O   UNL     1      38.161 -10.800   4.876  1.00  0.00    -0.267 OA
HETATM    5  C   UNL     1      38.814 -11.949   2.955  1.00  0.00     0.061 A 
HETATM    6  C   UNL     1      39.618 -12.971   2.453  1.00  0.00     0.076 A 
HETATM    7  C   UNL     1      38.006 -11.173   2.114  1.00  0.00     0.020 A 
HETATM    8  C   UNL     1      37.977 -11.446   0.748  1.00  0.00     0.018 A 
HETATM    9  C   UNL     1      38.745 -12.500   0.245  1.00  0.00     0.034 A 
HETATM   10  C   UNL     1      39.585 -13.243   1.084  1.00  0.00     0.050 A 
HETATM   11  N   UNL     1      40.442 -13.745   3.281  1.00  0.00    -0.224 NA
ENDROOT
BRANCH   1  12
HETATM   12  S   UNL     1      41.377 -14.603   5.526  1.00  0.00    -0.082 SA
BRANCH  12  13
HETATM   13  C   UNL     1      42.378 -15.293   4.179  1.00  0.00     0.185 C 
BRANCH  13  14
HETATM   14  C   UNL     1      42.397 -16.813   4.131  1.00  0.00     0.231 C 
HETATM   15  N   UNL     1      43.646 -17.388   3.998  1.00  0.00    -0.326 N 
HETATM   16  H   UNL     1      44.422 -16.750   3.828  1.00  0.00     0.169 HD
HETATM   17  O   UNL     1      41.341 -17.425   4.286  1.00  0.00    -0.272 OA
BRANCH  15  18
HETATM   18  C   UNL     1      43.959 -18.766   3.987  1.00  0.00     0.036 A 
HETATM   19  C   UNL     1      43.930 -19.567   2.844  1.00  0.00     0.053 A 
HETATM   20  C   UNL     1      44.254 -20.928   2.918  1.00  0.00     0.042 A 
HETATM   21  C   UNL     1      44.633 -21.513   4.135  1.00  0.00    -0.040 A 
HETATM   22 CL   UNL     1      44.159 -21.858   1.462  1.00  0.00    -0.084 Cl
HETATM   23  C   UNL     1      44.971 -22.971   4.256  1.00  0.00     0.050 C 
HETATM   24  C   UNL     1      44.640 -20.708   5.283  1.00  0.00     0.011 A 
HETATM   25  C   UNL     1      44.305 -19.352   5.208  1.00  0.00     0.030 A 
ENDBRANCH  15  18
ENDBRANCH  13  14
ENDBRANCH  12  13
ENDBRANCH   1  12
BRANCH   2  26
HETATM   26  C   UNL     1      39.321 -12.553   6.624  1.00  0.00     0.199 C 
BRANCH  26  27
HETATM   27  C   UNL     1      40.138 -11.426   7.156  1.00  0.00     0.070 A 
HETATM   28  O   UNL     1      39.519 -10.559   8.007  1.00  0.00    -0.325 OA
HETATM   29  C   UNL     1      40.432  -9.611   8.339  1.00  0.00     0.142 A 
HETATM   30  C   UNL     1      41.631  -9.855   7.714  1.00  0.00     0.027 A 
HETATM   31  C   UNL     1      41.444 -11.031   6.948  1.00  0.00     0.036 A 
ENDBRANCH  26  27
ENDBRANCH   2  26
BRANCH   9  32
HETATM   32  C   UNL     1      38.687 -12.793  -1.201  1.00  0.00     0.253 C 
HETATM   33  N   UNL     1      39.410 -11.981  -2.080  1.00  0.00    -0.348 N 
HETATM   34  C   UNL     1      39.367 -12.345  -3.495  1.00  0.00     0.127 C 
HETATM   35  C   UNL     1      40.589 -11.214  -1.676  1.00  0.00     0.127 C 
HETATM   36  C   UNL     1      39.540 -11.126  -4.398  1.00  0.00     0.034 C 
HETATM   37  C   UNL     1      40.751 -10.266  -4.021  1.00  0.00     0.081 C 
HETATM   38  C   UNL     1      40.744  -9.953  -2.520  1.00  0.00     0.034 C 
HETATM   39  O   UNL     1      37.987 -13.739  -1.549  1.00  0.00    -0.267 OA
BRANCH  37  40
HETATM   40  C   UNL     1      42.065 -10.906  -4.453  1.00  0.00     0.219 C 
HETATM   41  N   UNL     1      42.748 -10.229  -5.421  1.00  0.00    -0.370 N 
HETATM   42  H   UNL     1      42.308  -9.523  -5.995  1.00  0.00     0.159 HD
HETATM   43  H   UNL     1      43.579 -10.679  -5.783  1.00  0.00     0.159 HD
HETATM   44  O   UNL     1      42.516 -11.947  -3.992  1.00  0.00    -0.273 OA
ENDBRANCH  37  40
ENDBRANCH   9  32
TORSDOF 8
ENDMDL
MODEL 10
REMARK VINA RESULT:      -8.7      3.484      7.848
REMARK  8 active torsions:
REMARK  status: ('A' for Active; 'I' for Inactive)
REMARK    1  A    between atoms: C_6  and  N_7 
REMARK       I    between atoms: N_7  and  C_8 
REMARK    2  A    between atoms: C_8  and  C_9 
REMARK    3  A    between atoms: C_9  and  S_10 
REMARK    4  A    between atoms: S_10  and  C_11 
REMARK    5  A    between atoms: N_12  and  C_13 
REMARK    6  A    between atoms: C_13  and  C_14 
REMARK    7  A    between atoms: C_25  and  C_26 
REMARK       I    between atoms: C_26  and  N_27 
REMARK    8  A    between atoms: C_30  and  C_31 
REMARK       I    between atoms: C_31  and  N_32 
ROOT
HETATM    1  C   UNL     1      42.124 -17.426   3.755  1.00  0.00     0.172 C 
HETATM    2  N   UNL     1      43.036 -17.605   2.735  1.00  0.00    -0.286 N 
HETATM    3  C   UNL     1      42.741 -17.163   1.448  1.00  0.00     0.262 C 
HETATM    4  O   UNL     1      43.434 -17.395   0.461  1.00  0.00    -0.267 OA
HETATM    5  C   UNL     1      41.519 -16.358   1.293  1.00  0.00     0.061 A 
HETATM    6  C   UNL     1      40.711 -16.184   2.416  1.00  0.00     0.076 A 
HETATM    7  C   UNL     1      41.211 -15.753   0.068  1.00  0.00     0.020 A 
HETATM    8  C   UNL     1      40.089 -14.931  -0.028  1.00  0.00     0.018 A 
HETATM    9  C   UNL     1      39.302 -14.714   1.106  1.00  0.00     0.034 A 
HETATM   10  C   UNL     1      39.590 -15.358   2.316  1.00  0.00     0.050 A 
HETATM   11  N   UNL     1      41.000 -16.794   3.644  1.00  0.00    -0.224 NA
ENDROOT
BRANCH   1  12
HETATM   12  S   UNL     1      42.424 -18.134   5.325  1.00  0.00    -0.082 SA
BRANCH  12  13
HETATM   13  C   UNL     1      43.381 -16.769   6.042  1.00  0.00     0.185 C 
BRANCH  13  14
HETATM   14  C   UNL     1      42.928 -15.387   5.597  1.00  0.00     0.231 C 
HETATM   15  N   UNL     1      41.730 -14.953   6.132  1.00  0.00    -0.326 N 
HETATM   16  H   UNL     1      41.206 -15.634   6.678  1.00  0.00     0.169 HD
HETATM   17  O   UNL     1      43.668 -14.726   4.869  1.00  0.00    -0.272 OA
BRANCH  15  18
HETATM   18  C   UNL     1      41.111 -13.699   5.939  1.00  0.00     0.036 A 
HETATM   19  C   UNL     1      41.657 -12.483   6.354  1.00  0.00     0.053 A 
HETATM   20  C   UNL     1      40.978 -11.279   6.124  1.00  0.00     0.042 A 
HETATM   21  C   UNL     1      39.745 -11.265   5.456  1.00  0.00    -0.040 A 
HETATM   22 CL   UNL     1      41.707  -9.821   6.702  1.00  0.00    -0.084 Cl
HETATM   23  C   UNL     1      38.980  -9.996   5.207  1.00  0.00     0.050 C 
HETATM   24  C   UNL     1      39.191 -12.490   5.060  1.00  0.00     0.011 A 
HETATM   25  C   UNL     1      39.867 -13.692   5.300  1.00  0.00     0.030 A 
ENDBRANCH  15  18
ENDBRANCH  13  14
ENDBRANCH  12  13
ENDBRANCH   1  12
BRANCH   2  26
HETATM   26  C   UNL     1      44.361 -18.209   2.901  1.00  0.00     0.199 C 
BRANCH  26  27
HETATM   27  C   UNL     1      44.238 -19.688   2.761  1.00  0.00     0.070 A 
HETATM   28  O   UNL     1      43.476 -20.152   1.731  1.00  0.00    -0.325 OA
HETATM   29  C   UNL     1      43.483 -21.508   1.812  1.00  0.00     0.142 A 
HETATM   30  C   UNL     1      44.242 -21.923   2.880  1.00  0.00     0.027 A 
HETATM   31  C   UNL     1      44.733 -20.747   3.496  1.00  0.00     0.036 A 
ENDBRANCH  26  27
ENDBRANCH   2  26
BRANCH   9  32
HETATM   32  C   UNL     1      38.130 -13.823   0.995  1.00  0.00     0.253 C 
HETATM   33  N   UNL     1      38.318 -12.445   1.132  1.00  0.00    -0.348 N 
HETATM   34  C   UNL     1      37.137 -11.601   0.958  1.00  0.00     0.127 C 
HETATM   35  C   UNL     1      39.596 -11.781   0.870  1.00  0.00     0.127 C 
HETATM   36  C   UNL     1      37.239 -10.311   1.769  1.00  0.00     0.034 C 
HETATM   37  C   UNL     1      38.563  -9.569   1.554  1.00  0.00     0.081 C 
HETATM   38  C   UNL     1      39.751 -10.525   1.721  1.00  0.00     0.034 C 
HETATM   39  O   UNL     1      37.043 -14.358   0.797  1.00  0.00    -0.267 OA
BRANCH  37  40
HETATM   40  C   UNL     1      38.606  -8.854   0.209  1.00  0.00     0.219 C 
HETATM   41  N   UNL     1      37.425  -8.297  -0.188  1.00  0.00    -0.370 N 
HETATM   42  H   UNL     1      36.541  -8.560   0.225  1.00  0.00     0.159 HD
HETATM   43  H   UNL     1      37.409  -7.891  -1.116  1.00  0.00     0.159 HD
HETATM   44  O   UNL     1      39.603  -8.757  -0.496  1.00  0.00    -0.273 OA
ENDBRANCH  37  40
ENDBRANCH   9  32
TORSDOF 8
ENDMDL
