MODEL 1
REMARK VINA RESULT:      -7.5      0.000      0.000
REMARK  7 active torsions:
REMARK  status: ('A' for Active; 'I' for Inactive)
REMARK    1  A    between atoms: C_2  and  C_3 
REMARK    2  A    between atoms: C_3  and  N_4 
REMARK    3  A    between atoms: C_3  and  C_20 
REMARK       I    between atoms: N_4  and  C_5 
REMARK       I    between atoms: C_5  and  N_6 
REMARK    4  A    between atoms: N_6  and  C_7 
REMARK    5  A    between atoms: C_7  and  C_8 
REMARK    6  A    between atoms: C_10  and  O_11 
REMARK    7  A    between atoms: O_11  and  C_12 
ROOT
HETATM    1  N   UNL     1      42.634 -18.019   3.475  1.00  0.00    -0.334 N 
HETATM    2  C   UNL     1      42.564 -16.668   3.265  1.00  0.00     0.316 C 
HETATM    3  N   UNL     1      41.357 -16.314   2.719  1.00  0.00    -0.339 N 
HETATM    4  O   UNL     1      43.454 -15.876   3.541  1.00  0.00    -0.247 OA
HETATM    5  H   UNL     1      41.962 -18.591   2.992  1.00  0.00     0.165 HD
HETATM    6  H   UNL     1      40.600 -16.958   2.878  1.00  0.00     0.164 HD
ENDROOT
BRANCH   3   7
HETATM    7  C   UNL     1      40.987 -14.922   2.583  1.00  0.00     0.163 C 
BRANCH   7   8
HETATM    8  C   UNL     1      41.188 -14.469   1.162  1.00  0.00    -0.035 A 
HETATM    9  C   UNL     1      40.835 -15.305   0.097  1.00  0.00     0.066 A 
HETATM   10  C   UNL     1      41.126 -14.890  -1.191  1.00  0.00     0.164 A 
HETATM   11  N   UNL     1      41.720 -13.716  -1.494  1.00  0.00    -0.237 NA
HETATM   12  C   UNL     1      42.038 -12.920  -0.453  1.00  0.00     0.120 A 
HETATM   13  C   UNL     1      41.804 -13.248   0.874  1.00  0.00     0.028 A 
BRANCH  10  14
HETATM   14  O   UNL     1      40.785 -15.753  -2.214  1.00  0.00    -0.329 OA
BRANCH  14  15
HETATM   15  C   UNL     1      39.938 -15.199  -3.244  1.00  0.00     0.130 C 
HETATM   16  C   UNL     1      39.101 -16.214  -4.069  1.00  0.00     0.032 C 
HETATM   17  C   UNL     1      37.935 -15.213  -4.007  1.00  0.00     0.005 C 
HETATM   18  C   UNL     1      38.586 -14.633  -2.739  1.00  0.00     0.032 C 
ENDBRANCH  14  15
ENDBRANCH  10  14
ENDBRANCH   7   8
ENDBRANCH   3   7
BRANCH   1  19
HETATM   19  C   UNL     1      43.831 -18.666   3.992  1.00  0.00     0.119 C 
BRANCH  19  20
HETATM   20  C   UNL     1      43.810 -18.683   5.535  1.00  0.00     0.025 C 
HETATM   21  C   UNL     1      44.993 -17.992   6.204  1.00  0.00     0.007 C 
ENDBRANCH  19  20
BRANCH  19  22
HETATM   22  C   UNL     1      44.072 -20.046   3.399  1.00  0.00    -0.033 A 
HETATM   23  C   UNL     1      44.619 -21.051   4.210  1.00  0.00     0.028 A 
HETATM   24  C   UNL     1      44.811 -22.318   3.680  1.00  0.00     0.116 A 
HETATM   25  N   UNL     1      44.498 -22.656   2.412  1.00  0.00    -0.273 NA
HETATM   26  C   UNL     1      43.981 -21.679   1.640  1.00  0.00     0.116 A 
HETATM   27  C   UNL     1      43.751 -20.383   2.079  1.00  0.00     0.028 A 
ENDBRANCH  19  22
ENDBRANCH   1  19
TORSDOF 7
ENDMDL
MODEL 2
REMARK VINA RESULT:      -7.4      1.723      2.329
REMARK  7 active torsions:
REMARK  status: ('A' for Active; 'I' for Inactive)
REMARK    1  A    between atoms: C_2  and  C_3 
REMARK    2  A    between atoms: C_3  and  N_4 
REMARK    3  A    between atoms: C_3  and  C_20 
REMARK       I    between atoms: N_4  and  C_5 
REMARK       I    between atoms: C_5  and  N_6 
REMARK    4  A    between atoms: N_6  and  C_7 
REMARK    5  A    between atoms: C_7  and  C_8 
REMARK    6  A    between atoms: C_10  and  O_11 
REMARK    7  A    between atoms: O_11  and  C_12 
ROOT
HETATM    1  N   UNL     1      42.707 -18.317   4.213  1.00  0.00    -0.334 N 
HETATM    2  C   UNL     1      42.526 -16.975   4.016  1.00  0.00     0.316 C 
HETATM    3  N   UNL     1      41.207 -16.682   3.784  1.00  0.00    -0.339 N 
HETATM    4  O   UNL     1      43.420 -16.141   4.057  1.00  0.00    -0.247 OA
HETATM    5  H   UNL     1      41.964 -18.926   3.915  1.00  0.00     0.165 HD
HETATM    6  H   UNL     1      40.542 -17.354   4.131  1.00  0.00     0.164 HD
ENDROOT
BRANCH   3   7
HETATM    7  C   UNL     1      40.751 -15.309   3.734  1.00  0.00     0.163 C 
BRANCH   7   8
HETATM    8  C   UNL     1      40.300 -14.965   2.340  1.00  0.00    -0.035 A 
HETATM    9  C   UNL     1      41.234 -14.814   1.311  1.00  0.00     0.066 A 
HETATM   10  C   UNL     1      40.786 -14.403   0.067  1.00  0.00     0.164 A 
HETATM   11  N   UNL     1      39.494 -14.148  -0.226  1.00  0.00    -0.237 NA
HETATM   12  C   UNL     1      38.607 -14.313   0.777  1.00  0.00     0.120 A 
HETATM   13  C   UNL     1      38.955 -14.707   2.061  1.00  0.00     0.028 A 
BRANCH  10  14
HETATM   14  O   UNL     1      41.742 -14.242  -0.916  1.00  0.00    -0.329 OA
BRANCH  14  15
HETATM   15  C   UNL     1      41.572 -13.091  -1.771  1.00  0.00     0.130 C 
HETATM   16  C   UNL     1      42.826 -12.199  -1.986  1.00  0.00     0.032 C 
HETATM   17  C   UNL     1      42.410 -12.073  -3.461  1.00  0.00     0.005 C 
HETATM   18  C   UNL     1      41.640 -13.393  -3.290  1.00  0.00     0.032 C 
ENDBRANCH  14  15
ENDBRANCH  10  14
ENDBRANCH   7   8
ENDBRANCH   3   7
BRANCH   1  19
HETATM   19  C   UNL     1      44.023 -18.903   4.421  1.00  0.00     0.119 C 
BRANCH  19  20
HETATM   20  C   UNL     1      44.325 -19.024   5.930  1.00  0.00     0.025 C 
HETATM   21  C   UNL     1      45.302 -17.989   6.477  1.00  0.00     0.007 C 
ENDBRANCH  19  20
BRANCH  19  22
HETATM   22  C   UNL     1      44.219 -20.219   3.682  1.00  0.00    -0.033 A 
HETATM   23  C   UNL     1      44.694 -21.334   4.388  1.00  0.00     0.028 A 
HETATM   24  C   UNL     1      44.844 -22.541   3.723  1.00  0.00     0.116 A 
HETATM   25  N   UNL     1      44.555 -22.720   2.418  1.00  0.00    -0.273 NA
HETATM   26  C   UNL     1      44.108 -21.639   1.748  1.00  0.00     0.116 A 
HETATM   27  C   UNL     1      43.924 -20.390   2.325  1.00  0.00     0.028 A 
ENDBRANCH  19  22
ENDBRANCH   1  19
TORSDOF 7
ENDMDL
MODEL 3
REMARK VINA RESULT:      -7.4      2.180      3.280
REMARK  7 active torsions:
REMARK  status: ('A' for Active; 'I' for Inactive)
REMARK    1  A    between atoms: C_2  and  C_3 
REMARK    2  A    between atoms: C_3  and  N_4 
REMARK    3  A    between atoms: C_3  and  C_20 
REMARK       I    between atoms: N_4  and  C_5 
REMARK       I    between atoms: C_5  and  N_6 
REMARK    4  A    between atoms: N_6  and  C_7 
REMARK    5  A    between atoms: C_7  and  C_8 
REMARK    6  A    between atoms: C_10  and  O_11 
REMARK    7  A    between atoms: O_11  and  C_12 
ROOT
HETATM    1  N   UNL     1      42.300 -17.836   2.312  1.00  0.00    -0.334 N 
HETATM    2  C   UNL     1      42.134 -16.578   1.798  1.00  0.00     0.316 C 
HETATM    3  N   UNL     1      40.977 -16.491   1.066  1.00  0.00    -0.339 N 
HETATM    4  O   UNL     1      42.906 -15.647   1.978  1.00  0.00    -0.247 OA
HETATM    5  H   UNL     1      41.749 -18.572   1.904  1.00  0.00     0.165 HD
HETATM    6  H   UNL     1      40.268 -17.171   1.287  1.00  0.00     0.164 HD
ENDROOT
BRANCH   3   7
HETATM    7  C   UNL     1      40.501 -15.213   0.583  1.00  0.00     0.163 C 
BRANCH   7   8
HETATM    8  C   UNL     1      40.973 -14.984  -0.828  1.00  0.00    -0.035 A 
HETATM    9  C   UNL     1      41.770 -13.878  -1.137  1.00  0.00     0.066 A 
HETATM   10  C   UNL     1      42.101 -13.653  -2.463  1.00  0.00     0.164 A 
HETATM   11  N   UNL     1      41.713 -14.444  -3.485  1.00  0.00    -0.237 NA
HETATM   12  C   UNL     1      40.957 -15.514  -3.163  1.00  0.00     0.120 A 
HETATM   13  C   UNL     1      40.559 -15.819  -1.870  1.00  0.00     0.028 A 
BRANCH  10  14
HETATM   14  O   UNL     1      42.868 -12.537  -2.730  1.00  0.00    -0.329 OA
BRANCH  14  15
HETATM   15  C   UNL     1      42.144 -11.376  -3.193  1.00  0.00     0.130 C 
HETATM   16  C   UNL     1      42.784  -9.995  -2.885  1.00  0.00     0.032 C 
HETATM   17  C   UNL     1      42.358  -9.549  -4.294  1.00  0.00     0.005 C 
HETATM   18  C   UNL     1      42.351 -11.035  -4.691  1.00  0.00     0.032 C 
ENDBRANCH  14  15
ENDBRANCH  10  14
ENDBRANCH   7   8
ENDBRANCH   3   7
BRANCH   1  19
HETATM   19  C   UNL     1      43.476 -18.214   3.081  1.00  0.00     0.119 C 
BRANCH  19  20
HETATM   20  C   UNL     1      43.330 -17.758   4.548  1.00  0.00     0.025 C 
HETATM   21  C   UNL     1      41.944 -17.963   5.152  1.00  0.00     0.007 C 
ENDBRANCH  19  20
BRANCH  19  22
HETATM   22  C   UNL     1      43.822 -19.691   2.963  1.00  0.00    -0.033 A 
HETATM   23  C   UNL     1      43.425 -20.395   1.817  1.00  0.00     0.028 A 
HETATM   24  C   UNL     1      43.767 -21.734   1.694  1.00  0.00     0.116 A 
HETATM   25  N   UNL     1      44.472 -22.416   2.619  1.00  0.00    -0.273 NA
HETATM   26  C   UNL     1      44.841 -21.730   3.719  1.00  0.00     0.116 A 
HETATM   27  C   UNL     1      44.548 -20.391   3.933  1.00  0.00     0.028 A 
ENDBRANCH  19  22
ENDBRANCH   1  19
TORSDOF 7
ENDMDL
MODEL 4
REMARK VINA RESULT:      -7.3      2.685      8.116
REMARK  7 active torsions:
REMARK  status: ('A' for Active; 'I' for Inactive)
REMARK    1  A    between atoms: C_2  and  C_3 
REMARK    2  A    between atoms: C_3  and  N_4 
REMARK    3  A    between atoms: C_3  and  C_20 
REMARK       I    between atoms: N_4  and  C_5 
REMARK       I    between atoms: C_5  and  N_6 
REMARK    4  A    between atoms: N_6  and  C_7 
REMARK    5  A    between atoms: C_7  and  C_8 
REMARK    6  A    between atoms: C_10  and  O_11 
REMARK    7  A    between atoms: O_11  and  C_12 
ROOT
HETATM    1  N   UNL     1      40.932 -16.204   2.630  1.00  0.00    -0.334 N 
HETATM    2  C   UNL     1      41.108 -15.829   3.934  1.00  0.00     0.316 C 
HETATM    3  N   UNL     1      40.729 -16.830   4.792  1.00  0.00    -0.339 N 
HETATM    4  O   UNL     1      41.557 -14.749   4.292  1.00  0.00    -0.247 OA
HETATM    5  H   UNL     1      40.336 -16.995   2.459  1.00  0.00     0.165 HD
HETATM    6  H   UNL     1      40.733 -17.760   4.407  1.00  0.00     0.164 HD
ENDROOT
BRANCH   3   7
HETATM    7  C   UNL     1      40.999 -16.730   6.210  1.00  0.00     0.163 C 
BRANCH   7   8
HETATM    8  C   UNL     1      42.339 -17.339   6.525  1.00  0.00    -0.035 A 
HETATM    9  C   UNL     1      43.085 -17.966   5.522  1.00  0.00     0.066 A 
HETATM   10  C   UNL     1      44.266 -18.595   5.874  1.00  0.00     0.164 A 
HETATM   11  N   UNL     1      44.759 -18.635   7.130  1.00  0.00    -0.237 NA
HETATM   12  C   UNL     1      44.032 -18.012   8.079  1.00  0.00     0.120 A 
HETATM   13  C   UNL     1      42.829 -17.365   7.834  1.00  0.00     0.028 A 
BRANCH  10  14
HETATM   14  O   UNL     1      44.961 -19.225   4.859  1.00  0.00    -0.329 OA
BRANCH  14  15
HETATM   15  C   UNL     1      44.202 -20.169   4.074  1.00  0.00     0.130 C 
HETATM   16  C   UNL     1      44.454 -20.154   2.542  1.00  0.00     0.032 C 
HETATM   17  C   UNL     1      44.386 -21.690   2.574  1.00  0.00     0.005 C 
HETATM   18  C   UNL     1      44.774 -21.611   4.061  1.00  0.00     0.032 C 
ENDBRANCH  14  15
ENDBRANCH  10  14
ENDBRANCH   7   8
ENDBRANCH   3   7
BRANCH   1  19
HETATM   19  C   UNL     1      41.202 -15.304   1.518  1.00  0.00     0.119 C 
BRANCH  19  20
HETATM   20  C   UNL     1      42.116 -15.989   0.481  1.00  0.00     0.025 C 
HETATM   21  C   UNL     1      42.850 -17.227   0.986  1.00  0.00     0.007 C 
ENDBRANCH  19  20
BRANCH  19  22
HETATM   22  C   UNL     1      39.941 -14.728   0.891  1.00  0.00    -0.033 A 
HETATM   23  C   UNL     1      40.001 -14.215  -0.413  1.00  0.00     0.028 A 
HETATM   24  C   UNL     1      38.846 -13.719  -0.998  1.00  0.00     0.116 A 
HETATM   25  N   UNL     1      37.644 -13.698  -0.386  1.00  0.00    -0.273 NA
HETATM   26  C   UNL     1      37.601 -14.185   0.870  1.00  0.00     0.116 A 
HETATM   27  C   UNL     1      38.701 -14.704   1.539  1.00  0.00     0.028 A 
ENDBRANCH  19  22
ENDBRANCH   1  19
TORSDOF 7
ENDMDL
MODEL 5
REMARK VINA RESULT:      -7.3      2.361      3.288
REMARK  7 active torsions:
REMARK  status: ('A' for Active; 'I' for Inactive)
REMARK    1  A    between atoms: C_2  and  C_3 
REMARK    2  A    between atoms: C_3  and  N_4 
REMARK    3  A    between atoms: C_3  and  C_20 
REMARK       I    between atoms: N_4  and  C_5 
REMARK       I    between atoms: C_5  and  N_6 
REMARK    4  A    between atoms: N_6  and  C_7 
REMARK    5  A    between atoms: C_7  and  C_8 
REMARK    6  A    between atoms: C_10  and  O_11 
REMARK    7  A    between atoms: O_11  and  C_12 
ROOT
HETATM    1  N   UNL     1      42.709 -18.011   2.806  1.00  0.00    -0.334 N 
HETATM    2  C   UNL     1      42.779 -17.404   1.582  1.00  0.00     0.316 C 
HETATM    3  N   UNL     1      41.528 -17.116   1.099  1.00  0.00    -0.339 N 
HETATM    4  O   UNL     1      43.820 -17.137   0.998  1.00  0.00    -0.247 OA
HETATM    5  H   UNL     1      41.820 -18.400   3.072  1.00  0.00     0.165 HD
HETATM    6  H   UNL     1      40.800 -17.038   1.791  1.00  0.00     0.164 HD
ENDROOT
BRANCH   3   7
HETATM    7  C   UNL     1      41.361 -16.308  -0.089  1.00  0.00     0.163 C 
BRANCH   7   8
HETATM    8  C   UNL     1      41.067 -14.882   0.292  1.00  0.00    -0.035 A 
HETATM    9  C   UNL     1      42.005 -13.875   0.045  1.00  0.00     0.066 A 
HETATM   10  C   UNL     1      41.735 -12.595   0.498  1.00  0.00     0.164 A 
HETATM   11  N   UNL     1      40.610 -12.246   1.157  1.00  0.00    -0.237 NA
HETATM   12  C   UNL     1      39.712 -13.229   1.372  1.00  0.00     0.120 A 
HETATM   13  C   UNL     1      39.893 -14.545   0.972  1.00  0.00     0.028 A 
BRANCH  10  14
HETATM   14  O   UNL     1      42.697 -11.635   0.257  1.00  0.00    -0.329 OA
BRANCH  14  15
HETATM   15  C   UNL     1      42.969 -11.357  -1.134  1.00  0.00     0.130 C 
HETATM   16  C   UNL     1      41.780 -10.820  -1.976  1.00  0.00     0.032 C 
HETATM   17  C   UNL     1      42.771  -9.858  -2.653  1.00  0.00     0.005 C 
HETATM   18  C   UNL     1      43.657  -9.993  -1.403  1.00  0.00     0.032 C 
ENDBRANCH  14  15
ENDBRANCH  10  14
ENDBRANCH   7   8
ENDBRANCH   3   7
BRANCH   1  19
HETATM   19  C   UNL     1      43.892 -18.475   3.515  1.00  0.00     0.119 C 
BRANCH  19  20
HETATM   20  C   UNL     1      43.822 -18.070   5.002  1.00  0.00     0.025 C 
HETATM   21  C   UNL     1      42.421 -17.769   5.523  1.00  0.00     0.007 C 
ENDBRANCH  19  20
BRANCH  19  22
HETATM   22  C   UNL     1      44.161 -19.961   3.329  1.00  0.00    -0.033 A 
HETATM   23  C   UNL     1      44.609 -20.715   4.423  1.00  0.00     0.028 A 
HETATM   24  C   UNL     1      44.824 -22.076   4.263  1.00  0.00     0.116 A 
HETATM   25  N   UNL     1      44.625 -22.736   3.104  1.00  0.00    -0.273 NA
HETATM   26  C   UNL     1      44.203 -21.998   2.057  1.00  0.00     0.116 A 
HETATM   27  C   UNL     1      43.959 -20.634   2.119  1.00  0.00     0.028 A 
ENDBRANCH  19  22
ENDBRANCH   1  19
TORSDOF 7
ENDMDL
MODEL 6
REMARK VINA RESULT:      -7.2      2.666      8.885
REMARK  7 active torsions:
REMARK  status: ('A' for Active; 'I' for Inactive)
REMARK    1  A    between atoms: C_2  and  C_3 
REMARK    2  A    between atoms: C_3  and  N_4 
REMARK    3  A    between atoms: C_3  and  C_20 
REMARK       I    between atoms: N_4  and  C_5 
REMARK       I    between atoms: C_5  and  N_6 
REMARK    4  A    between atoms: N_6  and  C_7 
REMARK    5  A    between atoms: C_7  and  C_8 
REMARK    6  A    between atoms: C_10  and  O_11 
REMARK    7  A    between atoms: O_11  and  C_12 
ROOT
HETATM    1  N   UNL     1      40.244 -15.545   2.326  1.00  0.00    -0.334 N 
HETATM    2  C   UNL     1      41.325 -16.021   1.634  1.00  0.00     0.316 C 
HETATM    3  N   UNL     1      41.735 -17.233   2.129  1.00  0.00    -0.339 N 
HETATM    4  O   UNL     1      41.849 -15.451   0.688  1.00  0.00    -0.247 OA
HETATM    5  H   UNL     1      40.057 -15.963   3.221  1.00  0.00     0.165 HD
HETATM    6  H   UNL     1      41.039 -17.758   2.631  1.00  0.00     0.164 HD
ENDROOT
BRANCH   3   7
HETATM    7  C   UNL     1      42.740 -18.012   1.439  1.00  0.00     0.163 C 
BRANCH   7   8
HETATM    8  C   UNL     1      43.432 -18.937   2.405  1.00  0.00    -0.035 A 
HETATM    9  C   UNL     1      43.814 -18.480   3.670  1.00  0.00     0.066 A 
HETATM   10  C   UNL     1      44.532 -19.333   4.490  1.00  0.00     0.164 A 
HETATM   11  N   UNL     1      44.881 -20.593   4.154  1.00  0.00    -0.237 NA
HETATM   12  C   UNL     1      44.490 -21.018   2.935  1.00  0.00     0.120 A 
HETATM   13  C   UNL     1      43.781 -20.238   2.033  1.00  0.00     0.028 A 
BRANCH  10  14
HETATM   14  O   UNL     1      44.913 -18.837   5.722  1.00  0.00    -0.329 OA
BRANCH  14  15
HETATM   15  C   UNL     1      43.852 -18.275   6.524  1.00  0.00     0.130 C 
HETATM   16  C   UNL     1      43.893 -18.595   8.043  1.00  0.00     0.032 C 
HETATM   17  C   UNL     1      43.466 -17.140   8.302  1.00  0.00     0.005 C 
HETATM   18  C   UNL     1      44.057 -16.791   6.925  1.00  0.00     0.032 C 
ENDBRANCH  14  15
ENDBRANCH  10  14
ENDBRANCH   7   8
ENDBRANCH   3   7
BRANCH   1  19
HETATM   19  C   UNL     1      39.647 -14.249   2.041  1.00  0.00     0.119 C 
BRANCH  19  20
HETATM   20  C   UNL     1      38.349 -14.422   1.225  1.00  0.00     0.025 C 
HETATM   21  C   UNL     1      38.409 -13.890  -0.203  1.00  0.00     0.007 C 
ENDBRANCH  19  20
BRANCH  19  22
HETATM   22  C   UNL     1      39.443 -13.395   3.284  1.00  0.00    -0.033 A 
HETATM   23  C   UNL     1      38.878 -12.119   3.149  1.00  0.00     0.028 A 
HETATM   24  C   UNL     1      38.663 -11.351   4.284  1.00  0.00     0.116 A 
HETATM   25  N   UNL     1      38.963 -11.760   5.534  1.00  0.00    -0.273 NA
HETATM   26  C   UNL     1      39.513 -12.985   5.650  1.00  0.00     0.116 A 
HETATM   27  C   UNL     1      39.767 -13.826   4.575  1.00  0.00     0.028 A 
ENDBRANCH  19  22
ENDBRANCH   1  19
TORSDOF 7
ENDMDL
MODEL 7
REMARK VINA RESULT:      -7.2      1.401      2.249
REMARK  7 active torsions:
REMARK  status: ('A' for Active; 'I' for Inactive)
REMARK    1  A    between atoms: C_2  and  C_3 
REMARK    2  A    between atoms: C_3  and  N_4 
REMARK    3  A    between atoms: C_3  and  C_20 
REMARK       I    between atoms: N_4  and  C_5 
REMARK       I    between atoms: C_5  and  N_6 
REMARK    4  A    between atoms: N_6  and  C_7 
REMARK    5  A    between atoms: C_7  and  C_8 
REMARK    6  A    between atoms: C_10  and  O_11 
REMARK    7  A    between atoms: O_11  and  C_12 
ROOT
HETATM    1  N   UNL     1      42.072 -16.555   2.660  1.00  0.00    -0.334 N 
HETATM    2  C   UNL     1      42.369 -15.228   2.504  1.00  0.00     0.316 C 
HETATM    3  N   UNL     1      41.917 -14.758   1.297  1.00  0.00    -0.339 N 
HETATM    4  O   UNL     1      42.949 -14.544   3.336  1.00  0.00    -0.247 OA
HETATM    5  H   UNL     1      41.824 -17.067   1.831  1.00  0.00     0.165 HD
HETATM    6  H   UNL     1      41.164 -15.279   0.880  1.00  0.00     0.164 HD
ENDROOT
BRANCH   3   7
HETATM    7  C   UNL     1      41.953 -13.343   0.994  1.00  0.00     0.163 C 
BRANCH   7   8
HETATM    8  C   UNL     1      41.968 -13.135  -0.497  1.00  0.00    -0.035 A 
HETATM    9  C   UNL     1      41.426 -14.099  -1.352  1.00  0.00     0.066 A 
HETATM   10  C   UNL     1      41.548 -13.913  -2.718  1.00  0.00     0.164 A 
HETATM   11  N   UNL     1      42.148 -12.846  -3.287  1.00  0.00    -0.237 NA
HETATM   12  C   UNL     1      42.650 -11.921  -2.445  1.00  0.00     0.120 A 
HETATM   13  C   UNL     1      42.594 -12.020  -1.062  1.00  0.00     0.028 A 
BRANCH  10  14
HETATM   14  O   UNL     1      41.022 -14.900  -3.529  1.00  0.00    -0.329 OA
BRANCH  14  15
HETATM   15  C   UNL     1      39.674 -15.312  -3.218  1.00  0.00     0.130 C 
HETATM   16  C   UNL     1      38.567 -14.236  -3.385  1.00  0.00     0.032 C 
HETATM   17  C   UNL     1      37.670 -15.335  -3.980  1.00  0.00     0.005 C 
HETATM   18  C   UNL     1      38.956 -16.094  -4.349  1.00  0.00     0.032 C 
ENDBRANCH  14  15
ENDBRANCH  10  14
ENDBRANCH   7   8
ENDBRANCH   3   7
BRANCH   1  19
HETATM   19  C   UNL     1      42.492 -17.314   3.828  1.00  0.00     0.119 C 
BRANCH  19  20
HETATM   20  C   UNL     1      41.295 -17.558   4.771  1.00  0.00     0.025 C 
HETATM   21  C   UNL     1      41.071 -16.476   5.822  1.00  0.00     0.007 C 
ENDBRANCH  19  20
BRANCH  19  22
HETATM   22  C   UNL     1      43.226 -18.600   3.478  1.00  0.00    -0.033 A 
HETATM   23  C   UNL     1      42.972 -19.216   2.244  1.00  0.00     0.028 A 
HETATM   24  C   UNL     1      43.664 -20.370   1.909  1.00  0.00     0.116 A 
HETATM   25  N   UNL     1      44.585 -20.951   2.705  1.00  0.00    -0.273 NA
HETATM   26  C   UNL     1      44.814 -20.354   3.892  1.00  0.00     0.116 A 
HETATM   27  C   UNL     1      44.174 -19.198   4.315  1.00  0.00     0.028 A 
ENDBRANCH  19  22
ENDBRANCH   1  19
TORSDOF 7
ENDMDL
MODEL 8
REMARK VINA RESULT:      -7.1      2.350      4.338
REMARK  7 active torsions:
REMARK  status: ('A' for Active; 'I' for Inactive)
REMARK    1  A    between atoms: C_2  and  C_3 
REMARK    2  A    between atoms: C_3  and  N_4 
REMARK    3  A    between atoms: C_3  and  C_20 
REMARK       I    between atoms: N_4  and  C_5 
REMARK       I    between atoms: C_5  and  N_6 
REMARK    4  A    between atoms: N_6  and  C_7 
REMARK    5  A    between atoms: C_7  and  C_8 
REMARK    6  A    between atoms: C_10  and  O_11 
REMARK    7  A    between atoms: O_11  and  C_12 
ROOT
HETATM    1  N   UNL     1      42.650 -17.036   2.535  1.00  0.00    -0.334 N 
HETATM    2  C   UNL     1      41.499 -16.566   1.963  1.00  0.00     0.316 C 
HETATM    3  N   UNL     1      41.674 -15.301   1.463  1.00  0.00    -0.339 N 
HETATM    4  O   UNL     1      40.453 -17.195   1.891  1.00  0.00    -0.247 OA
HETATM    5  H   UNL     1      43.358 -16.357   2.757  1.00  0.00     0.165 HD
HETATM    6  H   UNL     1      42.624 -15.043   1.250  1.00  0.00     0.164 HD
ENDROOT
BRANCH   3   7
HETATM    7  C   UNL     1      40.652 -14.677   0.651  1.00  0.00     0.163 C 
BRANCH   7   8
HETATM    8  C   UNL     1      41.093 -14.626  -0.787  1.00  0.00    -0.035 A 
HETATM    9  C   UNL     1      41.778 -13.510  -1.277  1.00  0.00     0.066 A 
HETATM   10  C   UNL     1      42.080 -13.462  -2.627  1.00  0.00     0.164 A 
HETATM   11  N   UNL     1      41.767 -14.434  -3.509  1.00  0.00    -0.237 NA
HETATM   12  C   UNL     1      41.120 -15.508  -3.012  1.00  0.00     0.120 A 
HETATM   13  C   UNL     1      40.758 -15.647  -1.680  1.00  0.00     0.028 A 
BRANCH  10  14
HETATM   14  O   UNL     1      42.735 -12.332  -3.078  1.00  0.00    -0.329 OA
BRANCH  14  15
HETATM   15  C   UNL     1      42.376 -11.098  -2.420  1.00  0.00     0.130 C 
HETATM   16  C   UNL     1      43.455 -10.469  -1.496  1.00  0.00     0.032 C 
HETATM   17  C   UNL     1      43.046  -9.095  -2.052  1.00  0.00     0.005 C 
HETATM   18  C   UNL     1      42.520  -9.828  -3.298  1.00  0.00     0.032 C 
ENDBRANCH  14  15
ENDBRANCH  10  14
ENDBRANCH   7   8
ENDBRANCH   3   7
BRANCH   1  19
HETATM   19  C   UNL     1      42.720 -18.332   3.193  1.00  0.00     0.119 C 
BRANCH  19  20
HETATM   20  C   UNL     1      43.849 -19.186   2.580  1.00  0.00     0.025 C 
HETATM   21  C   UNL     1      43.395 -20.497   1.947  1.00  0.00     0.007 C 
ENDBRANCH  19  20
BRANCH  19  22
HETATM   22  C   UNL     1      42.823 -18.232   4.707  1.00  0.00    -0.033 A 
HETATM   23  C   UNL     1      43.776 -19.012   5.379  1.00  0.00     0.028 A 
HETATM   24  C   UNL     1      43.893 -18.899   6.757  1.00  0.00     0.116 A 
HETATM   25  N   UNL     1      43.139 -18.071   7.508  1.00  0.00    -0.273 NA
HETATM   26  C   UNL     1      42.221 -17.333   6.852  1.00  0.00     0.116 A 
HETATM   27  C   UNL     1      42.029 -17.376   5.478  1.00  0.00     0.028 A 
ENDBRANCH  19  22
ENDBRANCH   1  19
TORSDOF 7
ENDMDL
MODEL 9
REMARK VINA RESULT:      -7.0      2.097      7.951
REMARK  7 active torsions:
REMARK  status: ('A' for Active; 'I' for Inactive)
REMARK    1  A    between atoms: C_2  and  C_3 
REMARK    2  A    between atoms: C_3  and  N_4 
REMARK    3  A    between atoms: C_3  and  C_20 
REMARK       I    between atoms: N_4  and  C_5 
REMARK       I    between atoms: C_5  and  N_6 
REMARK    4  A    between atoms: N_6  and  C_7 
REMARK    5  A    between atoms: C_7  and  C_8 
REMARK    6  A    between atoms: C_10  and  O_11 
REMARK    7  A    between atoms: O_11  and  C_12 
ROOT
HETATM    1  N   UNL     1      42.441 -15.853   0.639  1.00  0.00    -0.334 N 
HETATM    2  C   UNL     1      42.249 -17.175   0.939  1.00  0.00     0.316 C 
HETATM    3  N   UNL     1      43.446 -17.820   1.120  1.00  0.00    -0.339 N 
HETATM    4  O   UNL     1      41.155 -17.710   1.047  1.00  0.00    -0.247 OA
HETATM    5  H   UNL     1      43.361 -15.584   0.335  1.00  0.00     0.165 HD
HETATM    6  H   UNL     1      44.225 -17.234   1.368  1.00  0.00     0.164 HD
ENDROOT
BRANCH   3   7
HETATM    7  C   UNL     1      43.486 -19.176   1.626  1.00  0.00     0.163 C 
BRANCH   7   8
HETATM    8  C   UNL     1      43.783 -19.168   3.101  1.00  0.00    -0.035 A 
HETATM    9  C   UNL     1      43.349 -18.109   3.905  1.00  0.00     0.066 A 
HETATM   10  C   UNL     1      43.726 -18.094   5.237  1.00  0.00     0.164 A 
HETATM   11  N   UNL     1      44.481 -19.047   5.822  1.00  0.00    -0.237 NA
HETATM   12  C   UNL     1      44.877 -20.066   5.032  1.00  0.00     0.120 A 
HETATM   13  C   UNL     1      44.566 -20.168   3.684  1.00  0.00     0.028 A 
BRANCH  10  14
HETATM   14  O   UNL     1      43.298 -17.019   5.991  1.00  0.00    -0.329 OA
BRANCH  14  15
HETATM   15  C   UNL     1      42.265 -16.206   5.393  1.00  0.00     0.130 C 
HETATM   16  C   UNL     1      40.843 -16.339   6.000  1.00  0.00     0.032 C 
HETATM   17  C   UNL     1      40.699 -14.815   5.848  1.00  0.00     0.005 C 
HETATM   18  C   UNL     1      42.235 -14.733   5.877  1.00  0.00     0.032 C 
ENDBRANCH  14  15
ENDBRANCH  10  14
ENDBRANCH   7   8
ENDBRANCH   3   7
BRANCH   1  19
HETATM   19  C   UNL     1      41.336 -14.954   0.342  1.00  0.00     0.119 C 
BRANCH  19  20
HETATM   20  C   UNL     1      41.261 -13.828   1.395  1.00  0.00     0.025 C 
HETATM   21  C   UNL     1      42.478 -13.716   2.307  1.00  0.00     0.007 C 
ENDBRANCH  19  20
BRANCH  19  22
HETATM   22  C   UNL     1      41.364 -14.417  -1.081  1.00  0.00    -0.033 A 
HETATM   23  C   UNL     1      40.648 -15.094  -2.079  1.00  0.00     0.028 A 
HETATM   24  C   UNL     1      40.646 -14.589  -3.371  1.00  0.00     0.116 A 
HETATM   25  N   UNL     1      41.298 -13.467  -3.739  1.00  0.00    -0.273 NA
HETATM   26  C   UNL     1      41.990 -12.830  -2.772  1.00  0.00     0.116 A 
HETATM   27  C   UNL     1      42.051 -13.256  -1.453  1.00  0.00     0.028 A 
ENDBRANCH  19  22
ENDBRANCH   1  19
TORSDOF 7
ENDMDL
MODEL 10
REMARK VINA RESULT:      -6.8      4.399      8.443
REMARK  7 active torsions:
REMARK  status: ('A' for Active; 'I' for Inactive)
REMARK    1  A    between atoms: C_2  and  C_3 
REMARK    2  A    between atoms: C_3  and  N_4 
REMARK    3  A    between atoms: C_3  and  C_20 
REMARK       I    between atoms: N_4  and  C_5 
REMARK       I    between atoms: C_5  and  N_6 
REMARK    4  A    between atoms: N_6  and  C_7 
REMARK    5  A    between atoms: C_7  and  C_8 
REMARK    6  A    between atoms: C_10  and  O_11 
REMARK    7  A    between atoms: O_11  and  C_12 
ROOT
HETATM    1  N   UNL     1      42.351 -14.985   6.165  1.00  0.00    -0.334 N 
HETATM    2  C   UNL     1      43.199 -15.639   7.017  1.00  0.00     0.316 C 
HETATM    3  N   UNL     1      42.734 -16.896   7.310  1.00  0.00    -0.339 N 
HETATM    4  O   UNL     1      44.243 -15.174   7.451  1.00  0.00    -0.247 OA
HETATM    5  H   UNL     1      41.421 -15.355   6.074  1.00  0.00     0.165 HD
HETATM    6  H   UNL     1      42.099 -17.294   6.638  1.00  0.00     0.164 HD
ENDROOT
BRANCH   3   7
HETATM    7  C   UNL     1      43.555 -17.838   8.040  1.00  0.00     0.163 C 
BRANCH   7   8
HETATM    8  C   UNL     1      43.869 -19.029   7.175  1.00  0.00    -0.035 A 
HETATM    9  C   UNL     1      44.181 -18.859   5.823  1.00  0.00     0.066 A 
HETATM   10  C   UNL     1      44.369 -19.987   5.042  1.00  0.00     0.164 A 
HETATM   11  N   UNL     1      44.282 -21.252   5.505  1.00  0.00    -0.237 NA
HETATM   12  C   UNL     1      43.995 -21.393   6.815  1.00  0.00     0.120 A 
HETATM   13  C   UNL     1      43.775 -20.330   7.678  1.00  0.00     0.028 A 
BRANCH  10  14
HETATM   14  O   UNL     1      44.651 -19.778   3.707  1.00  0.00    -0.329 OA
BRANCH  14  15
HETATM   15  C   UNL     1      43.727 -18.924   2.999  1.00  0.00     0.130 C 
HETATM   16  C   UNL     1      44.354 -17.806   2.122  1.00  0.00     0.032 C 
HETATM   17  C   UNL     1      43.279 -18.113   1.065  1.00  0.00     0.005 C 
HETATM   18  C   UNL     1      43.170 -19.519   1.679  1.00  0.00     0.032 C 
ENDBRANCH  14  15
ENDBRANCH  10  14
ENDBRANCH   7   8
ENDBRANCH   3   7
BRANCH   1  19
HETATM   19  C   UNL     1      42.581 -13.611   5.742  1.00  0.00     0.119 C 
BRANCH  19  20
HETATM   20  C   UNL     1      43.250 -13.581   4.352  1.00  0.00     0.025 C 
HETATM   21  C   UNL     1      42.914 -14.763   3.449  1.00  0.00     0.007 C 
ENDBRANCH  19  20
BRANCH  19  22
HETATM   22  C   UNL     1      41.330 -12.747   5.803  1.00  0.00    -0.033 A 
HETATM   23  C   UNL     1      41.467 -11.360   5.959  1.00  0.00     0.028 A 
HETATM   24  C   UNL     1      40.329 -10.566   5.984  1.00  0.00     0.116 A 
HETATM   25  N   UNL     1      39.076 -11.048   5.863  1.00  0.00    -0.273 NA
HETATM   26  C   UNL     1      38.957 -12.384   5.723  1.00  0.00     0.116 A 
HETATM   27  C   UNL     1      40.033 -13.259   5.685  1.00  0.00     0.028 A 
ENDBRANCH  19  22
ENDBRANCH   1  19
TORSDOF 7
ENDMDL
