MODEL 1
REMARK VINA RESULT:      -8.7      0.000      0.000
REMARK  9 active torsions:
REMARK  status: ('A' for Active; 'I' for Inactive)
REMARK    1  A    between atoms: C_3  and  N_4 
REMARK    2  A    between atoms: N_4  and  C_5 
REMARK    3  A    between atoms: C_7  and  C_8 
REMARK    4  A    between atoms: C_19  and  N_20 
REMARK       I    between atoms: N_20  and  C_21 
REMARK    5  A    between atoms: C_21  and  C_22 
REMARK    6  A    between atoms: C_24  and  N_25 
REMARK       I    between atoms: N_25  and  C_26 
REMARK    7  A    between atoms: C_26  and  C_27 
REMARK    8  A    between atoms: C_28  and  C_29 
REMARK    9  A    between atoms: C_29  and  N_30 
ROOT
HETATM    1  C   UNL     1      44.087 -13.951   4.853  1.00  0.00     0.050 C 
HETATM    2  C   UNL     1      42.681 -14.323   4.460  1.00  0.00    -0.033 A 
HETATM    3  C   UNL     1      41.829 -15.021   5.341  1.00  0.00     0.055 A 
HETATM    4  C   UNL     1      40.540 -15.332   4.890  1.00  0.00     0.033 A 
HETATM    5  C   UNL     1      40.102 -14.999   3.602  1.00  0.00     0.032 A 
HETATM    6  C   UNL     1      40.958 -14.364   2.713  1.00  0.00     0.035 A 
HETATM    7  C   UNL     1      42.240 -14.014   3.156  1.00  0.00     0.038 A 
ENDROOT
BRANCH   6   8
HETATM    8  N   UNL     1      40.634 -14.086   1.366  1.00  0.00    -0.323 N 
HETATM    9  C   UNL     1      41.015 -14.812   0.250  1.00  0.00     0.256 C 
HETATM   10  O   UNL     1      41.627 -15.874   0.241  1.00  0.00    -0.267 OA
HETATM   11  H   UNL     1      40.151 -13.212   1.217  1.00  0.00     0.169 HD
BRANCH   9  12
HETATM   12  C   UNL     1      40.674 -14.200  -1.069  1.00  0.00     0.034 A 
HETATM   13  C   UNL     1      39.375 -14.218  -1.597  1.00  0.00     0.046 A 
HETATM   14  C   UNL     1      39.098 -13.603  -2.822  1.00  0.00     0.035 A 
HETATM   15  C   UNL     1      40.142 -13.000  -3.533  1.00  0.00     0.029 A 
HETATM   16  C   UNL     1      41.442 -12.999  -3.028  1.00  0.00     0.003 A 
HETATM   17  C   UNL     1      41.707 -13.597  -1.798  1.00  0.00     0.017 A 
BRANCH  14  18
HETATM   18  N   UNL     1      37.810 -13.556  -3.403  1.00  0.00    -0.324 N 
HETATM   19  C   UNL     1      37.245 -14.500  -4.229  1.00  0.00     0.245 C 
HETATM   20  O   UNL     1      37.725 -15.569  -4.588  1.00  0.00    -0.268 OA
HETATM   21  H   UNL     1      37.264 -12.739  -3.164  1.00  0.00     0.169 HD
BRANCH  19  22
HETATM   22  C   UNL     1      35.875 -14.119  -4.683  1.00  0.00     0.072 C 
HETATM   23  C   UNL     1      35.731 -12.998  -5.410  1.00  0.00     0.006 C 
BRANCH  23  24
HETATM   24  C   UNL     1      34.449 -12.501  -5.984  1.00  0.00     0.261 C 
BRANCH  24  25
HETATM   25  N   UNL     1      34.190 -13.047  -7.366  1.00  0.00    -0.076 N 
HETATM   26  H   UNL     1      33.822 -14.000  -7.244  1.00  0.00     0.279 HD
HETATM   27  C   UNL     1      33.146 -12.274  -8.124  1.00  0.00     0.269 C 
HETATM   28  C   UNL     1      35.461 -13.178  -8.158  1.00  0.00     0.269 C 
ENDBRANCH  24  25
ENDBRANCH  23  24
ENDBRANCH  19  22
ENDBRANCH  14  18
ENDBRANCH   9  12
ENDBRANCH   6   8
BRANCH   3  29
HETATM   29  N   UNL     1      42.299 -15.471   6.583  1.00  0.00    -0.188 N 
HETATM   30  H   UNL     1      42.254 -14.843   7.368  1.00  0.00     0.184 HD
BRANCH  29  31
HETATM   31  C   UNL     1      42.965 -16.637   6.956  1.00  0.00     0.727 A 
HETATM   32  N   UNL     1      43.226 -17.502   5.962  1.00  0.00    -0.062 NA
HETATM   33  C   UNL     1      43.839 -18.670   6.269  1.00  0.00     0.089 A 
HETATM   34  C   UNL     1      44.169 -18.991   7.571  1.00  0.00     0.053 A 
HETATM   35  C   UNL     1      43.857 -18.056   8.521  1.00  0.00     0.139 A 
HETATM   36  N   UNL     1      43.266 -16.887   8.237  1.00  0.00    -0.075 NA
BRANCH  33  37
HETATM   37  C   UNL     1      44.110 -19.572   5.135  1.00  0.00     0.011 A 
HETATM   38  C   UNL     1      44.519 -20.892   5.336  1.00  0.00     0.130 A 
HETATM   39  N   UNL     1      44.806 -21.782   4.352  1.00  0.00    -0.272 NA
HETATM   40  C   UNL     1      44.673 -21.346   3.084  1.00  0.00     0.116 A 
HETATM   41  C   UNL     1      44.265 -20.066   2.758  1.00  0.00     0.020 A 
HETATM   42  C   UNL     1      43.981 -19.177   3.794  1.00  0.00     0.017 A 
ENDBRANCH  33  37
ENDBRANCH  29  31
ENDBRANCH   3  29
TORSDOF 9
ENDMDL
MODEL 2
REMARK VINA RESULT:      -8.6      5.325     12.870
REMARK  9 active torsions:
REMARK  status: ('A' for Active; 'I' for Inactive)
REMARK    1  A    between atoms: C_3  and  N_4 
REMARK    2  A    between atoms: N_4  and  C_5 
REMARK    3  A    between atoms: C_7  and  C_8 
REMARK    4  A    between atoms: C_19  and  N_20 
REMARK       I    between atoms: N_20  and  C_21 
REMARK    5  A    between atoms: C_21  and  C_22 
REMARK    6  A    between atoms: C_24  and  N_25 
REMARK       I    between atoms: N_25  and  C_26 
REMARK    7  A    between atoms: C_26  and  C_27 
REMARK    8  A    between atoms: C_28  and  C_29 
REMARK    9  A    between atoms: C_29  and  N_30 
ROOT
HETATM    1  C   UNL     1      43.539 -17.219   1.127  1.00  0.00     0.050 C 
HETATM    2  C   UNL     1      42.892 -16.088   1.883  1.00  0.00    -0.033 A 
HETATM    3  C   UNL     1      41.683 -15.507   1.450  1.00  0.00     0.055 A 
HETATM    4  C   UNL     1      41.156 -14.455   2.211  1.00  0.00     0.033 A 
HETATM    5  C   UNL     1      41.808 -13.961   3.348  1.00  0.00     0.032 A 
HETATM    6  C   UNL     1      43.028 -14.493   3.743  1.00  0.00     0.035 A 
HETATM    7  C   UNL     1      43.554 -15.568   3.015  1.00  0.00     0.038 A 
ENDROOT
BRANCH   6   8
HETATM    8  N   UNL     1      43.801 -13.987   4.812  1.00  0.00    -0.323 N 
HETATM    9  C   UNL     1      43.939 -14.539   6.075  1.00  0.00     0.256 C 
HETATM   10  O   UNL     1      43.484 -15.610   6.459  1.00  0.00    -0.267 OA
HETATM   11  H   UNL     1      44.215 -13.082   4.645  1.00  0.00     0.169 HD
BRANCH   9  12
HETATM   12  C   UNL     1      44.684 -13.708   7.067  1.00  0.00     0.034 A 
HETATM   13  C   UNL     1      44.117 -13.293   8.281  1.00  0.00     0.046 A 
HETATM   14  C   UNL     1      44.865 -12.542   9.194  1.00  0.00     0.035 A 
HETATM   15  C   UNL     1      46.177 -12.178   8.863  1.00  0.00     0.029 A 
HETATM   16  C   UNL     1      46.739 -12.565   7.647  1.00  0.00     0.003 A 
HETATM   17  C   UNL     1      45.995 -13.329   6.752  1.00  0.00     0.017 A 
BRANCH  14  18
HETATM   18  N   UNL     1      44.373 -12.113  10.447  1.00  0.00    -0.324 N 
HETATM   19  C   UNL     1      43.401 -11.165  10.668  1.00  0.00     0.245 C 
HETATM   20  O   UNL     1      42.753 -10.543   9.835  1.00  0.00    -0.268 OA
HETATM   21  H   UNL     1      44.788 -12.572  11.248  1.00  0.00     0.169 HD
BRANCH  19  22
HETATM   22  C   UNL     1      43.141 -10.938  12.121  1.00  0.00     0.072 C 
HETATM   23  C   UNL     1      43.454  -9.742  12.648  1.00  0.00     0.006 C 
BRANCH  23  24
HETATM   24  C   UNL     1      43.215  -9.333  14.060  1.00  0.00     0.261 C 
BRANCH  24  25
HETATM   25  N   UNL     1      42.722  -7.911  14.168  1.00  0.00    -0.076 N 
HETATM   26  H   UNL     1      43.494  -7.359  14.565  1.00  0.00     0.279 HD
HETATM   27  C   UNL     1      42.390  -7.295  12.837  1.00  0.00     0.269 C 
HETATM   28  C   UNL     1      41.574  -7.794  15.131  1.00  0.00     0.269 C 
ENDBRANCH  24  25
ENDBRANCH  23  24
ENDBRANCH  19  22
ENDBRANCH  14  18
ENDBRANCH   9  12
ENDBRANCH   6   8
BRANCH   3  29
HETATM   29  N   UNL     1      41.089 -15.907   0.244  1.00  0.00    -0.188 N 
HETATM   30  H   UNL     1      40.612 -16.793   0.216  1.00  0.00     0.184 HD
BRANCH  29  31
HETATM   31  C   UNL     1      41.124 -15.356  -1.036  1.00  0.00     0.727 A 
HETATM   32  N   UNL     1      41.514 -14.072  -1.106  1.00  0.00    -0.062 NA
HETATM   33  C   UNL     1      41.532 -13.470  -2.319  1.00  0.00     0.089 A 
HETATM   34  C   UNL     1      41.137 -14.138  -3.462  1.00  0.00     0.053 A 
HETATM   35  C   UNL     1      40.745 -15.439  -3.296  1.00  0.00     0.139 A 
HETATM   36  N   UNL     1      40.735 -16.059  -2.107  1.00  0.00    -0.075 NA
BRANCH  33  37
HETATM   37  C   UNL     1      41.981 -12.066  -2.333  1.00  0.00     0.011 A 
HETATM   38  C   UNL     1      41.364 -11.113  -3.148  1.00  0.00     0.130 A 
HETATM   39  N   UNL     1      41.724  -9.807  -3.236  1.00  0.00    -0.272 NA
HETATM   40  C   UNL     1      42.755  -9.410  -2.464  1.00  0.00     0.116 A 
HETATM   41  C   UNL     1      43.437 -10.256  -1.609  1.00  0.00     0.020 A 
HETATM   42  C   UNL     1      43.043 -11.593  -1.546  1.00  0.00     0.017 A 
ENDBRANCH  33  37
ENDBRANCH  29  31
ENDBRANCH   3  29
TORSDOF 9
ENDMDL
MODEL 3
REMARK VINA RESULT:      -8.4      4.797      9.385
REMARK  9 active torsions:
REMARK  status: ('A' for Active; 'I' for Inactive)
REMARK    1  A    between atoms: C_3  and  N_4 
REMARK    2  A    between atoms: N_4  and  C_5 
REMARK    3  A    between atoms: C_7  and  C_8 
REMARK    4  A    between atoms: C_19  and  N_20 
REMARK       I    between atoms: N_20  and  C_21 
REMARK    5  A    between atoms: C_21  and  C_22 
REMARK    6  A    between atoms: C_24  and  N_25 
REMARK       I    between atoms: N_25  and  C_26 
REMARK    7  A    between atoms: C_26  and  C_27 
REMARK    8  A    between atoms: C_28  and  C_29 
REMARK    9  A    between atoms: C_29  and  N_30 
ROOT
HETATM    1  C   UNL     1      40.478  -8.937   6.219  1.00  0.00     0.050 C 
HETATM    2  C   UNL     1      40.100 -10.395   6.214  1.00  0.00    -0.033 A 
HETATM    3  C   UNL     1      39.523 -11.012   7.342  1.00  0.00     0.055 A 
HETATM    4  C   UNL     1      39.210 -12.375   7.250  1.00  0.00     0.033 A 
HETATM    5  C   UNL     1      39.482 -13.124   6.099  1.00  0.00     0.032 A 
HETATM    6  C   UNL     1      40.103 -12.533   5.008  1.00  0.00     0.035 A 
HETATM    7  C   UNL     1      40.393 -11.163   5.067  1.00  0.00     0.038 A 
ENDROOT
BRANCH   6   8
HETATM    8  N   UNL     1      40.506 -13.236   3.851  1.00  0.00    -0.323 N 
HETATM    9  C   UNL     1      39.917 -13.187   2.598  1.00  0.00     0.256 C 
HETATM   10  O   UNL     1      38.996 -12.459   2.251  1.00  0.00    -0.267 OA
HETATM   11  H   UNL     1      41.247 -13.907   3.998  1.00  0.00     0.169 HD
BRANCH   9  12
HETATM   12  C   UNL     1      40.444 -14.162   1.596  1.00  0.00     0.034 A 
HETATM   13  C   UNL     1      41.023 -15.385   1.965  1.00  0.00     0.046 A 
HETATM   14  C   UNL     1      41.474 -16.280   0.989  1.00  0.00     0.035 A 
HETATM   15  C   UNL     1      41.374 -15.922  -0.362  1.00  0.00     0.029 A 
HETATM   16  C   UNL     1      40.824 -14.696  -0.736  1.00  0.00     0.003 A 
HETATM   17  C   UNL     1      40.359 -13.819   0.241  1.00  0.00     0.017 A 
BRANCH  14  18
HETATM   18  N   UNL     1      42.041 -17.541   1.282  1.00  0.00    -0.324 N 
HETATM   19  C   UNL     1      43.376 -17.822   1.457  1.00  0.00     0.245 C 
HETATM   20  O   UNL     1      44.318 -17.040   1.431  1.00  0.00    -0.268 OA
HETATM   21  H   UNL     1      41.374 -18.296   1.377  1.00  0.00     0.169 HD
BRANCH  19  22
HETATM   22  C   UNL     1      43.626 -19.268   1.731  1.00  0.00     0.072 C 
HETATM   23  C   UNL     1      44.282 -19.602   2.855  1.00  0.00     0.006 C 
BRANCH  23  24
HETATM   24  C   UNL     1      44.570 -20.993   3.305  1.00  0.00     0.261 C 
BRANCH  24  25
HETATM   25  N   UNL     1      45.098 -21.040   4.717  1.00  0.00    -0.076 N 
HETATM   26  H   UNL     1      46.075 -20.720   4.678  1.00  0.00     0.279 HD
HETATM   27  C   UNL     1      44.376 -20.111   5.653  1.00  0.00     0.269 C 
HETATM   28  C   UNL     1      45.130 -22.445   5.251  1.00  0.00     0.269 C 
ENDBRANCH  24  25
ENDBRANCH  23  24
ENDBRANCH  19  22
ENDBRANCH  14  18
ENDBRANCH   9  12
ENDBRANCH   6   8
BRANCH   3  29
HETATM   29  N   UNL     1      39.366 -10.304   8.542  1.00  0.00    -0.188 N 
HETATM   30  H   UNL     1      38.732  -9.522   8.557  1.00  0.00     0.184 HD
BRANCH  29  31
HETATM   31  C   UNL     1      40.032 -10.386   9.764  1.00  0.00     0.727 A 
HETATM   32  N   UNL     1      41.324 -10.749   9.697  1.00  0.00    -0.062 NA
HETATM   33  C   UNL     1      42.015 -10.881  10.855  1.00  0.00     0.089 A 
HETATM   34  C   UNL     1      41.414 -10.679  12.082  1.00  0.00     0.053 A 
HETATM   35  C   UNL     1      40.092 -10.322  12.055  1.00  0.00     0.139 A 
HETATM   36  N   UNL     1      39.394 -10.169  10.920  1.00  0.00    -0.075 NA
BRANCH  33  37
HETATM   37  C   UNL     1      43.431 -11.269  10.718  1.00  0.00     0.011 A 
HETATM   38  C   UNL     1      43.920 -12.450  11.281  1.00  0.00     0.130 A 
HETATM   39  N   UNL     1      45.208 -12.873  11.219  1.00  0.00    -0.272 NA
HETATM   40  C   UNL     1      46.072 -12.085  10.549  1.00  0.00     0.116 A 
HETATM   41  C   UNL     1      45.706 -10.899   9.939  1.00  0.00     0.020 A 
HETATM   42  C   UNL     1      44.374 -10.493  10.025  1.00  0.00     0.017 A 
ENDBRANCH  33  37
ENDBRANCH  29  31
ENDBRANCH   3  29
TORSDOF 9
ENDMDL
MODEL 4
REMARK VINA RESULT:      -7.9      5.125     13.112
REMARK  9 active torsions:
REMARK  status: ('A' for Active; 'I' for Inactive)
REMARK    1  A    between atoms: C_3  and  N_4 
REMARK    2  A    between atoms: N_4  and  C_5 
REMARK    3  A    between atoms: C_7  and  C_8 
REMARK    4  A    between atoms: C_19  and  N_20 
REMARK       I    between atoms: N_20  and  C_21 
REMARK    5  A    between atoms: C_21  and  C_22 
REMARK    6  A    between atoms: C_24  and  N_25 
REMARK       I    between atoms: N_25  and  C_26 
REMARK    7  A    between atoms: C_26  and  C_27 
REMARK    8  A    between atoms: C_28  and  C_29 
REMARK    9  A    between atoms: C_29  and  N_30 
ROOT
HETATM    1  C   UNL     1      42.835 -16.892   0.932  1.00  0.00     0.050 C 
HETATM    2  C   UNL     1      42.349 -15.701   1.716  1.00  0.00    -0.033 A 
HETATM    3  C   UNL     1      41.216 -14.964   1.313  1.00  0.00     0.055 A 
HETATM    4  C   UNL     1      40.840 -13.867   2.099  1.00  0.00     0.033 A 
HETATM    5  C   UNL     1      41.567 -13.478   3.231  1.00  0.00     0.032 A 
HETATM    6  C   UNL     1      42.715 -14.167   3.597  1.00  0.00     0.035 A 
HETATM    7  C   UNL     1      43.089 -15.288   2.844  1.00  0.00     0.038 A 
ENDROOT
BRANCH   6   8
HETATM    8  N   UNL     1      43.563 -13.782   4.659  1.00  0.00    -0.323 N 
HETATM    9  C   UNL     1      43.625 -14.345   5.923  1.00  0.00     0.256 C 
HETATM   10  O   UNL     1      43.015 -15.334   6.314  1.00  0.00    -0.267 OA
HETATM   11  H   UNL     1      44.108 -12.950   4.487  1.00  0.00     0.169 HD
BRANCH   9  12
HETATM   12  C   UNL     1      44.494 -13.634   6.908  1.00  0.00     0.034 A 
HETATM   13  C   UNL     1      44.021 -13.198   8.155  1.00  0.00     0.046 A 
HETATM   14  C   UNL     1      44.881 -12.564   9.057  1.00  0.00     0.035 A 
HETATM   15  C   UNL     1      46.212 -12.337   8.686  1.00  0.00     0.029 A 
HETATM   16  C   UNL     1      46.684 -12.745   7.438  1.00  0.00     0.003 A 
HETATM   17  C   UNL     1      45.826 -13.393   6.552  1.00  0.00     0.017 A 
BRANCH  14  18
HETATM   18  N   UNL     1      44.486 -12.123  10.341  1.00  0.00    -0.324 N 
HETATM   19  C   UNL     1      43.866 -10.933  10.647  1.00  0.00     0.245 C 
HETATM   20  O   UNL     1      43.506 -10.053   9.875  1.00  0.00    -0.268 OA
HETATM   21  H   UNL     1      44.681 -12.770  11.093  1.00  0.00     0.169 HD
BRANCH  19  22
HETATM   22  C   UNL     1      43.613 -10.779  12.110  1.00  0.00     0.072 C 
HETATM   23  C   UNL     1      43.600  -9.540  12.630  1.00  0.00     0.006 C 
BRANCH  23  24
HETATM   24  C   UNL     1      43.314  -9.205  14.053  1.00  0.00     0.261 C 
BRANCH  24  25
HETATM   25  N   UNL     1      42.527  -7.926  14.193  1.00  0.00    -0.076 N 
HETATM   26  H   UNL     1      43.147  -7.245  14.652  1.00  0.00     0.279 HD
HETATM   27  C   UNL     1      42.129  -7.326  12.872  1.00  0.00     0.269 C 
HETATM   28  C   UNL     1      41.339  -8.101  15.097  1.00  0.00     0.269 C 
ENDBRANCH  24  25
ENDBRANCH  23  24
ENDBRANCH  19  22
ENDBRANCH  14  18
ENDBRANCH   9  12
ENDBRANCH   6   8
BRANCH   3  29
HETATM   29  N   UNL     1      40.558 -15.265   0.112  1.00  0.00    -0.188 N 
HETATM   30  H   UNL     1      40.009 -16.107   0.066  1.00  0.00     0.184 HD
BRANCH  29  31
HETATM   31  C   UNL     1      40.602 -14.667  -1.146  1.00  0.00     0.727 A 
HETATM   32  N   UNL     1      39.410 -14.407  -1.708  1.00  0.00    -0.062 NA
HETATM   33  C   UNL     1      39.388 -13.860  -2.947  1.00  0.00     0.089 A 
HETATM   34  C   UNL     1      40.554 -13.594  -3.640  1.00  0.00     0.053 A 
HETATM   35  C   UNL     1      41.722 -13.900  -2.995  1.00  0.00     0.139 A 
HETATM   36  N   UNL     1      41.767 -14.427  -1.762  1.00  0.00    -0.075 NA
BRANCH  33  37
HETATM   37  C   UNL     1      38.052 -13.586  -3.505  1.00  0.00     0.011 A 
HETATM   38  C   UNL     1      37.493 -12.306  -3.461  1.00  0.00     0.130 A 
HETATM   39  N   UNL     1      36.265 -11.971  -3.933  1.00  0.00    -0.272 NA
HETATM   40  C   UNL     1      35.542 -12.959  -4.495  1.00  0.00     0.116 A 
HETATM   41  C   UNL     1      35.991 -14.263  -4.608  1.00  0.00     0.020 A 
HETATM   42  C   UNL     1      37.256 -14.573  -4.109  1.00  0.00     0.017 A 
ENDBRANCH  33  37
ENDBRANCH  29  31
ENDBRANCH   3  29
TORSDOF 9
ENDMDL
MODEL 5
REMARK VINA RESULT:      -7.9      1.371      1.849
REMARK  9 active torsions:
REMARK  status: ('A' for Active; 'I' for Inactive)
REMARK    1  A    between atoms: C_3  and  N_4 
REMARK    2  A    between atoms: N_4  and  C_5 
REMARK    3  A    between atoms: C_7  and  C_8 
REMARK    4  A    between atoms: C_19  and  N_20 
REMARK       I    between atoms: N_20  and  C_21 
REMARK    5  A    between atoms: C_21  and  C_22 
REMARK    6  A    between atoms: C_24  and  N_25 
REMARK       I    between atoms: N_25  and  C_26 
REMARK    7  A    between atoms: C_26  and  C_27 
REMARK    8  A    between atoms: C_28  and  C_29 
REMARK    9  A    between atoms: C_29  and  N_30 
ROOT
HETATM    1  C   UNL     1      40.080 -14.570   5.497  1.00  0.00     0.050 C 
HETATM    2  C   UNL     1      41.107 -14.770   4.413  1.00  0.00    -0.033 A 
HETATM    3  C   UNL     1      42.392 -15.274   4.697  1.00  0.00     0.055 A 
HETATM    4  C   UNL     1      43.285 -15.421   3.628  1.00  0.00     0.033 A 
HETATM    5  C   UNL     1      42.946 -15.056   2.319  1.00  0.00     0.032 A 
HETATM    6  C   UNL     1      41.702 -14.505   2.047  1.00  0.00     0.035 A 
HETATM    7  C   UNL     1      40.782 -14.381   3.096  1.00  0.00     0.038 A 
ENDROOT
BRANCH   6   8
HETATM    8  N   UNL     1      41.315 -14.014   0.779  1.00  0.00    -0.323 N 
HETATM    9  C   UNL     1      41.212 -14.737  -0.399  1.00  0.00     0.256 C 
HETATM   10  O   UNL     1      41.353 -15.947  -0.529  1.00  0.00    -0.267 OA
HETATM   11  H   UNL     1      41.194 -13.013   0.730  1.00  0.00     0.169 HD
BRANCH   9  12
HETATM   12  C   UNL     1      40.944 -13.934  -1.629  1.00  0.00     0.034 A 
HETATM   13  C   UNL     1      39.647 -13.686  -2.101  1.00  0.00     0.046 A 
HETATM   14  C   UNL     1      39.445 -12.901  -3.241  1.00  0.00     0.035 A 
HETATM   15  C   UNL     1      40.556 -12.397  -3.928  1.00  0.00     0.029 A 
HETATM   16  C   UNL     1      41.851 -12.662  -3.480  1.00  0.00     0.003 A 
HETATM   17  C   UNL     1      42.044 -13.428  -2.333  1.00  0.00     0.017 A 
BRANCH  14  18
HETATM   18  N   UNL     1      38.168 -12.584  -3.760  1.00  0.00    -0.324 N 
HETATM   19  C   UNL     1      37.540 -11.361  -3.706  1.00  0.00     0.245 C 
HETATM   20  O   UNL     1      37.971 -10.314  -3.239  1.00  0.00    -0.268 OA
HETATM   21  H   UNL     1      37.693 -13.348  -4.221  1.00  0.00     0.169 HD
BRANCH  19  22
HETATM   22  C   UNL     1      36.185 -11.385  -4.333  1.00  0.00     0.072 C 
HETATM   23  C   UNL     1      35.540 -12.561  -4.418  1.00  0.00     0.006 C 
BRANCH  23  24
HETATM   24  C   UNL     1      34.168 -12.755  -4.965  1.00  0.00     0.261 C 
BRANCH  24  25
HETATM   25  N   UNL     1      34.177 -13.032  -6.447  1.00  0.00    -0.076 N 
HETATM   26  H   UNL     1      33.381 -13.656  -6.637  1.00  0.00     0.279 HD
HETATM   27  C   UNL     1      33.967 -11.799  -7.283  1.00  0.00     0.269 C 
HETATM   28  C   UNL     1      35.413 -13.777  -6.866  1.00  0.00     0.269 C 
ENDBRANCH  24  25
ENDBRANCH  23  24
ENDBRANCH  19  22
ENDBRANCH  14  18
ENDBRANCH   9  12
ENDBRANCH   6   8
BRANCH   3  29
HETATM   29  N   UNL     1      42.786 -15.521   6.020  1.00  0.00    -0.188 N 
HETATM   30  H   UNL     1      42.851 -14.742   6.654  1.00  0.00     0.184 HD
BRANCH  29  31
HETATM   31  C   UNL     1      43.249 -16.675   6.651  1.00  0.00     0.727 A 
HETATM   32  N   UNL     1      43.517 -17.713   5.841  1.00  0.00    -0.062 NA
HETATM   33  C   UNL     1      43.936 -18.874   6.400  1.00  0.00     0.089 A 
HETATM   34  C   UNL     1      44.063 -19.011   7.769  1.00  0.00     0.053 A 
HETATM   35  C   UNL     1      43.758 -17.906   8.517  1.00  0.00     0.139 A 
HETATM   36  N   UNL     1      43.358 -16.743   7.984  1.00  0.00    -0.075 NA
BRANCH  33  37
HETATM   37  C   UNL     1      44.227 -19.971   5.460  1.00  0.00     0.011 A 
HETATM   38  C   UNL     1      44.311 -19.747   4.084  1.00  0.00     0.130 A 
HETATM   39  N   UNL     1      44.556 -20.700   3.149  1.00  0.00    -0.272 NA
HETATM   40  C   UNL     1      44.739 -21.957   3.599  1.00  0.00     0.116 A 
HETATM   41  C   UNL     1      44.691 -22.302   4.937  1.00  0.00     0.020 A 
HETATM   42  C   UNL     1      44.434 -21.298   5.871  1.00  0.00     0.017 A 
ENDBRANCH  33  37
ENDBRANCH  29  31
ENDBRANCH   3  29
TORSDOF 9
ENDMDL
MODEL 6
REMARK VINA RESULT:      -7.8      2.166      2.966
REMARK  9 active torsions:
REMARK  status: ('A' for Active; 'I' for Inactive)
REMARK    1  A    between atoms: C_3  and  N_4 
REMARK    2  A    between atoms: N_4  and  C_5 
REMARK    3  A    between atoms: C_7  and  C_8 
REMARK    4  A    between atoms: C_19  and  N_20 
REMARK       I    between atoms: N_20  and  C_21 
REMARK    5  A    between atoms: C_21  and  C_22 
REMARK    6  A    between atoms: C_24  and  N_25 
REMARK       I    between atoms: N_25  and  C_26 
REMARK    7  A    between atoms: C_26  and  C_27 
REMARK    8  A    between atoms: C_28  and  C_29 
REMARK    9  A    between atoms: C_29  and  N_30 
ROOT
HETATM    1  C   UNL     1      40.199 -16.493   2.049  1.00  0.00     0.050 C 
HETATM    2  C   UNL     1      40.907 -15.197   1.752  1.00  0.00    -0.033 A 
HETATM    3  C   UNL     1      41.685 -14.540   2.727  1.00  0.00     0.055 A 
HETATM    4  C   UNL     1      42.302 -13.335   2.364  1.00  0.00     0.033 A 
HETATM    5  C   UNL     1      42.139 -12.769   1.094  1.00  0.00     0.032 A 
HETATM    6  C   UNL     1      41.327 -13.384   0.152  1.00  0.00     0.035 A 
HETATM    7  C   UNL     1      40.729 -14.606   0.483  1.00  0.00     0.038 A 
ENDROOT
BRANCH   6   8
HETATM    8  N   UNL     1      41.026 -12.831  -1.113  1.00  0.00    -0.323 N 
HETATM    9  C   UNL     1      41.926 -12.481  -2.106  1.00  0.00     0.256 C 
HETATM   10  O   UNL     1      43.136 -12.671  -2.097  1.00  0.00    -0.267 OA
HETATM   11  H   UNL     1      40.055 -12.589  -1.250  1.00  0.00     0.169 HD
BRANCH   9  12
HETATM   12  C   UNL     1      41.348 -11.760  -3.280  1.00  0.00     0.034 A 
HETATM   13  C   UNL     1      39.981 -11.802  -3.593  1.00  0.00     0.046 A 
HETATM   14  C   UNL     1      39.481 -11.085  -4.684  1.00  0.00     0.035 A 
HETATM   15  C   UNL     1      40.369 -10.353  -5.483  1.00  0.00     0.029 A 
HETATM   16  C   UNL     1      41.733 -10.327  -5.194  1.00  0.00     0.003 A 
HETATM   17  C   UNL     1      42.221 -11.028  -4.094  1.00  0.00     0.017 A 
BRANCH  14  18
HETATM   18  N   UNL     1      38.115 -11.055  -5.045  1.00  0.00    -0.324 N 
HETATM   19  C   UNL     1      37.190 -10.103  -4.685  1.00  0.00     0.245 C 
HETATM   20  O   UNL     1      37.373  -9.089  -4.022  1.00  0.00    -0.268 OA
HETATM   21  H   UNL     1      37.814 -11.818  -5.638  1.00  0.00     0.169 HD
BRANCH  19  22
HETATM   22  C   UNL     1      35.828 -10.395  -5.223  1.00  0.00     0.072 C 
HETATM   23  C   UNL     1      35.362 -11.652  -5.136  1.00  0.00     0.006 C 
BRANCH  23  24
HETATM   24  C   UNL     1      34.011 -12.103  -5.575  1.00  0.00     0.261 C 
BRANCH  24  25
HETATM   25  N   UNL     1      34.066 -12.937  -6.831  1.00  0.00    -0.076 N 
HETATM   26  H   UNL     1      33.305 -13.625  -6.763  1.00  0.00     0.279 HD
HETATM   27  C   UNL     1      33.819 -12.141  -8.083  1.00  0.00     0.269 C 
HETATM   28  C   UNL     1      35.345 -13.721  -6.922  1.00  0.00     0.269 C 
ENDBRANCH  24  25
ENDBRANCH  23  24
ENDBRANCH  19  22
ENDBRANCH  14  18
ENDBRANCH   9  12
ENDBRANCH   6   8
BRANCH   3  29
HETATM   29  N   UNL     1      41.750 -15.030   4.039  1.00  0.00    -0.188 N 
HETATM   30  H   UNL     1      41.105 -14.663   4.719  1.00  0.00     0.184 HD
BRANCH  29  31
HETATM   31  C   UNL     1      42.652 -15.887   4.667  1.00  0.00     0.727 A 
HETATM   32  N   UNL     1      42.867 -17.060   4.048  1.00  0.00    -0.062 NA
HETATM   33  C   UNL     1      43.707 -17.950   4.630  1.00  0.00     0.089 A 
HETATM   34  C   UNL     1      44.314 -17.684   5.842  1.00  0.00     0.053 A 
HETATM   35  C   UNL     1      44.029 -16.469   6.405  1.00  0.00     0.139 A 
HETATM   36  N   UNL     1      43.215 -15.567   5.839  1.00  0.00    -0.075 NA
BRANCH  33  37
HETATM   37  C   UNL     1      43.912 -19.213   3.898  1.00  0.00     0.011 A 
HETATM   38  C   UNL     1      44.575 -20.294   4.484  1.00  0.00     0.130 A 
HETATM   39  N   UNL     1      44.823 -21.483   3.877  1.00  0.00    -0.272 NA
HETATM   40  C   UNL     1      44.380 -21.621   2.612  1.00  0.00     0.116 A 
HETATM   41  C   UNL     1      43.701 -20.628   1.930  1.00  0.00     0.020 A 
HETATM   42  C   UNL     1      43.466 -19.418   2.582  1.00  0.00     0.017 A 
ENDBRANCH  33  37
ENDBRANCH  29  31
ENDBRANCH   3  29
TORSDOF 9
ENDMDL
MODEL 7
REMARK VINA RESULT:      -7.6      3.146     12.661
REMARK  9 active torsions:
REMARK  status: ('A' for Active; 'I' for Inactive)
REMARK    1  A    between atoms: C_3  and  N_4 
REMARK    2  A    between atoms: N_4  and  C_5 
REMARK    3  A    between atoms: C_7  and  C_8 
REMARK    4  A    between atoms: C_19  and  N_20 
REMARK       I    between atoms: N_20  and  C_21 
REMARK    5  A    between atoms: C_21  and  C_22 
REMARK    6  A    between atoms: C_24  and  N_25 
REMARK       I    between atoms: N_25  and  C_26 
REMARK    7  A    between atoms: C_26  and  C_27 
REMARK    8  A    between atoms: C_28  and  C_29 
REMARK    9  A    between atoms: C_29  and  N_30 
ROOT
HETATM    1  C   UNL     1      41.660 -13.013  -1.543  1.00  0.00     0.050 C 
HETATM    2  C   UNL     1      40.942 -13.647  -0.380  1.00  0.00    -0.033 A 
HETATM    3  C   UNL     1      39.534 -13.664  -0.302  1.00  0.00     0.055 A 
HETATM    4  C   UNL     1      38.952 -14.269   0.820  1.00  0.00     0.033 A 
HETATM    5  C   UNL     1      39.722 -14.815   1.854  1.00  0.00     0.032 A 
HETATM    6  C   UNL     1      41.107 -14.747   1.807  1.00  0.00     0.035 A 
HETATM    7  C   UNL     1      41.710 -14.177   0.678  1.00  0.00     0.038 A 
ENDROOT
BRANCH   6   8
HETATM    8  N   UNL     1      41.955 -15.178   2.852  1.00  0.00    -0.323 N 
HETATM    9  C   UNL     1      42.186 -16.484   3.254  1.00  0.00     0.256 C 
HETATM   10  O   UNL     1      41.763 -17.500   2.717  1.00  0.00    -0.267 OA
HETATM   11  H   UNL     1      42.353 -14.436   3.409  1.00  0.00     0.169 HD
BRANCH   9  12
HETATM   12  C   UNL     1      42.999 -16.645   4.496  1.00  0.00     0.034 A 
HETATM   13  C   UNL     1      43.168 -15.610   5.428  1.00  0.00     0.046 A 
HETATM   14  C   UNL     1      43.913 -15.818   6.593  1.00  0.00     0.035 A 
HETATM   15  C   UNL     1      44.520 -17.063   6.800  1.00  0.00     0.029 A 
HETATM   16  C   UNL     1      44.379 -18.089   5.866  1.00  0.00     0.003 A 
HETATM   17  C   UNL     1      43.620 -17.881   4.717  1.00  0.00     0.017 A 
BRANCH  14  18
HETATM   18  N   UNL     1      44.103 -14.834   7.590  1.00  0.00    -0.324 N 
HETATM   19  C   UNL     1      44.952 -13.754   7.528  1.00  0.00     0.245 C 
HETATM   20  O   UNL     1      45.672 -13.416   6.597  1.00  0.00    -0.268 OA
HETATM   21  H   UNL     1      43.537 -14.954   8.420  1.00  0.00     0.169 HD
BRANCH  19  22
HETATM   22  C   UNL     1      44.920 -12.928   8.771  1.00  0.00     0.072 C 
HETATM   23  C   UNL     1      44.213 -11.786   8.763  1.00  0.00     0.006 C 
BRANCH  23  24
HETATM   24  C   UNL     1      44.034 -10.873   9.927  1.00  0.00     0.261 C 
BRANCH  24  25
HETATM   25  N   UNL     1      42.595 -10.464  10.118  1.00  0.00    -0.076 N 
HETATM   26  H   UNL     1      42.100 -11.286  10.489  1.00  0.00     0.279 HD
HETATM   27  C   UNL     1      42.419  -9.362  11.126  1.00  0.00     0.269 C 
HETATM   28  C   UNL     1      41.936 -10.123   8.811  1.00  0.00     0.269 C 
ENDBRANCH  24  25
ENDBRANCH  23  24
ENDBRANCH  19  22
ENDBRANCH  14  18
ENDBRANCH   9  12
ENDBRANCH   6   8
BRANCH   3  29
HETATM   29  N   UNL     1      38.757 -13.008  -1.267  1.00  0.00    -0.188 N 
HETATM   30  H   UNL     1      38.558 -12.029  -1.137  1.00  0.00     0.184 HD
BRANCH  29  31
HETATM   31  C   UNL     1      38.060 -13.481  -2.377  1.00  0.00     0.727 A 
HETATM   32  N   UNL     1      37.189 -12.620  -2.927  1.00  0.00    -0.062 NA
HETATM   33  C   UNL     1      36.454 -13.035  -3.987  1.00  0.00     0.089 A 
HETATM   34  C   UNL     1      36.568 -14.319  -4.485  1.00  0.00     0.053 A 
HETATM   35  C   UNL     1      37.473 -15.132  -3.856  1.00  0.00     0.139 A 
HETATM   36  N   UNL     1      38.221 -14.736  -2.816  1.00  0.00    -0.075 NA
BRANCH  33  37
HETATM   37  C   UNL     1      35.526 -12.042  -4.555  1.00  0.00     0.011 A 
HETATM   38  C   UNL     1      35.983 -10.995  -5.361  1.00  0.00     0.130 A 
HETATM   39  N   UNL     1      35.203 -10.029  -5.908  1.00  0.00    -0.272 NA
HETATM   40  C   UNL     1      33.881 -10.103  -5.653  1.00  0.00     0.116 A 
HETATM   41  C   UNL     1      33.308 -11.096  -4.881  1.00  0.00     0.020 A 
HETATM   42  C   UNL     1      34.140 -12.071  -4.332  1.00  0.00     0.017 A 
ENDBRANCH  33  37
ENDBRANCH  29  31
ENDBRANCH   3  29
TORSDOF 9
ENDMDL
MODEL 8
REMARK VINA RESULT:      -7.6      4.946     12.711
REMARK  9 active torsions:
REMARK  status: ('A' for Active; 'I' for Inactive)
REMARK    1  A    between atoms: C_3  and  N_4 
REMARK    2  A    between atoms: N_4  and  C_5 
REMARK    3  A    between atoms: C_7  and  C_8 
REMARK    4  A    between atoms: C_19  and  N_20 
REMARK       I    between atoms: N_20  and  C_21 
REMARK    5  A    between atoms: C_21  and  C_22 
REMARK    6  A    between atoms: C_24  and  N_25 
REMARK       I    between atoms: N_25  and  C_26 
REMARK    7  A    between atoms: C_26  and  C_27 
REMARK    8  A    between atoms: C_28  and  C_29 
REMARK    9  A    between atoms: C_29  and  N_30 
ROOT
HETATM    1  C   UNL     1      42.364 -11.890  -1.788  1.00  0.00     0.050 C 
HETATM    2  C   UNL     1      42.098 -12.765  -0.591  1.00  0.00    -0.033 A 
HETATM    3  C   UNL     1      41.757 -14.126  -0.732  1.00  0.00     0.055 A 
HETATM    4  C   UNL     1      41.520 -14.862   0.437  1.00  0.00     0.033 A 
HETATM    5  C   UNL     1      41.582 -14.279   1.708  1.00  0.00     0.032 A 
HETATM    6  C   UNL     1      41.860 -12.927   1.847  1.00  0.00     0.035 A 
HETATM    7  C   UNL     1      42.134 -12.181   0.693  1.00  0.00     0.038 A 
ENDROOT
BRANCH   6   8
HETATM    8  N   UNL     1      41.841 -12.238   3.080  1.00  0.00    -0.323 N 
HETATM    9  C   UNL     1      40.729 -11.935   3.849  1.00  0.00     0.256 C 
HETATM   10  O   UNL     1      39.575 -12.288   3.637  1.00  0.00    -0.267 OA
HETATM   11  H   UNL     1      42.730 -11.857   3.367  1.00  0.00     0.169 HD
BRANCH   9  12
HETATM   12  C   UNL     1      40.976 -11.051   5.026  1.00  0.00     0.034 A 
HETATM   13  C   UNL     1      40.855 -11.503   6.349  1.00  0.00     0.046 A 
HETATM   14  C   UNL     1      41.129 -10.646   7.420  1.00  0.00     0.035 A 
HETATM   15  C   UNL     1      41.489  -9.318   7.155  1.00  0.00     0.029 A 
HETATM   16  C   UNL     1      41.587  -8.854   5.843  1.00  0.00     0.003 A 
HETATM   17  C   UNL     1      41.332  -9.718   4.782  1.00  0.00     0.017 A 
BRANCH  14  18
HETATM   18  N   UNL     1      41.056 -11.036   8.776  1.00  0.00    -0.324 N 
HETATM   19  C   UNL     1      40.023 -10.787   9.650  1.00  0.00     0.245 C 
HETATM   20  O   UNL     1      38.963 -10.218   9.418  1.00  0.00    -0.268 OA
HETATM   21  H   UNL     1      41.854 -11.560   9.112  1.00  0.00     0.169 HD
BRANCH  19  22
HETATM   22  C   UNL     1      40.288 -11.323  11.018  1.00  0.00     0.072 C 
HETATM   23  C   UNL     1      40.850 -10.508  11.927  1.00  0.00     0.006 C 
BRANCH  23  24
HETATM   24  C   UNL     1      41.134 -10.864  13.345  1.00  0.00     0.261 C 
BRANCH  24  25
HETATM   25  N   UNL     1      42.533 -10.483  13.762  1.00  0.00    -0.076 N 
HETATM   26  H   UNL     1      42.990 -11.345  14.088  1.00  0.00     0.279 HD
HETATM   27  C   UNL     1      43.367  -9.954  12.627  1.00  0.00     0.269 C 
HETATM   28  C   UNL     1      42.527  -9.535  14.928  1.00  0.00     0.269 C 
ENDBRANCH  24  25
ENDBRANCH  23  24
ENDBRANCH  19  22
ENDBRANCH  14  18
ENDBRANCH   9  12
ENDBRANCH   6   8
BRANCH   3  29
HETATM   29  N   UNL     1      41.566 -14.686  -2.002  1.00  0.00    -0.188 N 
HETATM   30  H   UNL     1      42.377 -14.890  -2.562  1.00  0.00     0.184 HD
BRANCH  29  31
HETATM   31  C   UNL     1      40.413 -14.927  -2.748  1.00  0.00     0.727 A 
HETATM   32  N   UNL     1      39.473 -13.969  -2.690  1.00  0.00    -0.062 NA
HETATM   33  C   UNL     1      38.314 -14.163  -3.365  1.00  0.00     0.089 A 
HETATM   34  C   UNL     1      38.079 -15.324  -4.076  1.00  0.00     0.053 A 
HETATM   35  C   UNL     1      39.087 -16.250  -4.071  1.00  0.00     0.139 A 
HETATM   36  N   UNL     1      40.248 -16.071  -3.424  1.00  0.00    -0.075 NA
BRANCH  33  37
HETATM   37  C   UNL     1      37.328 -13.072  -3.274  1.00  0.00     0.011 A 
HETATM   38  C   UNL     1      36.323 -12.918  -4.233  1.00  0.00     0.130 A 
HETATM   39  N   UNL     1      35.388 -11.934  -4.237  1.00  0.00    -0.272 NA
HETATM   40  C   UNL     1      35.439 -11.047  -3.223  1.00  0.00     0.116 A 
HETATM   41  C   UNL     1      36.377 -11.101  -2.209  1.00  0.00     0.020 A 
HETATM   42  C   UNL     1      37.326 -12.124  -2.239  1.00  0.00     0.017 A 
ENDBRANCH  33  37
ENDBRANCH  29  31
ENDBRANCH   3  29
TORSDOF 9
ENDMDL
MODEL 9
REMARK VINA RESULT:      -7.6      3.019      3.925
REMARK  9 active torsions:
REMARK  status: ('A' for Active; 'I' for Inactive)
REMARK    1  A    between atoms: C_3  and  N_4 
REMARK    2  A    between atoms: N_4  and  C_5 
REMARK    3  A    between atoms: C_7  and  C_8 
REMARK    4  A    between atoms: C_19  and  N_20 
REMARK       I    between atoms: N_20  and  C_21 
REMARK    5  A    between atoms: C_21  and  C_22 
REMARK    6  A    between atoms: C_24  and  N_25 
REMARK       I    between atoms: N_25  and  C_26 
REMARK    7  A    between atoms: C_26  and  C_27 
REMARK    8  A    between atoms: C_28  and  C_29 
REMARK    9  A    between atoms: C_29  and  N_30 
ROOT
HETATM    1  C   UNL     1      43.933 -13.817   4.590  1.00  0.00     0.050 C 
HETATM    2  C   UNL     1      42.445 -13.988   4.758  1.00  0.00    -0.033 A 
HETATM    3  C   UNL     1      41.902 -14.700   5.847  1.00  0.00     0.055 A 
HETATM    4  C   UNL     1      40.507 -14.815   5.919  1.00  0.00     0.033 A 
HETATM    5  C   UNL     1      39.665 -14.278   4.938  1.00  0.00     0.032 A 
HETATM    6  C   UNL     1      40.200 -13.626   3.836  1.00  0.00     0.035 A 
HETATM    7  C   UNL     1      41.590 -13.471   3.762  1.00  0.00     0.038 A 
ENDROOT
BRANCH   6   8
HETATM    8  N   UNL     1      39.431 -13.146   2.752  1.00  0.00    -0.323 N 
HETATM    9  C   UNL     1      39.143 -13.814   1.573  1.00  0.00     0.256 C 
HETATM   10  O   UNL     1      39.432 -14.973   1.299  1.00  0.00    -0.267 OA
HETATM   11  H   UNL     1      39.148 -12.180   2.827  1.00  0.00     0.169 HD
BRANCH   9  12
HETATM   12  C   UNL     1      38.449 -13.008   0.524  1.00  0.00     0.034 A 
HETATM   13  C   UNL     1      39.023 -12.744  -0.728  1.00  0.00     0.046 A 
HETATM   14  C   UNL     1      38.320 -12.011  -1.690  1.00  0.00     0.035 A 
HETATM   15  C   UNL     1      37.051 -11.512  -1.373  1.00  0.00     0.029 A 
HETATM   16  C   UNL     1      36.484 -11.747  -0.121  1.00  0.00     0.003 A 
HETATM   17  C   UNL     1      37.181 -12.495   0.825  1.00  0.00     0.017 A 
BRANCH  14  18
HETATM   18  N   UNL     1      38.820 -11.730  -2.982  1.00  0.00    -0.324 N 
HETATM   19  C   UNL     1      39.622 -10.672  -3.342  1.00  0.00     0.245 C 
HETATM   20  O   UNL     1      40.086  -9.800  -2.617  1.00  0.00    -0.268 OA
HETATM   21  H   UNL     1      38.554 -12.396  -3.697  1.00  0.00     0.169 HD
BRANCH  19  22
HETATM   22  C   UNL     1      39.944 -10.666  -4.799  1.00  0.00     0.072 C 
HETATM   23  C   UNL     1      41.077 -10.066  -5.202  1.00  0.00     0.006 C 
BRANCH  23  24
HETATM   24  C   UNL     1      41.573 -10.012  -6.606  1.00  0.00     0.261 C 
BRANCH  24  25
HETATM   25  N   UNL     1      41.845  -8.601  -7.064  1.00  0.00    -0.076 N 
HETATM   26  H   UNL     1      42.486  -8.668  -7.865  1.00  0.00     0.279 HD
HETATM   27  C   UNL     1      40.615  -7.887  -7.553  1.00  0.00     0.269 C 
HETATM   28  C   UNL     1      42.561  -7.804  -6.010  1.00  0.00     0.269 C 
ENDBRANCH  24  25
ENDBRANCH  23  24
ENDBRANCH  19  22
ENDBRANCH  14  18
ENDBRANCH   9  12
ENDBRANCH   6   8
BRANCH   3  29
HETATM   29  N   UNL     1      42.739 -15.352   6.763  1.00  0.00    -0.188 N 
HETATM   30  H   UNL     1      43.184 -14.803   7.479  1.00  0.00     0.184 HD
BRANCH  29  31
HETATM   31  C   UNL     1      43.207 -16.664   6.824  1.00  0.00     0.727 A 
HETATM   32  N   UNL     1      43.270 -17.313   5.650  1.00  0.00    -0.062 NA
HETATM   33  C   UNL     1      43.683 -18.604   5.649  1.00  0.00     0.089 A 
HETATM   34  C   UNL     1      44.008 -19.258   6.822  1.00  0.00     0.053 A 
HETATM   35  C   UNL     1      43.905 -18.522   7.972  1.00  0.00     0.139 A 
HETATM   36  N   UNL     1      43.514 -17.240   7.993  1.00  0.00    -0.075 NA
BRANCH  33  37
HETATM   37  C   UNL     1      43.744 -19.259   4.330  1.00  0.00     0.011 A 
HETATM   38  C   UNL     1      42.962 -18.814   3.261  1.00  0.00     0.130 A 
HETATM   39  N   UNL     1      42.942 -19.368   2.022  1.00  0.00    -0.272 NA
HETATM   40  C   UNL     1      43.753 -20.425   1.818  1.00  0.00     0.116 A 
HETATM   41  C   UNL     1      44.581 -20.949   2.794  1.00  0.00     0.020 A 
HETATM   42  C   UNL     1      44.574 -20.357   4.057  1.00  0.00     0.017 A 
ENDBRANCH  33  37
ENDBRANCH  29  31
ENDBRANCH   3  29
TORSDOF 9
ENDMDL
MODEL 10
REMARK VINA RESULT:      -7.5      1.898      2.369
REMARK  9 active torsions:
REMARK  status: ('A' for Active; 'I' for Inactive)
REMARK    1  A    between atoms: C_3  and  N_4 
REMARK    2  A    between atoms: N_4  and  C_5 
REMARK    3  A    between atoms: C_7  and  C_8 
REMARK    4  A    between atoms: C_19  and  N_20 
REMARK       I    between atoms: N_20  and  C_21 
REMARK    5  A    between atoms: C_21  and  C_22 
REMARK    6  A    between atoms: C_24  and  N_25 
REMARK       I    between atoms: N_25  and  C_26 
REMARK    7  A    between atoms: C_26  and  C_27 
REMARK    8  A    between atoms: C_28  and  C_29 
REMARK    9  A    between atoms: C_29  and  N_30 
ROOT
HETATM    1  C   UNL     1      40.410 -15.405   5.539  1.00  0.00     0.050 C 
HETATM    2  C   UNL     1      41.192 -14.729   4.443  1.00  0.00    -0.033 A 
HETATM    3  C   UNL     1      42.600 -14.661   4.475  1.00  0.00     0.055 A 
HETATM    4  C   UNL     1      43.245 -14.006   3.417  1.00  0.00     0.033 A 
HETATM    5  C   UNL     1      42.534 -13.405   2.371  1.00  0.00     0.032 A 
HETATM    6  C   UNL     1      41.147 -13.420   2.367  1.00  0.00     0.035 A 
HETATM    7  C   UNL     1      40.484 -14.099   3.398  1.00  0.00     0.038 A 
ENDROOT
BRANCH   6   8
HETATM    8  N   UNL     1      40.352 -12.752   1.409  1.00  0.00    -0.323 N 
HETATM    9  C   UNL     1      39.829 -13.284   0.242  1.00  0.00     0.256 C 
HETATM   10  O   UNL     1      39.891 -14.452  -0.121  1.00  0.00    -0.267 OA
HETATM   11  H   UNL     1      40.242 -11.760   1.566  1.00  0.00     0.169 HD
BRANCH   9  12
HETATM   12  C   UNL     1      39.164 -12.309  -0.673  1.00  0.00     0.034 A 
HETATM   13  C   UNL     1      38.364 -12.712  -1.753  1.00  0.00     0.046 A 
HETATM   14  C   UNL     1      37.736 -11.761  -2.564  1.00  0.00     0.035 A 
HETATM   15  C   UNL     1      37.946 -10.400  -2.308  1.00  0.00     0.029 A 
HETATM   16  C   UNL     1      38.761  -9.991  -1.251  1.00  0.00     0.003 A 
HETATM   17  C   UNL     1      39.368 -10.943  -0.436  1.00  0.00     0.017 A 
BRANCH  14  18
HETATM   18  N   UNL     1      36.894 -12.089  -3.651  1.00  0.00    -0.324 N 
HETATM   19  C   UNL     1      35.546 -11.834  -3.753  1.00  0.00     0.245 C 
HETATM   20  O   UNL     1      34.829 -11.249  -2.951  1.00  0.00    -0.268 OA
HETATM   21  H   UNL     1      37.356 -12.549  -4.425  1.00  0.00     0.169 HD
BRANCH  19  22
HETATM   22  C   UNL     1      34.963 -12.340  -5.031  1.00  0.00     0.072 C 
HETATM   23  C   UNL     1      35.681 -13.208  -5.763  1.00  0.00     0.006 C 
BRANCH  23  24
HETATM   24  C   UNL     1      35.230 -13.847  -7.031  1.00  0.00     0.261 C 
BRANCH  24  25
HETATM   25  N   UNL     1      36.247 -13.706  -8.136  1.00  0.00    -0.076 N 
HETATM   26  H   UNL     1      37.175 -13.750  -7.693  1.00  0.00     0.279 HD
HETATM   27  C   UNL     1      36.194 -14.826  -9.138  1.00  0.00     0.269 C 
HETATM   28  C   UNL     1      36.157 -12.364  -8.807  1.00  0.00     0.269 C 
ENDBRANCH  24  25
ENDBRANCH  23  24
ENDBRANCH  19  22
ENDBRANCH  14  18
ENDBRANCH   9  12
ENDBRANCH   6   8
BRANCH   3  29
HETATM   29  N   UNL     1      43.314 -15.145   5.581  1.00  0.00    -0.188 N 
HETATM   30  H   UNL     1      43.654 -14.483   6.258  1.00  0.00     0.184 HD
BRANCH  29  31
HETATM   31  C   UNL     1      43.783 -16.419   5.898  1.00  0.00     0.727 A 
HETATM   32  N   UNL     1      43.728 -17.322   4.906  1.00  0.00    -0.062 NA
HETATM   33  C   UNL     1      44.135 -18.589   5.164  1.00  0.00     0.089 A 
HETATM   34  C   UNL     1      44.573 -18.963   6.420  1.00  0.00     0.053 A 
HETATM   35  C   UNL     1      44.586 -17.980   7.373  1.00  0.00     0.139 A 
HETATM   36  N   UNL     1      44.203 -16.718   7.134  1.00  0.00    -0.075 NA
BRANCH  33  37
HETATM   37  C   UNL     1      44.063 -19.531   4.033  1.00  0.00     0.011 A 
HETATM   38  C   UNL     1      44.648 -20.797   4.103  1.00  0.00     0.130 A 
HETATM   39  N   UNL     1      44.646 -21.718   3.105  1.00  0.00    -0.272 NA
HETATM   40  C   UNL     1      44.017 -21.372   1.965  1.00  0.00     0.116 A 
HETATM   41  C   UNL     1      43.391 -20.153   1.779  1.00  0.00     0.020 A 
HETATM   42  C   UNL     1      43.416 -19.229   2.824  1.00  0.00     0.017 A 
ENDBRANCH  33  37
ENDBRANCH  29  31
ENDBRANCH   3  29
TORSDOF 9
ENDMDL
