MODEL 1
REMARK VINA RESULT:     -10.0      0.000      0.000
REMARK  8 active torsions:
REMARK  status: ('A' for Active; 'I' for Inactive)
REMARK    1  A    between atoms: N_2  and  C_3 
REMARK    2  A    between atoms: C_6  and  C_7 
REMARK    3  A    between atoms: N_8  and  C_9 
REMARK    4  A    between atoms: C_9  and  C_10 
REMARK    5  A    between atoms: C_14  and  N_15 
REMARK    6  A    between atoms: C_17  and  N_18 
REMARK    7  A    between atoms: C_19  and  C_20 
REMARK    8  A    between atoms: C_26  and  C_27 
ROOT
HETATM    1  C   UNL     1      42.352 -16.289   1.440  1.00  0.00     0.141 A 
HETATM    2  N   UNL     1      42.569 -15.864   2.741  1.00  0.00    -0.324 N 
HETATM    3  C   UNL     1      42.980 -16.966   3.490  1.00  0.00     0.076 A 
HETATM    4  C   UNL     1      43.063 -17.993   2.557  1.00  0.00     0.097 A 
HETATM    5  N   UNL     1      42.613 -17.573   1.333  1.00  0.00    -0.227 NA
ENDROOT
BRANCH   2   6
HETATM    6  C   UNL     1      42.468 -14.478   3.202  1.00  0.00     0.178 C 
BRANCH   6   7
HETATM    7  C   UNL     1      41.465 -14.158   4.271  1.00  0.00     0.068 A 
HETATM    8  C   UNL     1      42.047 -13.529   5.481  1.00  0.00     0.259 A 
HETATM    9  O   UNL     1      43.253 -13.338   5.611  1.00  0.00    -0.267 OA
HETATM   10  N   UNL     1      41.166 -13.142   6.439  1.00  0.00    -0.298 N 
HETATM   11  C   UNL     1      39.831 -13.288   6.285  1.00  0.00     0.181 A 
HETATM   12  H   UNL     1      41.546 -12.658   7.234  1.00  0.00     0.171 HD
HETATM   13  N   UNL     1      39.306 -13.841   5.245  1.00  0.00    -0.208 NA
HETATM   14  C   UNL     1      40.120 -14.272   4.227  1.00  0.00     0.117 A 
BRANCH  11  15
HETATM   15  N   UNL     1      39.052 -12.824   7.294  1.00  0.00    -0.272 NA
HETATM   16  H   UNL     1      38.136 -13.238   7.394  1.00  0.00     0.127 HD
HETATM   17  H   UNL     1      39.036 -11.809   7.325  1.00  0.00     0.127 HD
ENDBRANCH  11  15
BRANCH  14  18
HETATM   18  N   UNL     1      39.471 -14.792   3.125  1.00  0.00    -0.286 NA
HETATM   19  H   UNL     1      39.752 -14.336   2.262  1.00  0.00     0.125 HD
HETATM   20  H   UNL     1      39.705 -15.781   3.077  1.00  0.00     0.125 HD
ENDBRANCH  14  18
ENDBRANCH   6   7
ENDBRANCH   2   6
BRANCH   1  21
HETATM   21  C   UNL     1      41.870 -15.487   0.318  1.00  0.00     0.010 A 
HETATM   22  C   UNL     1      42.062 -14.108   0.252  1.00  0.00     0.017 A 
HETATM   23  C   UNL     1      41.668 -13.390  -0.889  1.00  0.00     0.030 A 
HETATM   24  C   UNL     1      41.102 -14.013  -2.017  1.00  0.00     0.029 A 
HETATM   25  C   UNL     1      40.896 -15.399  -1.908  1.00  0.00     0.030 A 
HETATM   26  C   UNL     1      41.281 -16.125  -0.773  1.00  0.00     0.017 A 
BRANCH  24  27
HETATM   27  N   UNL     1      40.738 -13.291  -3.164  1.00  0.00    -0.390 N 
HETATM   28  C   UNL     1      39.327 -12.950  -3.344  1.00  0.00     0.149 C 
HETATM   29  C   UNL     1      41.684 -12.313  -3.700  1.00  0.00     0.149 C 
ENDBRANCH  24  27
ENDBRANCH   1  21
BRANCH   3  30
HETATM   30  C   UNL     1      43.151 -16.985   4.943  1.00  0.00    -0.007 A 
HETATM   31  C   UNL     1      42.079 -17.388   5.753  1.00  0.00     0.014 A 
HETATM   32  C   UNL     1      42.210 -17.434   7.141  1.00  0.00     0.001 A 
HETATM   33  C   UNL     1      43.418 -17.074   7.734  1.00  0.00     0.000 A 
HETATM   34  C   UNL     1      44.492 -16.675   6.939  1.00  0.00     0.001 A 
HETATM   35  C   UNL     1      44.363 -16.636   5.547  1.00  0.00     0.014 A 
ENDBRANCH   3  30
BRANCH   4  36
HETATM   36  C   UNL     1      43.520 -19.362   2.752  1.00  0.00    -0.005 A 
HETATM   37  C   UNL     1      43.215 -20.325   1.777  1.00  0.00     0.014 A 
HETATM   38  C   UNL     1      43.686 -21.635   1.892  1.00  0.00     0.001 A 
HETATM   39  C   UNL     1      44.475 -21.996   2.981  1.00  0.00     0.000 A 
HETATM   40  C   UNL     1      44.793 -21.049   3.951  1.00  0.00     0.001 A 
HETATM   41  C   UNL     1      44.323 -19.737   3.835  1.00  0.00     0.014 A 
ENDBRANCH   4  36
TORSDOF 8
ENDMDL
MODEL 2
REMARK VINA RESULT:      -8.9      1.865      6.876
REMARK  8 active torsions:
REMARK  status: ('A' for Active; 'I' for Inactive)
REMARK    1  A    between atoms: N_2  and  C_3 
REMARK    2  A    between atoms: C_6  and  C_7 
REMARK    3  A    between atoms: N_8  and  C_9 
REMARK    4  A    between atoms: C_9  and  C_10 
REMARK    5  A    between atoms: C_14  and  N_15 
REMARK    6  A    between atoms: C_17  and  N_18 
REMARK    7  A    between atoms: C_19  and  C_20 
REMARK    8  A    between atoms: C_26  and  C_27 
ROOT
HETATM    1  C   UNL     1      42.091 -16.215   1.170  1.00  0.00     0.141 A 
HETATM    2  N   UNL     1      42.129 -14.878   1.528  1.00  0.00    -0.324 N 
HETATM    3  C   UNL     1      41.486 -14.147   0.530  1.00  0.00     0.076 A 
HETATM    4  C   UNL     1      41.021 -15.118  -0.349  1.00  0.00     0.097 A 
HETATM    5  N   UNL     1      41.457 -16.361   0.027  1.00  0.00    -0.227 NA
ENDROOT
BRANCH   2   6
HETATM    6  C   UNL     1      42.673 -14.357   2.783  1.00  0.00     0.178 C 
BRANCH   6   7
HETATM    7  C   UNL     1      41.735 -14.167   3.939  1.00  0.00     0.068 A 
HETATM    8  C   UNL     1      42.334 -13.462   5.098  1.00  0.00     0.259 A 
HETATM    9  O   UNL     1      43.512 -13.114   5.123  1.00  0.00    -0.267 OA
HETATM   10  N   UNL     1      41.499 -13.190   6.133  1.00  0.00    -0.298 N 
HETATM   11  C   UNL     1      40.186 -13.511   6.097  1.00  0.00     0.181 A 
HETATM   12  H   UNL     1      41.881 -12.658   6.895  1.00  0.00     0.171 HD
HETATM   13  N   UNL     1      39.648 -14.132   5.103  1.00  0.00    -0.208 NA
HETATM   14  C   UNL     1      40.418 -14.456   4.013  1.00  0.00     0.117 A 
BRANCH  11  15
HETATM   15  N   UNL     1      39.446 -13.149   7.173  1.00  0.00    -0.272 NA
HETATM   16  H   UNL     1      39.740 -13.503   8.073  1.00  0.00     0.127 HD
HETATM   17  H   UNL     1      38.451 -13.263   7.007  1.00  0.00     0.127 HD
ENDBRANCH  11  15
BRANCH  14  18
HETATM   18  N   UNL     1      39.748 -15.060   2.969  1.00  0.00    -0.286 NA
HETATM   19  H   UNL     1      40.382 -15.452   2.278  1.00  0.00     0.125 HD
HETATM   20  H   UNL     1      39.179 -15.805   3.366  1.00  0.00     0.125 HD
ENDBRANCH  14  18
ENDBRANCH   6   7
ENDBRANCH   2   6
BRANCH   1  21
HETATM   21  C   UNL     1      42.680 -17.340   1.893  1.00  0.00     0.010 A 
HETATM   22  C   UNL     1      43.787 -18.036   1.412  1.00  0.00     0.017 A 
HETATM   23  C   UNL     1      44.381 -19.048   2.184  1.00  0.00     0.030 A 
HETATM   24  C   UNL     1      43.923 -19.383   3.472  1.00  0.00     0.029 A 
HETATM   25  C   UNL     1      42.789 -18.682   3.917  1.00  0.00     0.030 A 
HETATM   26  C   UNL     1      42.186 -17.674   3.154  1.00  0.00     0.017 A 
BRANCH  24  27
HETATM   27  N   UNL     1      44.541 -20.376   4.248  1.00  0.00    -0.390 N 
HETATM   28  C   UNL     1      44.384 -20.312   5.701  1.00  0.00     0.149 C 
HETATM   29  C   UNL     1      44.647 -21.727   3.696  1.00  0.00     0.149 C 
ENDBRANCH  24  27
ENDBRANCH   1  21
BRANCH   3  30
HETATM   30  C   UNL     1      41.452 -12.687   0.437  1.00  0.00    -0.007 A 
HETATM   31  C   UNL     1      42.365 -12.034  -0.404  1.00  0.00     0.014 A 
HETATM   32  C   UNL     1      42.352 -10.645  -0.529  1.00  0.00     0.001 A 
HETATM   33  C   UNL     1      41.425  -9.894   0.190  1.00  0.00     0.000 A 
HETATM   34  C   UNL     1      40.511 -10.532   1.027  1.00  0.00     0.001 A 
HETATM   35  C   UNL     1      40.519 -11.925   1.147  1.00  0.00     0.014 A 
ENDBRANCH   3  30
BRANCH   4  36
HETATM   36  C   UNL     1      40.204 -14.947  -1.543  1.00  0.00    -0.005 A 
HETATM   37  C   UNL     1      40.528 -15.676  -2.698  1.00  0.00     0.014 A 
HETATM   38  C   UNL     1      39.736 -15.590  -3.845  1.00  0.00     0.001 A 
HETATM   39  C   UNL     1      38.604 -14.779  -3.848  1.00  0.00     0.000 A 
HETATM   40  C   UNL     1      38.264 -14.057  -2.706  1.00  0.00     0.001 A 
HETATM   41  C   UNL     1      39.057 -14.145  -1.557  1.00  0.00     0.014 A 
ENDBRANCH   4  36
TORSDOF 8
ENDMDL
MODEL 3
REMARK VINA RESULT:      -8.9      2.352      3.005
REMARK  8 active torsions:
REMARK  status: ('A' for Active; 'I' for Inactive)
REMARK    1  A    between atoms: N_2  and  C_3 
REMARK    2  A    between atoms: C_6  and  C_7 
REMARK    3  A    between atoms: N_8  and  C_9 
REMARK    4  A    between atoms: C_9  and  C_10 
REMARK    5  A    between atoms: C_14  and  N_15 
REMARK    6  A    between atoms: C_17  and  N_18 
REMARK    7  A    between atoms: C_19  and  C_20 
REMARK    8  A    between atoms: C_26  and  C_27 
ROOT
HETATM    1  C   UNL     1      40.821 -15.908   2.228  1.00  0.00     0.141 A 
HETATM    2  N   UNL     1      41.251 -15.487   3.475  1.00  0.00    -0.324 N 
HETATM    3  C   UNL     1      42.076 -16.479   4.003  1.00  0.00     0.076 A 
HETATM    4  C   UNL     1      42.158 -17.423   2.986  1.00  0.00     0.097 A 
HETATM    5  N   UNL     1      41.334 -17.085   1.945  1.00  0.00    -0.227 NA
ENDROOT
BRANCH   2   6
HETATM    6  C   UNL     1      40.953 -14.185   4.074  1.00  0.00     0.178 C 
BRANCH   6   7
HETATM    7  C   UNL     1      41.004 -12.971   3.194  1.00  0.00     0.068 A 
HETATM    8  C   UNL     1      42.278 -12.812   2.452  1.00  0.00     0.259 A 
HETATM    9  O   UNL     1      43.224 -13.582   2.591  1.00  0.00    -0.267 OA
HETATM   10  N   UNL     1      42.338 -11.776   1.577  1.00  0.00    -0.298 N 
HETATM   11  C   UNL     1      41.285 -10.955   1.366  1.00  0.00     0.181 A 
HETATM   12  H   UNL     1      43.174 -11.698   1.024  1.00  0.00     0.171 HD
HETATM   13  N   UNL     1      40.172 -11.070   2.008  1.00  0.00    -0.208 NA
HETATM   14  C   UNL     1      40.022 -12.085   2.920  1.00  0.00     0.117 A 
BRANCH  11  15
HETATM   15  N   UNL     1      41.453  -9.982   0.436  1.00  0.00    -0.272 NA
HETATM   16  H   UNL     1      41.116  -9.059   0.672  1.00  0.00     0.127 HD
HETATM   17  H   UNL     1      41.166 -10.287  -0.489  1.00  0.00     0.127 HD
ENDBRANCH  11  15
BRANCH  14  18
HETATM   18  N   UNL     1      38.779 -12.174   3.513  1.00  0.00    -0.286 NA
HETATM   19  H   UNL     1      38.819 -12.031   4.518  1.00  0.00     0.125 HD
HETATM   20  H   UNL     1      38.192 -11.456   3.092  1.00  0.00     0.125 HD
ENDBRANCH  14  18
ENDBRANCH   6   7
ENDBRANCH   2   6
BRANCH   1  21
HETATM   21  C   UNL     1      39.904 -15.211   1.329  1.00  0.00     0.010 A 
HETATM   22  C   UNL     1      38.565 -14.997   1.651  1.00  0.00     0.017 A 
HETATM   23  C   UNL     1      37.742 -14.239   0.802  1.00  0.00     0.030 A 
HETATM   24  C   UNL     1      38.222 -13.637  -0.377  1.00  0.00     0.029 A 
HETATM   25  C   UNL     1      39.569 -13.894  -0.687  1.00  0.00     0.030 A 
HETATM   26  C   UNL     1      40.398 -14.653   0.150  1.00  0.00     0.017 A 
BRANCH  24  27
HETATM   27  N   UNL     1      37.400 -12.858  -1.204  1.00  0.00    -0.390 N 
HETATM   28  C   UNL     1      36.853 -11.615  -0.658  1.00  0.00     0.149 C 
HETATM   29  C   UNL     1      37.680 -12.831  -2.640  1.00  0.00     0.149 C 
ENDBRANCH  24  27
ENDBRANCH   1  21
BRANCH   3  30
HETATM   30  C   UNL     1      42.604 -16.505   5.368  1.00  0.00    -0.007 A 
HETATM   31  C   UNL     1      43.669 -15.656   5.705  1.00  0.00     0.014 A 
HETATM   32  C   UNL     1      44.188 -15.643   7.000  1.00  0.00     0.001 A 
HETATM   33  C   UNL     1      43.646 -16.482   7.972  1.00  0.00     0.000 A 
HETATM   34  C   UNL     1      42.585 -17.327   7.649  1.00  0.00     0.001 A 
HETATM   35  C   UNL     1      42.061 -17.336   6.353  1.00  0.00     0.014 A 
ENDBRANCH   3  30
BRANCH   4  36
HETATM   36  C   UNL     1      42.950 -18.644   2.941  1.00  0.00    -0.005 A 
HETATM   37  C   UNL     1      42.747 -19.547   1.885  1.00  0.00     0.014 A 
HETATM   38  C   UNL     1      43.528 -20.699   1.768  1.00  0.00     0.001 A 
HETATM   39  C   UNL     1      44.526 -20.959   2.703  1.00  0.00     0.000 A 
HETATM   40  C   UNL     1      44.746 -20.068   3.750  1.00  0.00     0.001 A 
HETATM   41  C   UNL     1      43.965 -18.913   3.866  1.00  0.00     0.014 A 
ENDBRANCH   4  36
TORSDOF 8
ENDMDL
MODEL 4
REMARK VINA RESULT:      -8.8      1.966      7.218
REMARK  8 active torsions:
REMARK  status: ('A' for Active; 'I' for Inactive)
REMARK    1  A    between atoms: N_2  and  C_3 
REMARK    2  A    between atoms: C_6  and  C_7 
REMARK    3  A    between atoms: N_8  and  C_9 
REMARK    4  A    between atoms: C_9  and  C_10 
REMARK    5  A    between atoms: C_14  and  N_15 
REMARK    6  A    between atoms: C_17  and  N_18 
REMARK    7  A    between atoms: C_19  and  C_20 
REMARK    8  A    between atoms: C_26  and  C_27 
ROOT
HETATM    1  C   UNL     1      41.686 -15.459   0.937  1.00  0.00     0.141 A 
HETATM    2  N   UNL     1      41.874 -14.094   0.804  1.00  0.00    -0.324 N 
HETATM    3  C   UNL     1      41.269 -13.690  -0.385  1.00  0.00     0.076 A 
HETATM    4  C   UNL     1      40.673 -14.849  -0.868  1.00  0.00     0.097 A 
HETATM    5  N   UNL     1      40.996 -15.923  -0.082  1.00  0.00    -0.227 NA
ENDROOT
BRANCH   2   6
HETATM    6  C   UNL     1      42.518 -13.232   1.797  1.00  0.00     0.178 C 
BRANCH   6   7
HETATM    7  C   UNL     1      41.871 -13.093   3.143  1.00  0.00     0.068 A 
HETATM    8  C   UNL     1      42.789 -13.324   4.285  1.00  0.00     0.259 A 
HETATM    9  O   UNL     1      43.963 -13.651   4.133  1.00  0.00    -0.267 OA
HETATM   10  N   UNL     1      42.270 -13.124   5.522  1.00  0.00    -0.298 N 
HETATM   11  C   UNL     1      40.998 -12.704   5.706  1.00  0.00     0.181 A 
HETATM   12  H   UNL     1      42.901 -13.217   6.300  1.00  0.00     0.171 HD
HETATM   13  N   UNL     1      40.181 -12.507   4.728  1.00  0.00    -0.208 NA
HETATM   14  C   UNL     1      40.616 -12.692   3.439  1.00  0.00     0.117 A 
BRANCH  11  15
HETATM   15  N   UNL     1      40.608 -12.499   6.989  1.00  0.00    -0.272 NA
HETATM   16  H   UNL     1      41.268 -12.746   7.714  1.00  0.00     0.127 HD
HETATM   17  H   UNL     1      39.674 -12.855   7.164  1.00  0.00     0.127 HD
ENDBRANCH  11  15
BRANCH  14  18
HETATM   18  N   UNL     1      39.697 -12.396   2.452  1.00  0.00    -0.286 NA
HETATM   19  H   UNL     1      38.824 -12.042   2.832  1.00  0.00     0.125 HD
HETATM   20  H   UNL     1      40.117 -11.689   1.852  1.00  0.00     0.125 HD
ENDBRANCH  14  18
ENDBRANCH   6   7
ENDBRANCH   2   6
BRANCH   1  21
HETATM   21  C   UNL     1      42.187 -16.320   2.007  1.00  0.00     0.010 A 
HETATM   22  C   UNL     1      41.402 -16.681   3.100  1.00  0.00     0.017 A 
HETATM   23  C   UNL     1      41.889 -17.588   4.056  1.00  0.00     0.030 A 
HETATM   24  C   UNL     1      43.154 -18.194   3.947  1.00  0.00     0.029 A 
HETATM   25  C   UNL     1      43.932 -17.789   2.848  1.00  0.00     0.030 A 
HETATM   26  C   UNL     1      43.458 -16.881   1.891  1.00  0.00     0.017 A 
BRANCH  24  27
HETATM   27  N   UNL     1      43.621 -19.121   4.891  1.00  0.00    -0.390 N 
HETATM   28  C   UNL     1      44.721 -20.005   4.504  1.00  0.00     0.149 C 
HETATM   29  C   UNL     1      43.596 -18.746   6.306  1.00  0.00     0.149 C 
ENDBRANCH  24  27
ENDBRANCH   1  21
BRANCH   3  30
HETATM   30  C   UNL     1      41.380 -12.359  -0.983  1.00  0.00    -0.007 A 
HETATM   31  C   UNL     1      42.532 -12.031  -1.714  1.00  0.00     0.014 A 
HETATM   32  C   UNL     1      42.666 -10.777  -2.310  1.00  0.00     0.001 A 
HETATM   33  C   UNL     1      41.648  -9.836  -2.178  1.00  0.00     0.000 A 
HETATM   34  C   UNL     1      40.497 -10.151  -1.457  1.00  0.00     0.001 A 
HETATM   35  C   UNL     1      40.359 -11.410  -0.865  1.00  0.00     0.014 A 
ENDBRANCH   3  30
BRANCH   4  36
HETATM   36  C   UNL     1      39.830 -15.015  -2.044  1.00  0.00    -0.005 A 
HETATM   37  C   UNL     1      40.240 -15.901  -3.053  1.00  0.00     0.014 A 
HETATM   38  C   UNL     1      39.433 -16.138  -4.169  1.00  0.00     0.001 A 
HETATM   39  C   UNL     1      38.203 -15.497  -4.285  1.00  0.00     0.000 A 
HETATM   40  C   UNL     1      37.779 -14.623  -3.287  1.00  0.00     0.001 A 
HETATM   41  C   UNL     1      38.586 -14.387  -2.169  1.00  0.00     0.014 A 
ENDBRANCH   4  36
TORSDOF 8
ENDMDL
MODEL 5
REMARK VINA RESULT:      -8.7      1.292      2.044
REMARK  8 active torsions:
REMARK  status: ('A' for Active; 'I' for Inactive)
REMARK    1  A    between atoms: N_2  and  C_3 
REMARK    2  A    between atoms: C_6  and  C_7 
REMARK    3  A    between atoms: N_8  and  C_9 
REMARK    4  A    between atoms: C_9  and  C_10 
REMARK    5  A    between atoms: C_14  and  N_15 
REMARK    6  A    between atoms: C_17  and  N_18 
REMARK    7  A    between atoms: C_19  and  C_20 
REMARK    8  A    between atoms: C_26  and  C_27 
ROOT
HETATM    1  C   UNL     1      41.978 -16.080   1.028  1.00  0.00     0.141 A 
HETATM    2  N   UNL     1      41.899 -15.782   2.378  1.00  0.00    -0.324 N 
HETATM    3  C   UNL     1      42.326 -16.901   3.091  1.00  0.00     0.076 A 
HETATM    4  C   UNL     1      42.719 -17.797   2.104  1.00  0.00     0.097 A 
HETATM    5  N   UNL     1      42.436 -17.301   0.858  1.00  0.00    -0.227 NA
ENDROOT
BRANCH   2   6
HETATM    6  C   UNL     1      41.518 -14.482   2.933  1.00  0.00     0.178 C 
BRANCH   6   7
HETATM    7  C   UNL     1      42.249 -13.987   4.147  1.00  0.00     0.068 A 
HETATM    8  C   UNL     1      41.389 -13.811   5.342  1.00  0.00     0.259 A 
HETATM    9  O   UNL     1      40.177 -14.005   5.319  1.00  0.00    -0.267 OA
HETATM   10  N   UNL     1      42.021 -13.448   6.487  1.00  0.00    -0.298 N 
HETATM   11  C   UNL     1      43.362 -13.290   6.546  1.00  0.00     0.181 A 
HETATM   12  H   UNL     1      41.456 -13.387   7.317  1.00  0.00     0.171 HD
HETATM   13  N   UNL     1      44.126 -13.430   5.516  1.00  0.00    -0.208 NA
HETATM   14  C   UNL     1      43.574 -13.788   4.311  1.00  0.00     0.117 A 
BRANCH  11  15
HETATM   15  N   UNL     1      43.881 -12.968   7.757  1.00  0.00    -0.272 NA
HETATM   16  H   UNL     1      43.495 -13.442   8.562  1.00  0.00     0.127 HD
HETATM   17  H   UNL     1      43.955 -11.964   7.884  1.00  0.00     0.127 HD
ENDBRANCH  11  15
BRANCH  14  18
HETATM   18  N   UNL     1      44.470 -13.978   3.279  1.00  0.00    -0.286 NA
HETATM   19  H   UNL     1      44.821 -13.101   2.906  1.00  0.00     0.125 HD
HETATM   20  H   UNL     1      45.246 -14.523   3.650  1.00  0.00     0.125 HD
ENDBRANCH  14  18
ENDBRANCH   6   7
ENDBRANCH   2   6
BRANCH   1  21
HETATM   21  C   UNL     1      41.589 -15.222  -0.090  1.00  0.00     0.010 A 
HETATM   22  C   UNL     1      41.829 -13.850  -0.094  1.00  0.00     0.017 A 
HETATM   23  C   UNL     1      41.527 -13.078  -1.228  1.00  0.00     0.030 A 
HETATM   24  C   UNL     1      41.009 -13.642  -2.409  1.00  0.00     0.029 A 
HETATM   25  C   UNL     1      40.753 -15.023  -2.364  1.00  0.00     0.030 A 
HETATM   26  C   UNL     1      41.046 -15.801  -1.236  1.00  0.00     0.017 A 
BRANCH  24  27
HETATM   27  N   UNL     1      40.738 -12.868  -3.548  1.00  0.00    -0.390 N 
HETATM   28  C   UNL     1      39.377 -12.362  -3.728  1.00  0.00     0.149 C 
HETATM   29  C   UNL     1      41.795 -12.000  -4.068  1.00  0.00     0.149 C 
ENDBRANCH  24  27
ENDBRANCH   1  21
BRANCH   3  30
HETATM   30  C   UNL     1      42.241 -17.064   4.542  1.00  0.00    -0.007 A 
HETATM   31  C   UNL     1      43.413 -16.986   5.309  1.00  0.00     0.014 A 
HETATM   32  C   UNL     1      43.368 -17.122   6.697  1.00  0.00     0.001 A 
HETATM   33  C   UNL     1      42.147 -17.340   7.332  1.00  0.00     0.000 A 
HETATM   34  C   UNL     1      40.975 -17.417   6.581  1.00  0.00     0.001 A 
HETATM   35  C   UNL     1      41.019 -17.274   5.190  1.00  0.00     0.014 A 
ENDBRANCH   3  30
BRANCH   4  36
HETATM   36  C   UNL     1      43.329 -19.111   2.259  1.00  0.00    -0.005 A 
HETATM   37  C   UNL     1      42.725 -20.217   1.640  1.00  0.00     0.014 A 
HETATM   38  C   UNL     1      43.309 -21.484   1.711  1.00  0.00     0.001 A 
HETATM   39  C   UNL     1      44.508 -21.659   2.395  1.00  0.00     0.000 A 
HETATM   40  C   UNL     1      45.124 -20.569   3.006  1.00  0.00     0.001 A 
HETATM   41  C   UNL     1      44.540 -19.299   2.934  1.00  0.00     0.014 A 
ENDBRANCH   4  36
TORSDOF 8
ENDMDL
MODEL 6
REMARK VINA RESULT:      -8.7      1.604      1.984
REMARK  8 active torsions:
REMARK  status: ('A' for Active; 'I' for Inactive)
REMARK    1  A    between atoms: N_2  and  C_3 
REMARK    2  A    between atoms: C_6  and  C_7 
REMARK    3  A    between atoms: N_8  and  C_9 
REMARK    4  A    between atoms: C_9  and  C_10 
REMARK    5  A    between atoms: C_14  and  N_15 
REMARK    6  A    between atoms: C_17  and  N_18 
REMARK    7  A    between atoms: C_19  and  C_20 
REMARK    8  A    between atoms: C_26  and  C_27 
ROOT
HETATM    1  C   UNL     1      42.175 -16.212   2.665  1.00  0.00     0.141 A 
HETATM    2  N   UNL     1      42.687 -16.081   3.945  1.00  0.00    -0.324 N 
HETATM    3  C   UNL     1      43.191 -17.321   4.336  1.00  0.00     0.076 A 
HETATM    4  C   UNL     1      43.019 -18.121   3.212  1.00  0.00     0.097 A 
HETATM    5  N   UNL     1      42.340 -17.444   2.234  1.00  0.00    -0.227 NA
ENDROOT
BRANCH   2   6
HETATM    6  C   UNL     1      42.759 -14.829   4.700  1.00  0.00     0.178 C 
BRANCH   6   7
HETATM    7  C   UNL     1      41.491 -14.056   4.914  1.00  0.00     0.068 A 
HETATM    8  C   UNL     1      41.533 -12.666   4.398  1.00  0.00     0.259 A 
HETATM    9  O   UNL     1      42.539 -12.181   3.889  1.00  0.00    -0.267 OA
HETATM   10  N   UNL     1      40.380 -11.956   4.491  1.00  0.00    -0.298 N 
HETATM   11  C   UNL     1      39.246 -12.495   4.992  1.00  0.00     0.181 A 
HETATM   12  H   UNL     1      40.381 -11.035   4.087  1.00  0.00     0.171 HD
HETATM   13  N   UNL     1      39.191 -13.698   5.454  1.00  0.00    -0.208 NA
HETATM   14  C   UNL     1      40.312 -14.489   5.409  1.00  0.00     0.117 A 
BRANCH  11  15
HETATM   15  N   UNL     1      38.148 -11.699   4.993  1.00  0.00    -0.272 NA
HETATM   16  H   UNL     1      37.817 -11.375   5.891  1.00  0.00     0.127 HD
HETATM   17  H   UNL     1      37.407 -12.072   4.407  1.00  0.00     0.127 HD
ENDBRANCH  11  15
BRANCH  14  18
HETATM   18  N   UNL     1      40.147 -15.781   5.864  1.00  0.00    -0.286 NA
HETATM   19  H   UNL     1      39.632 -15.820   6.739  1.00  0.00     0.125 HD
HETATM   20  H   UNL     1      39.635 -16.290   5.147  1.00  0.00     0.125 HD
ENDBRANCH  14  18
ENDBRANCH   6   7
ENDBRANCH   2   6
BRANCH   1  21
HETATM   21  C   UNL     1      41.505 -15.183   1.872  1.00  0.00     0.010 A 
HETATM   22  C   UNL     1      42.208 -14.288   1.069  1.00  0.00     0.017 A 
HETATM   23  C   UNL     1      41.521 -13.378   0.248  1.00  0.00     0.030 A 
HETATM   24  C   UNL     1      40.116 -13.345   0.168  1.00  0.00     0.029 A 
HETATM   25  C   UNL     1      39.436 -14.241   1.011  1.00  0.00     0.030 A 
HETATM   26  C   UNL     1      40.112 -15.150   1.837  1.00  0.00     0.017 A 
BRANCH  24  27
HETATM   27  N   UNL     1      39.438 -12.452  -0.676  1.00  0.00    -0.390 N 
HETATM   28  C   UNL     1      40.106 -11.199  -1.032  1.00  0.00     0.149 C 
HETATM   29  C   UNL     1      38.560 -13.001  -1.709  1.00  0.00     0.149 C 
ENDBRANCH  24  27
ENDBRANCH   1  21
BRANCH   3  30
HETATM   30  C   UNL     1      43.669 -17.657   5.677  1.00  0.00    -0.007 A 
HETATM   31  C   UNL     1      45.050 -17.724   5.914  1.00  0.00     0.014 A 
HETATM   32  C   UNL     1      45.542 -18.026   7.184  1.00  0.00     0.001 A 
HETATM   33  C   UNL     1      44.655 -18.268   8.231  1.00  0.00     0.000 A 
HETATM   34  C   UNL     1      43.280 -18.201   8.008  1.00  0.00     0.001 A 
HETATM   35  C   UNL     1      42.787 -17.891   6.737  1.00  0.00     0.014 A 
ENDBRANCH   3  30
BRANCH   4  36
HETATM   36  C   UNL     1      43.436 -19.502   3.007  1.00  0.00    -0.005 A 
HETATM   37  C   UNL     1      43.039 -20.164   1.835  1.00  0.00     0.014 A 
HETATM   38  C   UNL     1      43.468 -21.467   1.569  1.00  0.00     0.001 A 
HETATM   39  C   UNL     1      44.305 -22.120   2.469  1.00  0.00     0.000 A 
HETATM   40  C   UNL     1      44.714 -21.473   3.632  1.00  0.00     0.001 A 
HETATM   41  C   UNL     1      44.286 -20.167   3.898  1.00  0.00     0.014 A 
ENDBRANCH   4  36
TORSDOF 8
ENDMDL
MODEL 7
REMARK VINA RESULT:      -8.7      2.374      7.064
REMARK  8 active torsions:
REMARK  status: ('A' for Active; 'I' for Inactive)
REMARK    1  A    between atoms: N_2  and  C_3 
REMARK    2  A    between atoms: C_6  and  C_7 
REMARK    3  A    between atoms: N_8  and  C_9 
REMARK    4  A    between atoms: C_9  and  C_10 
REMARK    5  A    between atoms: C_14  and  N_15 
REMARK    6  A    between atoms: C_17  and  N_18 
REMARK    7  A    between atoms: C_19  and  C_20 
REMARK    8  A    between atoms: C_26  and  C_27 
ROOT
HETATM    1  C   UNL     1      41.697 -15.676   1.103  1.00  0.00     0.141 A 
HETATM    2  N   UNL     1      41.026 -14.752   1.886  1.00  0.00    -0.324 N 
HETATM    3  C   UNL     1      40.582 -13.725   1.055  1.00  0.00     0.076 A 
HETATM    4  C   UNL     1      40.954 -14.141  -0.218  1.00  0.00     0.097 A 
HETATM    5  N   UNL     1      41.687 -15.296  -0.156  1.00  0.00    -0.227 NA
ENDROOT
BRANCH   2   6
HETATM    6  C   UNL     1      40.761 -14.896   3.319  1.00  0.00     0.178 C 
BRANCH   6   7
HETATM    7  C   UNL     1      41.867 -14.578   4.281  1.00  0.00     0.068 A 
HETATM    8  C   UNL     1      41.723 -15.224   5.608  1.00  0.00     0.259 A 
HETATM    9  O   UNL     1      40.753 -15.917   5.903  1.00  0.00    -0.267 OA
HETATM   10  N   UNL     1      42.744 -15.036   6.482  1.00  0.00    -0.298 N 
HETATM   11  C   UNL     1      43.847 -14.328   6.152  1.00  0.00     0.181 A 
HETATM   12  H   UNL     1      42.684 -15.521   7.360  1.00  0.00     0.171 HD
HETATM   13  N   UNL     1      43.988 -13.750   5.007  1.00  0.00    -0.208 NA
HETATM   14  C   UNL     1      43.001 -13.879   4.061  1.00  0.00     0.117 A 
BRANCH  11  15
HETATM   15  N   UNL     1      44.817 -14.246   7.096  1.00  0.00    -0.272 NA
HETATM   16  H   UNL     1      44.708 -14.824   7.917  1.00  0.00     0.127 HD
HETATM   17  H   UNL     1      45.054 -13.283   7.315  1.00  0.00     0.127 HD
ENDBRANCH  11  15
BRANCH  14  18
HETATM   18  N   UNL     1      43.262 -13.284   2.843  1.00  0.00    -0.286 NA
HETATM   19  H   UNL     1      44.248 -13.071   2.721  1.00  0.00     0.125 HD
HETATM   20  H   UNL     1      42.965 -13.935   2.120  1.00  0.00     0.125 HD
ENDBRANCH  14  18
ENDBRANCH   6   7
ENDBRANCH   2   6
BRANCH   1  21
HETATM   21  C   UNL     1      42.370 -16.893   1.554  1.00  0.00     0.010 A 
HETATM   22  C   UNL     1      41.688 -18.092   1.746  1.00  0.00     0.017 A 
HETATM   23  C   UNL     1      42.389 -19.262   2.086  1.00  0.00     0.030 A 
HETATM   24  C   UNL     1      43.790 -19.293   2.214  1.00  0.00     0.029 A 
HETATM   25  C   UNL     1      44.445 -18.061   2.040  1.00  0.00     0.030 A 
HETATM   26  C   UNL     1      43.756 -16.888   1.705  1.00  0.00     0.017 A 
BRANCH  24  27
HETATM   27  N   UNL     1      44.484 -20.472   2.525  1.00  0.00    -0.390 N 
HETATM   28  C   UNL     1      44.947 -20.656   3.901  1.00  0.00     0.149 C 
HETATM   29  C   UNL     1      44.114 -21.703   1.827  1.00  0.00     0.149 C 
ENDBRANCH  24  27
ENDBRANCH   1  21
BRANCH   3  30
HETATM   30  C   UNL     1      39.976 -12.472   1.506  1.00  0.00    -0.007 A 
HETATM   31  C   UNL     1      38.597 -12.433   1.762  1.00  0.00     0.014 A 
HETATM   32  C   UNL     1      37.987 -11.260   2.208  1.00  0.00     0.001 A 
HETATM   33  C   UNL     1      38.752 -10.112   2.400  1.00  0.00     0.000 A 
HETATM   34  C   UNL     1      40.124 -10.139   2.152  1.00  0.00     0.001 A 
HETATM   35  C   UNL     1      40.737 -11.317   1.712  1.00  0.00     0.014 A 
ENDBRANCH   3  30
BRANCH   4  36
HETATM   36  C   UNL     1      40.680 -13.503  -1.499  1.00  0.00    -0.005 A 
HETATM   37  C   UNL     1      39.356 -13.449  -1.962  1.00  0.00     0.014 A 
HETATM   38  C   UNL     1      39.040 -12.792  -3.154  1.00  0.00     0.001 A 
HETATM   39  C   UNL     1      40.045 -12.175  -3.893  1.00  0.00     0.000 A 
HETATM   40  C   UNL     1      41.362 -12.211  -3.442  1.00  0.00     0.001 A 
HETATM   41  C   UNL     1      41.678 -12.867  -2.247  1.00  0.00     0.014 A 
ENDBRANCH   4  36
TORSDOF 8
ENDMDL
MODEL 8
REMARK VINA RESULT:      -8.6      2.538      3.079
REMARK  8 active torsions:
REMARK  status: ('A' for Active; 'I' for Inactive)
REMARK    1  A    between atoms: N_2  and  C_3 
REMARK    2  A    between atoms: C_6  and  C_7 
REMARK    3  A    between atoms: N_8  and  C_9 
REMARK    4  A    between atoms: C_9  and  C_10 
REMARK    5  A    between atoms: C_14  and  N_15 
REMARK    6  A    between atoms: C_17  and  N_18 
REMARK    7  A    between atoms: C_19  and  C_20 
REMARK    8  A    between atoms: C_26  and  C_27 
ROOT
HETATM    1  C   UNL     1      40.810 -15.899   2.257  1.00  0.00     0.141 A 
HETATM    2  N   UNL     1      41.231 -15.486   3.510  1.00  0.00    -0.324 N 
HETATM    3  C   UNL     1      42.062 -16.476   4.032  1.00  0.00     0.076 A 
HETATM    4  C   UNL     1      42.155 -17.410   3.007  1.00  0.00     0.097 A 
HETATM    5  N   UNL     1      41.334 -17.070   1.965  1.00  0.00    -0.227 NA
ENDROOT
BRANCH   2   6
HETATM    6  C   UNL     1      40.920 -14.192   4.119  1.00  0.00     0.178 C 
BRANCH   6   7
HETATM    7  C   UNL     1      40.932 -12.974   3.243  1.00  0.00     0.068 A 
HETATM    8  C   UNL     1      39.720 -12.128   3.363  1.00  0.00     0.259 A 
HETATM    9  O   UNL     1      38.770 -12.432   4.079  1.00  0.00    -0.267 OA
HETATM   10  N   UNL     1      39.724 -10.970   2.655  1.00  0.00    -0.298 N 
HETATM   11  C   UNL     1      40.786 -10.590   1.910  1.00  0.00     0.181 A 
HETATM   12  H   UNL     1      38.934 -10.360   2.779  1.00  0.00     0.171 HD
HETATM   13  N   UNL     1      41.845 -11.315   1.785  1.00  0.00    -0.208 NA
HETATM   14  C   UNL     1      41.928 -12.509   2.458  1.00  0.00     0.117 A 
BRANCH  11  15
HETATM   15  N   UNL     1      40.687  -9.392   1.282  1.00  0.00    -0.272 NA
HETATM   16  H   UNL     1      40.999  -9.349   0.322  1.00  0.00     0.127 HD
HETATM   17  H   UNL     1      41.048  -8.633   1.852  1.00  0.00     0.127 HD
ENDBRANCH  11  15
BRANCH  14  18
HETATM   18  N   UNL     1      43.121 -13.190   2.320  1.00  0.00    -0.286 NA
HETATM   19  H   UNL     1      43.000 -14.093   1.871  1.00  0.00     0.125 HD
HETATM   20  H   UNL     1      43.735 -12.609   1.752  1.00  0.00     0.125 HD
ENDBRANCH  14  18
ENDBRANCH   6   7
ENDBRANCH   2   6
BRANCH   1  21
HETATM   21  C   UNL     1      39.891 -15.202   1.360  1.00  0.00     0.010 A 
HETATM   22  C   UNL     1      38.555 -14.980   1.688  1.00  0.00     0.017 A 
HETATM   23  C   UNL     1      37.731 -14.221   0.841  1.00  0.00     0.030 A 
HETATM   24  C   UNL     1      38.208 -13.628  -0.344  1.00  0.00     0.029 A 
HETATM   25  C   UNL     1      39.551 -13.893  -0.660  1.00  0.00     0.030 A 
HETATM   26  C   UNL     1      40.381 -14.652   0.175  1.00  0.00     0.017 A 
BRANCH  24  27
HETATM   27  N   UNL     1      37.385 -12.847  -1.170  1.00  0.00    -0.390 N 
HETATM   28  C   UNL     1      36.861 -11.591  -0.632  1.00  0.00     0.149 C 
HETATM   29  C   UNL     1      37.647 -12.842  -2.609  1.00  0.00     0.149 C 
ENDBRANCH  24  27
ENDBRANCH   1  21
BRANCH   3  30
HETATM   30  C   UNL     1      42.583 -16.510   5.399  1.00  0.00    -0.007 A 
HETATM   31  C   UNL     1      43.652 -15.670   5.744  1.00  0.00     0.014 A 
HETATM   32  C   UNL     1      44.166 -15.664   7.041  1.00  0.00     0.001 A 
HETATM   33  C   UNL     1      43.615 -16.503   8.007  1.00  0.00     0.000 A 
HETATM   34  C   UNL     1      42.550 -17.341   7.677  1.00  0.00     0.001 A 
HETATM   35  C   UNL     1      42.031 -17.341   6.379  1.00  0.00     0.014 A 
ENDBRANCH   3  30
BRANCH   4  36
HETATM   36  C   UNL     1      42.957 -18.625   2.955  1.00  0.00    -0.005 A 
HETATM   37  C   UNL     1      42.783 -19.508   1.878  1.00  0.00     0.014 A 
HETATM   38  C   UNL     1      43.575 -20.653   1.755  1.00  0.00     0.001 A 
HETATM   39  C   UNL     1      44.556 -20.923   2.704  1.00  0.00     0.000 A 
HETATM   40  C   UNL     1      44.747 -20.051   3.773  1.00  0.00     0.001 A 
HETATM   41  C   UNL     1      43.956 -18.904   3.895  1.00  0.00     0.014 A 
ENDBRANCH   4  36
TORSDOF 8
ENDMDL
MODEL 9
REMARK VINA RESULT:      -8.4      2.565      7.153
REMARK  8 active torsions:
REMARK  status: ('A' for Active; 'I' for Inactive)
REMARK    1  A    between atoms: N_2  and  C_3 
REMARK    2  A    between atoms: C_6  and  C_7 
REMARK    3  A    between atoms: N_8  and  C_9 
REMARK    4  A    between atoms: C_9  and  C_10 
REMARK    5  A    between atoms: C_14  and  N_15 
REMARK    6  A    between atoms: C_17  and  N_18 
REMARK    7  A    between atoms: C_19  and  C_20 
REMARK    8  A    between atoms: C_26  and  C_27 
ROOT
HETATM    1  C   UNL     1      41.218 -15.710   1.984  1.00  0.00     0.141 A 
HETATM    2  N   UNL     1      40.623 -14.536   2.417  1.00  0.00    -0.324 N 
HETATM    3  C   UNL     1      40.082 -13.893   1.304  1.00  0.00     0.076 A 
HETATM    4  C   UNL     1      40.320 -14.777   0.258  1.00  0.00     0.097 A 
HETATM    5  N   UNL     1      41.070 -15.841   0.684  1.00  0.00    -0.227 NA
ENDROOT
BRANCH   2   6
HETATM    6  C   UNL     1      40.514 -14.112   3.814  1.00  0.00     0.178 C 
BRANCH   6   7
HETATM    7  C   UNL     1      41.772 -14.011   4.625  1.00  0.00     0.068 A 
HETATM    8  C   UNL     1      41.715 -14.725   5.924  1.00  0.00     0.259 A 
HETATM    9  O   UNL     1      40.704 -15.301   6.317  1.00  0.00    -0.267 OA
HETATM   10  N   UNL     1      42.859 -14.735   6.654  1.00  0.00    -0.298 N 
HETATM   11  C   UNL     1      43.998 -14.159   6.209  1.00  0.00     0.181 A 
HETATM   12  H   UNL     1      42.848 -15.269   7.506  1.00  0.00     0.171 HD
HETATM   13  N   UNL     1      44.065 -13.526   5.087  1.00  0.00    -0.208 NA
HETATM   14  C   UNL     1      42.954 -13.456   4.284  1.00  0.00     0.117 A 
BRANCH  11  15
HETATM   15  N   UNL     1      45.086 -14.272   7.009  1.00  0.00    -0.272 NA
HETATM   16  H   UNL     1      45.319 -13.473   7.582  1.00  0.00     0.127 HD
HETATM   17  H   UNL     1      45.885 -14.653   6.513  1.00  0.00     0.127 HD
ENDBRANCH  11  15
BRANCH  14  18
HETATM   18  N   UNL     1      43.132 -12.816   3.074  1.00  0.00    -0.286 NA
HETATM   19  H   UNL     1      42.963 -11.817   3.137  1.00  0.00     0.125 HD
HETATM   20  H   UNL     1      44.095 -12.979   2.787  1.00  0.00     0.125 HD
ENDBRANCH  14  18
ENDBRANCH   6   7
ENDBRANCH   2   6
BRANCH   1  21
HETATM   21  C   UNL     1      41.949 -16.681   2.796  1.00  0.00     0.010 A 
HETATM   22  C   UNL     1      43.337 -16.791   2.753  1.00  0.00     0.017 A 
HETATM   23  C   UNL     1      44.008 -17.669   3.620  1.00  0.00     0.030 A 
HETATM   24  C   UNL     1      43.333 -18.444   4.582  1.00  0.00     0.029 A 
HETATM   25  C   UNL     1      41.932 -18.330   4.582  1.00  0.00     0.030 A 
HETATM   26  C   UNL     1      41.252 -17.460   3.718  1.00  0.00     0.017 A 
BRANCH  24  27
HETATM   27  N   UNL     1      44.013 -19.297   5.463  1.00  0.00    -0.390 N 
HETATM   28  C   UNL     1      44.695 -20.464   4.904  1.00  0.00     0.149 C 
HETATM   29  C   UNL     1      44.653 -18.714   6.643  1.00  0.00     0.149 C 
ENDBRANCH  24  27
ENDBRANCH   1  21
BRANCH   3  30
HETATM   30  C   UNL     1      39.513 -12.545   1.299  1.00  0.00    -0.007 A 
HETATM   31  C   UNL     1      38.152 -12.377   1.597  1.00  0.00     0.014 A 
HETATM   32  C   UNL     1      37.578 -11.105   1.616  1.00  0.00     0.001 A 
HETATM   33  C   UNL     1      38.361  -9.988   1.334  1.00  0.00     0.000 A 
HETATM   34  C   UNL     1      39.715 -10.143   1.039  1.00  0.00     0.001 A 
HETATM   35  C   UNL     1      40.292 -11.417   1.027  1.00  0.00     0.014 A 
ENDBRANCH   3  30
BRANCH   4  36
HETATM   36  C   UNL     1      39.905 -14.670  -1.134  1.00  0.00    -0.005 A 
HETATM   37  C   UNL     1      40.671 -15.308  -2.122  1.00  0.00     0.014 A 
HETATM   38  C   UNL     1      40.275 -15.284  -3.462  1.00  0.00     0.001 A 
HETATM   39  C   UNL     1      39.103 -14.628  -3.828  1.00  0.00     0.000 A 
HETATM   40  C   UNL     1      38.327 -13.999  -2.857  1.00  0.00     0.001 A 
HETATM   41  C   UNL     1      38.723 -14.024  -1.515  1.00  0.00     0.014 A 
ENDBRANCH   4  36
TORSDOF 8
ENDMDL
MODEL 10
REMARK VINA RESULT:      -8.4      1.863      6.694
REMARK  8 active torsions:
REMARK  status: ('A' for Active; 'I' for Inactive)
REMARK    1  A    between atoms: N_2  and  C_3 
REMARK    2  A    between atoms: C_6  and  C_7 
REMARK    3  A    between atoms: N_8  and  C_9 
REMARK    4  A    between atoms: C_9  and  C_10 
REMARK    5  A    between atoms: C_14  and  N_15 
REMARK    6  A    between atoms: C_17  and  N_18 
REMARK    7  A    between atoms: C_19  and  C_20 
REMARK    8  A    between atoms: C_26  and  C_27 
ROOT
HETATM    1  C   UNL     1      42.406 -16.687   1.895  1.00  0.00     0.141 A 
HETATM    2  N   UNL     1      41.610 -15.772   2.564  1.00  0.00    -0.324 N 
HETATM    3  C   UNL     1      41.206 -14.803   1.647  1.00  0.00     0.076 A 
HETATM    4  C   UNL     1      41.730 -15.246   0.438  1.00  0.00     0.097 A 
HETATM    5  N   UNL     1      42.511 -16.356   0.627  1.00  0.00    -0.227 NA
ENDROOT
BRANCH   2   6
HETATM    6  C   UNL     1      41.203 -15.875   3.966  1.00  0.00     0.178 C 
BRANCH   6   7
HETATM    7  C   UNL     1      41.318 -14.654   4.830  1.00  0.00     0.068 A 
HETATM    8  C   UNL     1      42.679 -14.066   4.872  1.00  0.00     0.259 A 
HETATM    9  O   UNL     1      43.635 -14.571   4.290  1.00  0.00    -0.267 OA
HETATM   10  N   UNL     1      42.812 -12.911   5.571  1.00  0.00    -0.298 N 
HETATM   11  C   UNL     1      41.758 -12.309   6.167  1.00  0.00     0.181 A 
HETATM   12  H   UNL     1      43.717 -12.472   5.553  1.00  0.00     0.171 HD
HETATM   13  N   UNL     1      40.570 -12.809   6.150  1.00  0.00    -0.208 NA
HETATM   14  C   UNL     1      40.341 -13.981   5.474  1.00  0.00     0.117 A 
BRANCH  11  15
HETATM   15  N   UNL     1      42.011 -11.136   6.800  1.00  0.00    -0.272 NA
HETATM   16  H   UNL     1      41.627 -10.299   6.385  1.00  0.00     0.127 HD
HETATM   17  H   UNL     1      42.990 -11.043   7.052  1.00  0.00     0.127 HD
ENDBRANCH  11  15
BRANCH  14  18
HETATM   18  N   UNL     1      39.029 -14.410   5.452  1.00  0.00    -0.286 NA
HETATM   19  H   UNL     1      38.468 -13.974   6.179  1.00  0.00     0.125 HD
HETATM   20  H   UNL     1      38.647 -14.167   4.540  1.00  0.00     0.125 HD
ENDBRANCH  14  18
ENDBRANCH   6   7
ENDBRANCH   2   6
BRANCH   1  21
HETATM   21  C   UNL     1      43.089 -17.847   2.466  1.00  0.00     0.010 A 
HETATM   22  C   UNL     1      43.565 -17.860   3.775  1.00  0.00     0.017 A 
HETATM   23  C   UNL     1      44.129 -19.028   4.315  1.00  0.00     0.030 A 
HETATM   24  C   UNL     1      44.209 -20.232   3.591  1.00  0.00     0.029 A 
HETATM   25  C   UNL     1      43.744 -20.179   2.265  1.00  0.00     0.030 A 
HETATM   26  C   UNL     1      43.185 -19.018   1.715  1.00  0.00     0.017 A 
BRANCH  24  27
HETATM   27  N   UNL     1      44.747 -21.402   4.148  1.00  0.00    -0.390 N 
HETATM   28  C   UNL     1      44.690 -21.563   5.601  1.00  0.00     0.149 C 
HETATM   29  C   UNL     1      44.649 -22.647   3.384  1.00  0.00     0.149 C 
ENDBRANCH  24  27
ENDBRANCH   1  21
BRANCH   3  30
HETATM   30  C   UNL     1      40.493 -13.569   1.977  1.00  0.00    -0.007 A 
HETATM   31  C   UNL     1      41.230 -12.408   2.259  1.00  0.00     0.014 A 
HETATM   32  C   UNL     1      40.584 -11.210   2.564  1.00  0.00     0.001 A 
HETATM   33  C   UNL     1      39.192 -11.161   2.591  1.00  0.00     0.000 A 
HETATM   34  C   UNL     1      38.449 -12.307   2.309  1.00  0.00     0.001 A 
HETATM   35  C   UNL     1      39.096 -13.506   1.997  1.00  0.00     0.014 A 
ENDBRANCH   3  30
BRANCH   4  36
HETATM   36  C   UNL     1      41.562 -14.674  -0.890  1.00  0.00    -0.005 A 
HETATM   37  C   UNL     1      40.924 -15.435  -1.882  1.00  0.00     0.014 A 
HETATM   38  C   UNL     1      40.685 -14.902  -3.152  1.00  0.00     0.001 A 
HETATM   39  C   UNL     1      41.076 -13.598  -3.442  1.00  0.00     0.000 A 
HETATM   40  C   UNL     1      41.702 -12.827  -2.465  1.00  0.00     0.001 A 
HETATM   41  C   UNL     1      41.939 -13.360  -1.193  1.00  0.00     0.014 A 
ENDBRANCH   4  36
TORSDOF 8
ENDMDL
