MODEL 1
REMARK VINA RESULT:      -8.2      0.000      0.000
REMARK  10 active torsions:
REMARK  status: ('A' for Active; 'I' for Inactive)
REMARK    1  A    between atoms: O_2  and  C_3 
REMARK    2  A    between atoms: C_3  and  C_4 
REMARK    3  A    between atoms: C_11  and  N_12 
REMARK    4  A    between atoms: N_12  and  C_13 
REMARK    5  A    between atoms: C_13  and  N_14 
REMARK    6  A    between atoms: N_14  and  N_15 
REMARK       I    between atoms: N_15  and  C_16 
REMARK    7  A    between atoms: C_16  and  C_17 
REMARK    8  A    between atoms: C_17  and  S_18 
REMARK    9  A    between atoms: S_18  and  C_19 
REMARK   10  A    between atoms: C_19  and  C_20 
ROOT
HETATM    1  C   UNL     1      41.965 -14.877   5.062  1.00  0.00     0.191 C 
HETATM    2  S   UNL     1      43.056 -13.724   4.523  1.00  0.00    -0.039 SA
ENDROOT
BRANCH   1   3
HETATM    3  N   UNL     1      41.266 -15.581   4.122  1.00  0.00    -0.332 N 
HETATM    4  H   UNL     1      41.363 -16.584   4.240  1.00  0.00     0.168 HD
BRANCH   3   5
HETATM    5  C   UNL     1      40.615 -15.170   2.937  1.00  0.00     0.035 A 
HETATM    6  C   UNL     1      41.235 -15.524   1.730  1.00  0.00     0.049 A 
HETATM    7  C   UNL     1      40.695 -15.079   0.503  1.00  0.00     0.020 A 
HETATM    8  S   UNL     1      41.320 -15.383  -1.065  1.00  0.00    -0.082 SA
HETATM    9  C   UNL     1      39.541 -14.299   0.448  1.00  0.00     0.004 A 
HETATM   10  C   UNL     1      40.103 -14.457  -1.841  1.00  0.00     0.103 A 
HETATM   11  C   UNL     1      39.207 -13.959  -0.913  1.00  0.00     0.068 A 
HETATM   12 CL   UNL     1      37.826 -12.996  -1.273  1.00  0.00    -0.082 Cl
HETATM   13  C   UNL     1      38.926 -13.961   1.678  1.00  0.00     0.017 A 
HETATM   14  C   UNL     1      39.473 -14.381   2.900  1.00  0.00     0.030 A 
BRANCH  10  15
HETATM   15  C   UNL     1      40.097 -14.266  -3.283  1.00  0.00     0.301 C 
HETATM   16  O   UNL     1      40.144 -13.186  -3.860  1.00  0.00    -0.259 OA
BRANCH  15  17
HETATM   17  O   UNL     1      40.051 -15.462  -3.946  1.00  0.00    -0.322 OA
HETATM   18  C   UNL     1      38.730 -15.939  -4.206  1.00  0.00     0.213 C 
ENDBRANCH  15  17
ENDBRANCH  10  15
ENDBRANCH   3   5
ENDBRANCH   1   3
BRANCH   1  19
HETATM   19  N   UNL     1      41.731 -15.166   6.377  1.00  0.00    -0.274 N 
HETATM   20  H   UNL     1      40.955 -14.712   6.861  1.00  0.00     0.189 HD
BRANCH  19  21
HETATM   21  N   UNL     1      42.180 -16.358   6.967  1.00  0.00    -0.267 N 
HETATM   22  C   UNL     1      43.508 -16.396   7.357  1.00  0.00     0.245 C 
HETATM   23  O   UNL     1      44.200 -15.384   7.463  1.00  0.00    -0.271 OA
HETATM   24  H   UNL     1      41.729 -17.209   6.633  1.00  0.00     0.190 HD
BRANCH  22  25
HETATM   25  C   UNL     1      44.034 -17.792   7.628  1.00  0.00     0.178 C 
BRANCH  25  26
HETATM   26  S   UNL     1      43.325 -18.937   6.405  1.00  0.00    -0.155 SA
BRANCH  26  27
HETATM   27  C   UNL     1      44.692 -18.943   5.206  1.00  0.00     0.114 C 
BRANCH  27  28
HETATM   28  C   UNL     1      44.550 -20.075   4.216  1.00  0.00    -0.032 A 
HETATM   29  C   UNL     1      44.228 -19.884   2.862  1.00  0.00     0.018 A 
HETATM   30 BR   UNL     1      43.910 -18.161   2.123  1.00  0.00    -0.051 Br
HETATM   31  C   UNL     1      44.132 -20.976   1.991  1.00  0.00     0.019 A 
HETATM   32  C   UNL     1      44.361 -22.270   2.457  1.00  0.00     0.001 A 
HETATM   33  C   UNL     1      44.690 -22.477   3.793  1.00  0.00     0.001 A 
HETATM   34  C   UNL     1      44.787 -21.390   4.663  1.00  0.00     0.009 A 
ENDBRANCH  27  28
ENDBRANCH  26  27
ENDBRANCH  25  26
ENDBRANCH  22  25
ENDBRANCH  19  21
ENDBRANCH   1  19
TORSDOF 10
ENDMDL
MODEL 2
REMARK VINA RESULT:      -8.0      1.899      2.112
REMARK  10 active torsions:
REMARK  status: ('A' for Active; 'I' for Inactive)
REMARK    1  A    between atoms: O_2  and  C_3 
REMARK    2  A    between atoms: C_3  and  C_4 
REMARK    3  A    between atoms: C_11  and  N_12 
REMARK    4  A    between atoms: N_12  and  C_13 
REMARK    5  A    between atoms: C_13  and  N_14 
REMARK    6  A    between atoms: N_14  and  N_15 
REMARK       I    between atoms: N_15  and  C_16 
REMARK    7  A    between atoms: C_16  and  C_17 
REMARK    8  A    between atoms: C_17  and  S_18 
REMARK    9  A    between atoms: S_18  and  C_19 
REMARK   10  A    between atoms: C_19  and  C_20 
ROOT
HETATM    1  C   UNL     1      40.745 -14.256   5.656  1.00  0.00     0.191 C 
HETATM    2  S   UNL     1      39.756 -12.998   6.159  1.00  0.00    -0.039 SA
ENDROOT
BRANCH   1   3
HETATM    3  N   UNL     1      40.276 -15.079   4.671  1.00  0.00    -0.332 N 
HETATM    4  H   UNL     1      39.762 -15.871   5.043  1.00  0.00     0.168 HD
BRANCH   3   5
HETATM    5  C   UNL     1      40.541 -15.125   3.284  1.00  0.00     0.035 A 
HETATM    6  C   UNL     1      40.994 -13.934   2.696  1.00  0.00     0.049 A 
HETATM    7  C   UNL     1      41.200 -13.873   1.300  1.00  0.00     0.020 A 
HETATM    8  S   UNL     1      41.721 -12.510   0.398  1.00  0.00    -0.082 SA
HETATM    9  C   UNL     1      40.980 -14.974   0.475  1.00  0.00     0.004 A 
HETATM   10  C   UNL     1      41.625 -13.337  -1.101  1.00  0.00     0.103 A 
HETATM   11  C   UNL     1      41.241 -14.650  -0.906  1.00  0.00     0.068 A 
HETATM   12 CL   UNL     1      41.044 -15.829  -2.145  1.00  0.00    -0.082 Cl
HETATM   13  C   UNL     1      40.532 -16.168   1.091  1.00  0.00     0.017 A 
HETATM   14  C   UNL     1      40.303 -16.227   2.473  1.00  0.00     0.030 A 
BRANCH  10  15
HETATM   15  C   UNL     1      41.917 -12.666  -2.358  1.00  0.00     0.301 C 
HETATM   16  O   UNL     1      42.965 -12.753  -2.987  1.00  0.00    -0.259 OA
BRANCH  15  17
HETATM   17  O   UNL     1      40.853 -11.918  -2.785  1.00  0.00    -0.322 OA
HETATM   18  C   UNL     1      41.098 -11.176  -3.981  1.00  0.00     0.213 C 
ENDBRANCH  15  17
ENDBRANCH  10  15
ENDBRANCH   3   5
ENDBRANCH   1   3
BRANCH   1  19
HETATM   19  N   UNL     1      41.989 -14.511   6.160  1.00  0.00    -0.274 N 
HETATM   20  H   UNL     1      42.620 -13.734   6.359  1.00  0.00     0.189 HD
BRANCH  19  21
HETATM   21  N   UNL     1      42.284 -15.703   6.842  1.00  0.00    -0.267 N 
HETATM   22  C   UNL     1      43.623 -16.016   6.994  1.00  0.00     0.245 C 
HETATM   23  O   UNL     1      44.524 -15.196   6.816  1.00  0.00    -0.271 OA
HETATM   24  H   UNL     1      41.601 -16.451   6.729  1.00  0.00     0.190 HD
BRANCH  22  25
HETATM   25  C   UNL     1      43.881 -17.459   7.383  1.00  0.00     0.178 C 
BRANCH  25  26
HETATM   26  S   UNL     1      43.135 -18.550   6.133  1.00  0.00    -0.155 SA
BRANCH  26  27
HETATM   27  C   UNL     1      44.536 -18.650   4.979  1.00  0.00     0.114 C 
BRANCH  27  28
HETATM   28  C   UNL     1      44.457 -19.892   4.125  1.00  0.00    -0.032 A 
HETATM   29  C   UNL     1      44.145 -19.872   2.755  1.00  0.00     0.018 A 
HETATM   30 BR   UNL     1      43.764 -18.261   1.820  1.00  0.00    -0.051 Br
HETATM   31  C   UNL     1      44.109 -21.059   2.014  1.00  0.00     0.019 A 
HETATM   32  C   UNL     1      44.387 -22.280   2.627  1.00  0.00     0.001 A 
HETATM   33  C   UNL     1      44.706 -22.318   3.981  1.00  0.00     0.001 A 
HETATM   34  C   UNL     1      44.743 -21.136   4.722  1.00  0.00     0.009 A 
ENDBRANCH  27  28
ENDBRANCH  26  27
ENDBRANCH  25  26
ENDBRANCH  22  25
ENDBRANCH  19  21
ENDBRANCH   1  19
TORSDOF 10
ENDMDL
MODEL 3
REMARK VINA RESULT:      -7.9      1.736      1.932
REMARK  10 active torsions:
REMARK  status: ('A' for Active; 'I' for Inactive)
REMARK    1  A    between atoms: O_2  and  C_3 
REMARK    2  A    between atoms: C_3  and  C_4 
REMARK    3  A    between atoms: C_11  and  N_12 
REMARK    4  A    between atoms: N_12  and  C_13 
REMARK    5  A    between atoms: C_13  and  N_14 
REMARK    6  A    between atoms: N_14  and  N_15 
REMARK       I    between atoms: N_15  and  C_16 
REMARK    7  A    between atoms: C_16  and  C_17 
REMARK    8  A    between atoms: C_17  and  S_18 
REMARK    9  A    between atoms: S_18  and  C_19 
REMARK   10  A    between atoms: C_19  and  C_20 
ROOT
HETATM    1  C   UNL     1      40.356 -14.071   5.552  1.00  0.00     0.191 C 
HETATM    2  S   UNL     1      39.663 -12.581   5.891  1.00  0.00    -0.039 SA
ENDROOT
BRANCH   1   3
HETATM    3  N   UNL     1      39.830 -14.798   4.522  1.00  0.00    -0.332 N 
HETATM    4  H   UNL     1      39.289 -15.593   4.848  1.00  0.00     0.168 HD
BRANCH   3   5
HETATM    5  C   UNL     1      40.062 -14.752   3.129  1.00  0.00     0.035 A 
HETATM    6  C   UNL     1      39.074 -14.129   2.352  1.00  0.00     0.049 A 
HETATM    7  C   UNL     1      39.189 -14.116   0.944  1.00  0.00     0.020 A 
HETATM    8  S   UNL     1      38.079 -13.432  -0.171  1.00  0.00    -0.082 SA
HETATM    9  C   UNL     1      40.273 -14.698   0.290  1.00  0.00     0.004 A 
HETATM   10  C   UNL     1      38.989 -13.929  -1.537  1.00  0.00     0.103 A 
HETATM   11  C   UNL     1      40.147 -14.571  -1.141  1.00  0.00     0.068 A 
HETATM   12 CL   UNL     1      41.349 -15.207  -2.197  1.00  0.00    -0.082 Cl
HETATM   13  C   UNL     1      41.264 -15.314   1.095  1.00  0.00     0.017 A 
HETATM   14  C   UNL     1      41.142 -15.350   2.491  1.00  0.00     0.030 A 
BRANCH  10  15
HETATM   15  C   UNL     1      38.523 -13.675  -2.892  1.00  0.00     0.301 C 
HETATM   16  O   UNL     1      38.586 -12.601  -3.478  1.00  0.00    -0.259 OA
BRANCH  15  17
HETATM   17  O   UNL     1      38.009 -14.807  -3.464  1.00  0.00    -0.322 OA
HETATM   18  C   UNL     1      36.772 -14.608  -4.151  1.00  0.00     0.213 C 
ENDBRANCH  15  17
ENDBRANCH  10  15
ENDBRANCH   3   5
ENDBRANCH   1   3
BRANCH   1  19
HETATM   19  N   UNL     1      41.414 -14.605   6.233  1.00  0.00    -0.274 N 
HETATM   20  H   UNL     1      41.923 -14.028   6.903  1.00  0.00     0.189 HD
BRANCH  19  21
HETATM   21  N   UNL     1      41.557 -15.990   6.414  1.00  0.00    -0.267 N 
HETATM   22  C   UNL     1      42.535 -16.617   5.660  1.00  0.00     0.245 C 
HETATM   23  O   UNL     1      43.427 -15.999   5.080  1.00  0.00    -0.271 OA
HETATM   24  H   UNL     1      40.701 -16.491   6.646  1.00  0.00     0.190 HD
BRANCH  22  25
HETATM   25  C   UNL     1      42.400 -18.126   5.604  1.00  0.00     0.178 C 
BRANCH  25  26
HETATM   26  S   UNL     1      43.781 -18.876   6.520  1.00  0.00    -0.155 SA
BRANCH  26  27
HETATM   27  C   UNL     1      45.000 -18.948   5.173  1.00  0.00     0.114 C 
BRANCH  27  28
HETATM   28  C   UNL     1      44.698 -20.078   4.217  1.00  0.00    -0.032 A 
HETATM   29  C   UNL     1      44.255 -19.879   2.899  1.00  0.00     0.018 A 
HETATM   30 BR   UNL     1      43.962 -18.148   2.171  1.00  0.00    -0.051 Br
HETATM   31  C   UNL     1      44.012 -20.971   2.056  1.00  0.00     0.019 A 
HETATM   32  C   UNL     1      44.214 -22.272   2.515  1.00  0.00     0.001 A 
HETATM   33  C   UNL     1      44.661 -22.487   3.815  1.00  0.00     0.001 A 
HETATM   34  C   UNL     1      44.904 -21.400   4.657  1.00  0.00     0.009 A 
ENDBRANCH  27  28
ENDBRANCH  26  27
ENDBRANCH  25  26
ENDBRANCH  22  25
ENDBRANCH  19  21
ENDBRANCH   1  19
TORSDOF 10
ENDMDL
MODEL 4
REMARK VINA RESULT:      -7.9      1.871      2.273
REMARK  10 active torsions:
REMARK  status: ('A' for Active; 'I' for Inactive)
REMARK    1  A    between atoms: O_2  and  C_3 
REMARK    2  A    between atoms: C_3  and  C_4 
REMARK    3  A    between atoms: C_11  and  N_12 
REMARK    4  A    between atoms: N_12  and  C_13 
REMARK    5  A    between atoms: C_13  and  N_14 
REMARK    6  A    between atoms: N_14  and  N_15 
REMARK       I    between atoms: N_15  and  C_16 
REMARK    7  A    between atoms: C_16  and  C_17 
REMARK    8  A    between atoms: C_17  and  S_18 
REMARK    9  A    between atoms: S_18  and  C_19 
REMARK   10  A    between atoms: C_19  and  C_20 
ROOT
HETATM    1  C   UNL     1      40.530 -14.034   5.544  1.00  0.00     0.191 C 
HETATM    2  S   UNL     1      39.593 -12.836   6.252  1.00  0.00    -0.039 SA
ENDROOT
BRANCH   1   3
HETATM    3  N   UNL     1      39.945 -14.817   4.588  1.00  0.00    -0.332 N 
HETATM    4  H   UNL     1      39.386 -15.563   4.990  1.00  0.00     0.168 HD
BRANCH   3   5
HETATM    5  C   UNL     1      40.136 -14.887   3.190  1.00  0.00     0.035 A 
HETATM    6  C   UNL     1      39.453 -13.935   2.419  1.00  0.00     0.049 A 
HETATM    7  C   UNL     1      39.523 -13.989   1.009  1.00  0.00     0.020 A 
HETATM    8  S   UNL     1      38.742 -12.939  -0.099  1.00  0.00    -0.082 SA
HETATM    9  C   UNL     1      40.269 -14.963   0.347  1.00  0.00     0.004 A 
HETATM   10  C   UNL     1      39.341 -13.775  -1.471  1.00  0.00     0.103 A 
HETATM   11  C   UNL     1      40.162 -14.817  -1.084  1.00  0.00     0.068 A 
HETATM   12 CL   UNL     1      40.983 -15.892  -2.148  1.00  0.00    -0.082 Cl
HETATM   13  C   UNL     1      40.958 -15.908   1.146  1.00  0.00     0.017 A 
HETATM   14  C   UNL     1      40.872 -15.873   2.545  1.00  0.00     0.030 A 
BRANCH  10  15
HETATM   15  C   UNL     1      38.974 -13.377  -2.822  1.00  0.00     0.301 C 
HETATM   16  O   UNL     1      39.713 -12.823  -3.627  1.00  0.00    -0.259 OA
BRANCH  15  17
HETATM   17  O   UNL     1      37.681 -13.718  -3.111  1.00  0.00    -0.322 OA
HETATM   18  C   UNL     1      37.524 -15.031  -3.650  1.00  0.00     0.213 C 
ENDBRANCH  15  17
ENDBRANCH  10  15
ENDBRANCH   3   5
ENDBRANCH   1   3
BRANCH   1  19
HETATM   19  N   UNL     1      41.838 -14.278   5.854  1.00  0.00    -0.274 N 
HETATM   20  H   UNL     1      42.500 -13.502   5.884  1.00  0.00     0.189 HD
BRANCH  19  21
HETATM   21  N   UNL     1      42.231 -15.421   6.568  1.00  0.00    -0.267 N 
HETATM   22  C   UNL     1      43.585 -15.562   6.818  1.00  0.00     0.245 C 
HETATM   23  O   UNL     1      44.386 -14.635   6.695  1.00  0.00    -0.271 OA
HETATM   24  H   UNL     1      41.658 -16.250   6.416  1.00  0.00     0.190 HD
BRANCH  22  25
HETATM   25  C   UNL     1      43.994 -16.959   7.241  1.00  0.00     0.178 C 
BRANCH  25  26
HETATM   26  S   UNL     1      43.136 -18.170   6.189  1.00  0.00    -0.155 SA
BRANCH  26  27
HETATM   27  C   UNL     1      44.584 -19.077   5.570  1.00  0.00     0.114 C 
BRANCH  27  28
HETATM   28  C   UNL     1      44.336 -19.632   4.188  1.00  0.00    -0.032 A 
HETATM   29  C   UNL     1      44.506 -20.987   3.854  1.00  0.00     0.018 A 
HETATM   30 BR   UNL     1      45.095 -22.281   5.116  1.00  0.00    -0.051 Br
HETATM   31  C   UNL     1      44.238 -21.441   2.557  1.00  0.00     0.019 A 
HETATM   32  C   UNL     1      43.793 -20.553   1.579  1.00  0.00     0.001 A 
HETATM   33  C   UNL     1      43.611 -19.210   1.894  1.00  0.00     0.001 A 
HETATM   34  C   UNL     1      43.877 -18.755   3.186  1.00  0.00     0.009 A 
ENDBRANCH  27  28
ENDBRANCH  26  27
ENDBRANCH  25  26
ENDBRANCH  22  25
ENDBRANCH  19  21
ENDBRANCH   1  19
TORSDOF 10
ENDMDL
MODEL 5
REMARK VINA RESULT:      -7.9      6.047      9.765
REMARK  10 active torsions:
REMARK  status: ('A' for Active; 'I' for Inactive)
REMARK    1  A    between atoms: O_2  and  C_3 
REMARK    2  A    between atoms: C_3  and  C_4 
REMARK    3  A    between atoms: C_11  and  N_12 
REMARK    4  A    between atoms: N_12  and  C_13 
REMARK    5  A    between atoms: C_13  and  N_14 
REMARK    6  A    between atoms: N_14  and  N_15 
REMARK       I    between atoms: N_15  and  C_16 
REMARK    7  A    between atoms: C_16  and  C_17 
REMARK    8  A    between atoms: C_17  and  S_18 
REMARK    9  A    between atoms: S_18  and  C_19 
REMARK   10  A    between atoms: C_19  and  C_20 
ROOT
HETATM    1  C   UNL     1      40.187 -13.349   6.411  1.00  0.00     0.191 C 
HETATM    2  S   UNL     1      41.366 -12.543   5.532  1.00  0.00    -0.039 SA
ENDROOT
BRANCH   1   3
HETATM    3  N   UNL     1      40.170 -14.715   6.348  1.00  0.00    -0.332 N 
HETATM    4  H   UNL     1      39.757 -15.133   7.177  1.00  0.00     0.168 HD
BRANCH   3   5
HETATM    5  C   UNL     1      40.782 -15.619   5.452  1.00  0.00     0.035 A 
HETATM    6  C   UNL     1      41.565 -16.631   6.026  1.00  0.00     0.049 A 
HETATM    7  C   UNL     1      42.279 -17.525   5.198  1.00  0.00     0.020 A 
HETATM    8  S   UNL     1      43.305 -18.802   5.707  1.00  0.00    -0.082 SA
HETATM    9  C   UNL     1      42.222 -17.443   3.807  1.00  0.00     0.004 A 
HETATM   10  C   UNL     1      43.723 -19.242   4.104  1.00  0.00     0.103 A 
HETATM   11  C   UNL     1      43.052 -18.449   3.192  1.00  0.00     0.068 A 
HETATM   12 CL   UNL     1      43.170 -18.574   1.479  1.00  0.00    -0.082 Cl
HETATM   13  C   UNL     1      41.417 -16.419   3.249  1.00  0.00     0.017 A 
HETATM   14  C   UNL     1      40.725 -15.515   4.068  1.00  0.00     0.030 A 
BRANCH  10  15
HETATM   15  C   UNL     1      44.671 -20.312   3.833  1.00  0.00     0.301 C 
HETATM   16  O   UNL     1      45.029 -20.684   2.722  1.00  0.00    -0.259 OA
BRANCH  15  17
HETATM   17  O   UNL     1      45.148 -20.864   4.991  1.00  0.00    -0.322 OA
HETATM   18  C   UNL     1      45.017 -22.284   5.063  1.00  0.00     0.213 C 
ENDBRANCH  15  17
ENDBRANCH  10  15
ENDBRANCH   3   5
ENDBRANCH   1   3
BRANCH   1  19
HETATM   19  N   UNL     1      39.247 -12.736   7.189  1.00  0.00    -0.274 N 
HETATM   20  H   UNL     1      38.294 -13.102   7.209  1.00  0.00     0.189 HD
BRANCH  19  21
HETATM   21  N   UNL     1      39.599 -11.941   8.292  1.00  0.00    -0.267 N 
HETATM   22  C   UNL     1      39.530 -10.569   8.116  1.00  0.00     0.245 C 
HETATM   23  O   UNL     1      38.932 -10.047   7.176  1.00  0.00    -0.271 OA
HETATM   24  H   UNL     1      40.311 -12.335   8.905  1.00  0.00     0.190 HD
BRANCH  22  25
HETATM   25  C   UNL     1      40.266  -9.772   9.175  1.00  0.00     0.178 C 
BRANCH  25  26
HETATM   26  S   UNL     1      39.531 -10.131  10.801  1.00  0.00    -0.155 SA
BRANCH  26  27
HETATM   27  C   UNL     1      40.822 -11.234  11.451  1.00  0.00     0.114 C 
BRANCH  27  28
HETATM   28  C   UNL     1      41.585 -10.582  12.580  1.00  0.00    -0.032 A 
HETATM   29  C   UNL     1      42.897 -10.097  12.449  1.00  0.00     0.018 A 
HETATM   30 BR   UNL     1      43.876 -10.229  10.825  1.00  0.00    -0.051 Br
HETATM   31  C   UNL     1      43.541  -9.483  13.531  1.00  0.00     0.019 A 
HETATM   32  C   UNL     1      42.884  -9.341  14.752  1.00  0.00     0.001 A 
HETATM   33  C   UNL     1      41.581  -9.807  14.896  1.00  0.00     0.001 A 
HETATM   34  C   UNL     1      40.937 -10.419  13.820  1.00  0.00     0.009 A 
ENDBRANCH  27  28
ENDBRANCH  26  27
ENDBRANCH  25  26
ENDBRANCH  22  25
ENDBRANCH  19  21
ENDBRANCH   1  19
TORSDOF 10
ENDMDL
MODEL 6
REMARK VINA RESULT:      -7.8      3.841      7.426
REMARK  10 active torsions:
REMARK  status: ('A' for Active; 'I' for Inactive)
REMARK    1  A    between atoms: O_2  and  C_3 
REMARK    2  A    between atoms: C_3  and  C_4 
REMARK    3  A    between atoms: C_11  and  N_12 
REMARK    4  A    between atoms: N_12  and  C_13 
REMARK    5  A    between atoms: C_13  and  N_14 
REMARK    6  A    between atoms: N_14  and  N_15 
REMARK       I    between atoms: N_15  and  C_16 
REMARK    7  A    between atoms: C_16  and  C_17 
REMARK    8  A    between atoms: C_17  and  S_18 
REMARK    9  A    between atoms: S_18  and  C_19 
REMARK   10  A    between atoms: C_19  and  C_20 
ROOT
HETATM    1  C   UNL     1      40.990 -12.348   6.165  1.00  0.00     0.191 C 
HETATM    2  S   UNL     1      41.375 -10.872   6.862  1.00  0.00    -0.039 SA
ENDROOT
BRANCH   1   3
HETATM    3  N   UNL     1      41.904 -13.358   6.267  1.00  0.00    -0.332 N 
HETATM    4  H   UNL     1      42.443 -13.304   7.126  1.00  0.00     0.168 HD
BRANCH   3   5
HETATM    5  C   UNL     1      42.351 -14.316   5.329  1.00  0.00     0.035 A 
HETATM    6  C   UNL     1      42.441 -15.640   5.784  1.00  0.00     0.049 A 
HETATM    7  C   UNL     1      42.959 -16.643   4.936  1.00  0.00     0.020 A 
HETATM    8  S   UNL     1      43.172 -18.302   5.316  1.00  0.00    -0.082 SA
HETATM    9  C   UNL     1      43.379 -16.362   3.636  1.00  0.00     0.004 A 
HETATM   10  C   UNL     1      43.859 -18.669   3.789  1.00  0.00     0.103 A 
HETATM   11  C   UNL     1      43.884 -17.545   2.986  1.00  0.00     0.068 A 
HETATM   12 CL   UNL     1      44.474 -17.483   1.369  1.00  0.00    -0.082 Cl
HETATM   13  C   UNL     1      43.270 -15.020   3.195  1.00  0.00     0.017 A 
HETATM   14  C   UNL     1      42.779 -14.016   4.042  1.00  0.00     0.030 A 
BRANCH  10  15
HETATM   15  C   UNL     1      44.333 -20.007   3.472  1.00  0.00     0.301 C 
HETATM   16  O   UNL     1      44.005 -20.667   2.493  1.00  0.00    -0.259 OA
BRANCH  15  17
HETATM   17  O   UNL     1      45.228 -20.456   4.406  1.00  0.00    -0.322 OA
HETATM   18  C   UNL     1      44.903 -21.729   4.967  1.00  0.00     0.213 C 
ENDBRANCH  15  17
ENDBRANCH  10  15
ENDBRANCH   3   5
ENDBRANCH   1   3
BRANCH   1  19
HETATM   19  N   UNL     1      39.822 -12.611   5.506  1.00  0.00    -0.274 N 
HETATM   20  H   UNL     1      38.965 -12.757   6.042  1.00  0.00     0.189 HD
BRANCH  19  21
HETATM   21  N   UNL     1      39.628 -12.246   4.164  1.00  0.00    -0.267 N 
HETATM   22  C   UNL     1      38.635 -11.315   3.911  1.00  0.00     0.245 C 
HETATM   23  O   UNL     1      38.134 -10.619   4.794  1.00  0.00    -0.271 OA
HETATM   24  H   UNL     1      39.819 -12.977   3.481  1.00  0.00     0.190 HD
BRANCH  22  25
HETATM   25  C   UNL     1      38.213 -11.241   2.457  1.00  0.00     0.178 C 
BRANCH  25  26
HETATM   26  S   UNL     1      39.616 -11.737   1.409  1.00  0.00    -0.155 SA
BRANCH  26  27
HETATM   27  C   UNL     1      38.819 -13.098   0.504  1.00  0.00     0.114 C 
BRANCH  27  28
HETATM   28  C   UNL     1      39.574 -14.393   0.682  1.00  0.00    -0.032 A 
HETATM   29  C   UNL     1      40.578 -14.833  -0.197  1.00  0.00     0.018 A 
HETATM   30 BR   UNL     1      41.087 -13.844  -1.739  1.00  0.00    -0.051 Br
HETATM   31  C   UNL     1      41.255 -16.036   0.038  1.00  0.00     0.019 A 
HETATM   32  C   UNL     1      40.944 -16.812   1.153  1.00  0.00     0.001 A 
HETATM   33  C   UNL     1      39.959 -16.388   2.039  1.00  0.00     0.001 A 
HETATM   34  C   UNL     1      39.282 -15.189   1.808  1.00  0.00     0.009 A 
ENDBRANCH  27  28
ENDBRANCH  26  27
ENDBRANCH  25  26
ENDBRANCH  22  25
ENDBRANCH  19  21
ENDBRANCH   1  19
TORSDOF 10
ENDMDL
MODEL 7
REMARK VINA RESULT:      -7.5      3.824      8.340
REMARK  10 active torsions:
REMARK  status: ('A' for Active; 'I' for Inactive)
REMARK    1  A    between atoms: O_2  and  C_3 
REMARK    2  A    between atoms: C_3  and  C_4 
REMARK    3  A    between atoms: C_11  and  N_12 
REMARK    4  A    between atoms: N_12  and  C_13 
REMARK    5  A    between atoms: C_13  and  N_14 
REMARK    6  A    between atoms: N_14  and  N_15 
REMARK       I    between atoms: N_15  and  C_16 
REMARK    7  A    between atoms: C_16  and  C_17 
REMARK    8  A    between atoms: C_17  and  S_18 
REMARK    9  A    between atoms: S_18  and  C_19 
REMARK   10  A    between atoms: C_19  and  C_20 
ROOT
HETATM    1  C   UNL     1      41.466 -13.949   5.412  1.00  0.00     0.191 C 
HETATM    2  S   UNL     1      41.756 -12.354   4.982  1.00  0.00    -0.039 SA
ENDROOT
BRANCH   1   3
HETATM    3  N   UNL     1      42.407 -14.583   6.174  1.00  0.00    -0.332 N 
HETATM    4  H   UNL     1      43.005 -13.930   6.669  1.00  0.00     0.168 HD
BRANCH   3   5
HETATM    5  C   UNL     1      42.804 -15.938   6.236  1.00  0.00     0.035 A 
HETATM    6  C   UNL     1      43.322 -16.490   5.055  1.00  0.00     0.049 A 
HETATM    7  C   UNL     1      43.664 -17.860   5.009  1.00  0.00     0.020 A 
HETATM    8  S   UNL     1      44.282 -18.719   3.659  1.00  0.00    -0.082 SA
HETATM    9  C   UNL     1      43.514 -18.692   6.116  1.00  0.00     0.004 A 
HETATM   10  C   UNL     1      44.324 -20.213   4.500  1.00  0.00     0.103 A 
HETATM   11  C   UNL     1      43.911 -20.044   5.809  1.00  0.00     0.068 A 
HETATM   12 CL   UNL     1      43.825 -21.285   6.999  1.00  0.00    -0.082 Cl
HETATM   13  C   UNL     1      42.998 -18.111   7.301  1.00  0.00     0.017 A 
HETATM   14  C   UNL     1      42.636 -16.757   7.344  1.00  0.00     0.030 A 
BRANCH  10  15
HETATM   15  C   UNL     1      44.742 -21.442   3.845  1.00  0.00     0.301 C 
HETATM   16  O   UNL     1      44.867 -22.533   4.388  1.00  0.00    -0.259 OA
BRANCH  15  17
HETATM   17  O   UNL     1      44.969 -21.246   2.510  1.00  0.00    -0.322 OA
HETATM   18  C   UNL     1      44.055 -21.929   1.651  1.00  0.00     0.213 C 
ENDBRANCH  15  17
ENDBRANCH  10  15
ENDBRANCH   3   5
ENDBRANCH   1   3
BRANCH   1  19
HETATM   19  N   UNL     1      40.352 -14.655   5.057  1.00  0.00    -0.274 N 
HETATM   20  H   UNL     1      39.722 -14.998   5.783  1.00  0.00     0.189 HD
BRANCH  19  21
HETATM   21  N   UNL     1      39.781 -14.549   3.778  1.00  0.00    -0.267 N 
HETATM   22  C   UNL     1      40.174 -15.490   2.842  1.00  0.00     0.245 C 
HETATM   23  O   UNL     1      40.754 -16.532   3.148  1.00  0.00    -0.271 OA
HETATM   24  H   UNL     1      39.557 -13.602   3.477  1.00  0.00     0.190 HD
BRANCH  22  25
HETATM   25  C   UNL     1      39.837 -15.118   1.412  1.00  0.00     0.178 C 
BRANCH  25  26
HETATM   26  S   UNL     1      41.363 -15.140   0.421  1.00  0.00    -0.155 SA
BRANCH  26  27
HETATM   27  C   UNL     1      40.913 -13.881  -0.811  1.00  0.00     0.114 C 
BRANCH  27  28
HETATM   28  C   UNL     1      39.965 -14.440  -1.845  1.00  0.00    -0.032 A 
HETATM   29  C   UNL     1      38.633 -14.014  -1.986  1.00  0.00     0.018 A 
HETATM   30 BR   UNL     1      37.862 -12.688  -0.862  1.00  0.00    -0.051 Br
HETATM   31  C   UNL     1      37.812 -14.558  -2.981  1.00  0.00     0.019 A 
HETATM   32  C   UNL     1      38.308 -15.528  -3.850  1.00  0.00     0.001 A 
HETATM   33  C   UNL     1      39.627 -15.955  -3.731  1.00  0.00     0.001 A 
HETATM   34  C   UNL     1      40.448 -15.414  -2.741  1.00  0.00     0.009 A 
ENDBRANCH  27  28
ENDBRANCH  26  27
ENDBRANCH  25  26
ENDBRANCH  22  25
ENDBRANCH  19  21
ENDBRANCH   1  19
TORSDOF 10
ENDMDL
MODEL 8
REMARK VINA RESULT:      -7.5      5.628      9.343
REMARK  10 active torsions:
REMARK  status: ('A' for Active; 'I' for Inactive)
REMARK    1  A    between atoms: O_2  and  C_3 
REMARK    2  A    between atoms: C_3  and  C_4 
REMARK    3  A    between atoms: C_11  and  N_12 
REMARK    4  A    between atoms: N_12  and  C_13 
REMARK    5  A    between atoms: C_13  and  N_14 
REMARK    6  A    between atoms: N_14  and  N_15 
REMARK       I    between atoms: N_15  and  C_16 
REMARK    7  A    between atoms: C_16  and  C_17 
REMARK    8  A    between atoms: C_17  and  S_18 
REMARK    9  A    between atoms: S_18  and  C_19 
REMARK   10  A    between atoms: C_19  and  C_20 
ROOT
HETATM    1  C   UNL     1      41.611 -12.697   5.401  1.00  0.00     0.191 C 
HETATM    2  S   UNL     1      41.705 -12.784   3.728  1.00  0.00    -0.039 SA
ENDROOT
BRANCH   1   3
HETATM    3  N   UNL     1      41.513 -11.458   5.969  1.00  0.00    -0.332 N 
HETATM    4  H   UNL     1      41.815 -10.720   5.339  1.00  0.00     0.168 HD
BRANCH   3   5
HETATM    5  C   UNL     1      41.259 -11.054   7.299  1.00  0.00     0.035 A 
HETATM    6  C   UNL     1      42.378 -10.928   8.136  1.00  0.00     0.049 A 
HETATM    7  C   UNL     1      42.203 -10.611   9.501  1.00  0.00     0.020 A 
HETATM    8  S   UNL     1      43.436 -10.442  10.682  1.00  0.00    -0.082 SA
HETATM    9  C   UNL     1      40.940 -10.404  10.052  1.00  0.00     0.004 A 
HETATM   10  C   UNL     1      42.322 -10.132  11.948  1.00  0.00     0.103 A 
HETATM   11  C   UNL     1      41.028 -10.116  11.462  1.00  0.00     0.068 A 
HETATM   12 CL   UNL     1      39.613  -9.821  12.397  1.00  0.00    -0.082 Cl
HETATM   13  C   UNL     1      39.826 -10.527   9.187  1.00  0.00     0.017 A 
HETATM   14  C   UNL     1      39.992 -10.864   7.836  1.00  0.00     0.030 A 
BRANCH  10  15
HETATM   15  C   UNL     1      42.767  -9.934  13.319  1.00  0.00     0.301 C 
HETATM   16  O   UNL     1      43.741  -9.275  13.665  1.00  0.00    -0.259 OA
BRANCH  15  17
HETATM   17  O   UNL     1      41.944 -10.568  14.209  1.00  0.00    -0.322 OA
HETATM   18  C   UNL     1      41.670  -9.819  15.394  1.00  0.00     0.213 C 
ENDBRANCH  15  17
ENDBRANCH  10  15
ENDBRANCH   3   5
ENDBRANCH   1   3
BRANCH   1  19
HETATM   19  N   UNL     1      41.622 -13.780   6.234  1.00  0.00    -0.274 N 
HETATM   20  H   UNL     1      40.741 -14.232   6.481  1.00  0.00     0.189 HD
BRANCH  19  21
HETATM   21  N   UNL     1      42.765 -14.578   6.400  1.00  0.00    -0.267 N 
HETATM   22  C   UNL     1      42.580 -15.948   6.342  1.00  0.00     0.245 C 
HETATM   23  O   UNL     1      41.558 -16.464   5.892  1.00  0.00    -0.271 OA
HETATM   24  H   UNL     1      43.483 -14.191   7.013  1.00  0.00     0.190 HD
BRANCH  22  25
HETATM   25  C   UNL     1      43.741 -16.753   6.894  1.00  0.00     0.178 C 
BRANCH  25  26
HETATM   26  S   UNL     1      43.377 -18.524   6.697  1.00  0.00    -0.155 SA
BRANCH  26  27
HETATM   27  C   UNL     1      44.842 -19.003   5.732  1.00  0.00     0.114 C 
BRANCH  27  28
HETATM   28  C   UNL     1      44.460 -19.474   4.350  1.00  0.00    -0.032 A 
HETATM   29  C   UNL     1      44.521 -20.818   3.944  1.00  0.00     0.018 A 
HETATM   30 BR   UNL     1      45.120 -22.205   5.098  1.00  0.00    -0.051 Br
HETATM   31  C   UNL     1      44.131 -21.191   2.652  1.00  0.00     0.019 A 
HETATM   32  C   UNL     1      43.671 -20.232   1.751  1.00  0.00     0.001 A 
HETATM   33  C   UNL     1      43.596 -18.898   2.139  1.00  0.00     0.001 A 
HETATM   34  C   UNL     1      43.983 -18.523   3.426  1.00  0.00     0.009 A 
ENDBRANCH  27  28
ENDBRANCH  26  27
ENDBRANCH  25  26
ENDBRANCH  22  25
ENDBRANCH  19  21
ENDBRANCH   1  19
TORSDOF 10
ENDMDL
MODEL 9
REMARK VINA RESULT:      -7.5      2.085      2.416
REMARK  10 active torsions:
REMARK  status: ('A' for Active; 'I' for Inactive)
REMARK    1  A    between atoms: O_2  and  C_3 
REMARK    2  A    between atoms: C_3  and  C_4 
REMARK    3  A    between atoms: C_11  and  N_12 
REMARK    4  A    between atoms: N_12  and  C_13 
REMARK    5  A    between atoms: C_13  and  N_14 
REMARK    6  A    between atoms: N_14  and  N_15 
REMARK       I    between atoms: N_15  and  C_16 
REMARK    7  A    between atoms: C_16  and  C_17 
REMARK    8  A    between atoms: C_17  and  S_18 
REMARK    9  A    between atoms: S_18  and  C_19 
REMARK   10  A    between atoms: C_19  and  C_20 
ROOT
HETATM    1  C   UNL     1      40.390 -13.342   5.583  1.00  0.00     0.191 C 
HETATM    2  S   UNL     1      41.126 -11.874   5.924  1.00  0.00    -0.039 SA
ENDROOT
BRANCH   1   3
HETATM    3  N   UNL     1      39.443 -13.365   4.598  1.00  0.00    -0.332 N 
HETATM    4  H   UNL     1      38.577 -13.797   4.907  1.00  0.00     0.168 HD
BRANCH   3   5
HETATM    5  C   UNL     1      39.522 -13.083   3.216  1.00  0.00     0.035 A 
HETATM    6  C   UNL     1      40.365 -13.909   2.458  1.00  0.00     0.049 A 
HETATM    7  C   UNL     1      40.565 -13.641   1.086  1.00  0.00     0.020 A 
HETATM    8  S   UNL     1      41.572 -14.514   0.005  1.00  0.00    -0.082 SA
HETATM    9  C   UNL     1      39.934 -12.577   0.445  1.00  0.00     0.004 A 
HETATM   10  C   UNL     1      41.225 -13.478  -1.316  1.00  0.00     0.103 A 
HETATM   11  C   UNL     1      40.317 -12.504  -0.943  1.00  0.00     0.068 A 
HETATM   12 CL   UNL     1      39.687 -11.277  -1.974  1.00  0.00    -0.082 Cl
HETATM   13  C   UNL     1      39.080 -11.761   1.227  1.00  0.00     0.017 A 
HETATM   14  C   UNL     1      38.896 -12.009   2.595  1.00  0.00     0.030 A 
BRANCH  10  15
HETATM   15  C   UNL     1      41.853 -13.667  -2.614  1.00  0.00     0.301 C 
HETATM   16  O   UNL     1      42.692 -12.927  -3.115  1.00  0.00    -0.259 OA
BRANCH  15  17
HETATM   17  O   UNL     1      41.405 -14.805  -3.227  1.00  0.00    -0.322 OA
HETATM   18  C   UNL     1      40.009 -14.801  -3.527  1.00  0.00     0.213 C 
ENDBRANCH  15  17
ENDBRANCH  10  15
ENDBRANCH   3   5
ENDBRANCH   1   3
BRANCH   1  19
HETATM   19  N   UNL     1      40.675 -14.517   6.220  1.00  0.00    -0.274 N 
HETATM   20  H   UNL     1      40.705 -14.542   7.239  1.00  0.00     0.189 HD
BRANCH  19  21
HETATM   21  N   UNL     1      40.479 -15.763   5.602  1.00  0.00    -0.267 N 
HETATM   22  C   UNL     1      41.341 -16.781   5.970  1.00  0.00     0.245 C 
HETATM   23  O   UNL     1      42.053 -16.722   6.972  1.00  0.00    -0.271 OA
HETATM   24  H   UNL     1      40.120 -15.726   4.649  1.00  0.00     0.190 HD
BRANCH  22  25
HETATM   25  C   UNL     1      41.338 -17.966   5.024  1.00  0.00     0.178 C 
BRANCH  25  26
HETATM   26  S   UNL     1      41.573 -17.363   3.323  1.00  0.00    -0.155 SA
BRANCH  26  27
HETATM   27  C   UNL     1      43.377 -17.555   3.207  1.00  0.00     0.114 C 
BRANCH  27  28
HETATM   28  C   UNL     1      43.770 -19.010   3.104  1.00  0.00    -0.032 A 
HETATM   29  C   UNL     1      44.428 -19.709   4.129  1.00  0.00     0.018 A 
HETATM   30 BR   UNL     1      44.923 -18.886   5.770  1.00  0.00    -0.051 Br
HETATM   31  C   UNL     1      44.746 -21.065   3.978  1.00  0.00     0.019 A 
HETATM   32  C   UNL     1      44.407 -21.740   2.807  1.00  0.00     0.001 A 
HETATM   33  C   UNL     1      43.746 -21.065   1.785  1.00  0.00     0.001 A 
HETATM   34  C   UNL     1      43.428 -19.714   1.933  1.00  0.00     0.009 A 
ENDBRANCH  27  28
ENDBRANCH  26  27
ENDBRANCH  25  26
ENDBRANCH  22  25
ENDBRANCH  19  21
ENDBRANCH   1  19
TORSDOF 10
ENDMDL
MODEL 10
REMARK VINA RESULT:      -7.4      6.531     10.134
REMARK  10 active torsions:
REMARK  status: ('A' for Active; 'I' for Inactive)
REMARK    1  A    between atoms: O_2  and  C_3 
REMARK    2  A    between atoms: C_3  and  C_4 
REMARK    3  A    between atoms: C_11  and  N_12 
REMARK    4  A    between atoms: N_12  and  C_13 
REMARK    5  A    between atoms: C_13  and  N_14 
REMARK    6  A    between atoms: N_14  and  N_15 
REMARK       I    between atoms: N_15  and  C_16 
REMARK    7  A    between atoms: C_16  and  C_17 
REMARK    8  A    between atoms: C_17  and  S_18 
REMARK    9  A    between atoms: S_18  and  C_19 
REMARK   10  A    between atoms: C_19  and  C_20 
ROOT
HETATM    1  C   UNL     1      44.673 -13.525   7.985  1.00  0.00     0.191 C 
HETATM    2  S   UNL     1      45.998 -13.269   6.989  1.00  0.00    -0.039 SA
ENDROOT
BRANCH   1   3
HETATM    3  N   UNL     1      43.966 -14.683   7.818  1.00  0.00    -0.332 N 
HETATM    4  H   UNL     1      43.751 -15.133   8.702  1.00  0.00     0.168 HD
BRANCH   3   5
HETATM    5  C   UNL     1      43.666 -15.439   6.662  1.00  0.00     0.035 A 
HETATM    6  C   UNL     1      44.154 -16.753   6.633  1.00  0.00     0.049 A 
HETATM    7  C   UNL     1      43.970 -17.547   5.479  1.00  0.00     0.020 A 
HETATM    8  S   UNL     1      44.513 -19.157   5.243  1.00  0.00    -0.082 SA
HETATM    9  C   UNL     1      43.298 -17.067   4.356  1.00  0.00     0.004 A 
HETATM   10  C   UNL     1      43.908 -19.234   3.640  1.00  0.00     0.103 A 
HETATM   11  C   UNL     1      43.262 -18.058   3.309  1.00  0.00     0.068 A 
HETATM   12 CL   UNL     1      42.494 -17.728   1.804  1.00  0.00    -0.082 Cl
HETATM   13  C   UNL     1      42.806 -15.740   4.412  1.00  0.00     0.017 A 
HETATM   14  C   UNL     1      43.007 -14.940   5.546  1.00  0.00     0.030 A 
BRANCH  10  15
HETATM   15  C   UNL     1      44.103 -20.413   2.811  1.00  0.00     0.301 C 
HETATM   16  O   UNL     1      43.548 -20.632   1.741  1.00  0.00    -0.259 OA
BRANCH  15  17
HETATM   17  O   UNL     1      45.016 -21.270   3.365  1.00  0.00    -0.322 OA
HETATM   18  C   UNL     1      44.721 -22.653   3.165  1.00  0.00     0.213 C 
ENDBRANCH  15  17
ENDBRANCH  10  15
ENDBRANCH   3   5
ENDBRANCH   1   3
BRANCH   1  19
HETATM   19  N   UNL     1      44.254 -12.658   8.954  1.00  0.00    -0.274 N 
HETATM   20  H   UNL     1      44.841 -12.498   9.773  1.00  0.00     0.189 HD
BRANCH  19  21
HETATM   21  N   UNL     1      43.316 -11.646   8.690  1.00  0.00    -0.267 N 
HETATM   22  C   UNL     1      43.199 -10.645   9.639  1.00  0.00     0.245 C 
HETATM   23  O   UNL     1      44.039 -10.461  10.521  1.00  0.00    -0.271 OA
HETATM   24  H   UNL     1      42.496 -11.938   8.162  1.00  0.00     0.190 HD
BRANCH  22  25
HETATM   25  C   UNL     1      41.942  -9.808   9.504  1.00  0.00     0.178 C 
BRANCH  25  26
HETATM   26  S   UNL     1      40.495 -10.857   9.846  1.00  0.00    -0.155 SA
BRANCH  26  27
HETATM   27  C   UNL     1      40.733 -11.083  11.634  1.00  0.00     0.114 C 
BRANCH  27  28
HETATM   28  C   UNL     1      40.203  -9.902  12.412  1.00  0.00    -0.032 A 
HETATM   29  C   UNL     1      40.955  -9.210  13.378  1.00  0.00     0.018 A 
HETATM   30 BR   UNL     1      42.733  -9.704  13.832  1.00  0.00    -0.051 Br
HETATM   31  C   UNL     1      40.411  -8.108  14.049  1.00  0.00     0.019 A 
HETATM   32  C   UNL     1      39.116  -7.679  13.764  1.00  0.00     0.001 A 
HETATM   33  C   UNL     1      38.361  -8.347  12.805  1.00  0.00     0.001 A 
HETATM   34  C   UNL     1      38.900  -9.445  12.133  1.00  0.00     0.009 A 
ENDBRANCH  27  28
ENDBRANCH  26  27
ENDBRANCH  25  26
ENDBRANCH  22  25
ENDBRANCH  19  21
ENDBRANCH   1  19
TORSDOF 10
ENDMDL
