MODEL 1
REMARK VINA RESULT:      -9.5      0.000      0.000
REMARK  7 active torsions:
REMARK  status: ('A' for Active; 'I' for Inactive)
REMARK    1  A    between atoms: O_2  and  C_3 
REMARK    2  A    between atoms: C_6  and  C_7 
REMARK       I    between atoms: C_7  and  N_8 
REMARK    3  A    between atoms: C_14  and  C_15 
REMARK       I    between atoms: C_15  and  N_16 
REMARK    4  A    between atoms: N_16  and  C_17 
REMARK    5  A    between atoms: C_17  and  C_18 
REMARK       I    between atoms: N_25  and  C_26 
REMARK    6  A    between atoms: C_26  and  C_27 
REMARK    7  A    between atoms: C_30  and  O_31 
ROOT
HETATM    1  C   UNL     1      39.214 -13.638  -0.530  1.00  0.00     0.253 C 
HETATM    2  N   UNL     1      39.726 -13.701   0.776  1.00  0.00    -0.348 N 
HETATM    3  C   UNL     1      41.097 -13.324   1.106  1.00  0.00     0.131 C 
HETATM    4  C   UNL     1      41.274 -12.958   2.564  1.00  0.00     0.081 C 
HETATM    5  C   UNL     1      40.717 -13.995   3.542  1.00  0.00     0.142 C 
HETATM    6  O   UNL     1      40.632 -13.266   4.806  1.00  0.00    -0.358 OA
HETATM    7  C   UNL     1      41.154 -14.087   5.857  1.00  0.00     0.206 C 
HETATM    8  C   UNL     1      42.164 -14.979   5.183  1.00  0.00     0.206 C 
HETATM    9  N   UNL     1      41.598 -15.136   3.844  1.00  0.00    -0.300 N 
HETATM   10  C   UNL     1      41.869 -16.181   2.980  1.00  0.00     0.257 C 
HETATM   11  O   UNL     1      41.503 -16.220   1.811  1.00  0.00    -0.267 OA
HETATM   12  C   UNL     1      39.274 -14.356   3.169  1.00  0.00     0.081 C 
HETATM   13  C   UNL     1      39.033 -14.613   1.686  1.00  0.00     0.131 C 
HETATM   14  O   UNL     1      38.070 -13.978  -0.827  1.00  0.00    -0.267 OA
ENDROOT
BRANCH   8  15
HETATM   15  C   UNL     1      43.562 -14.326   5.222  1.00  0.00     0.243 C 
HETATM   16  N   UNL     1      44.196 -14.376   6.439  1.00  0.00    -0.355 N 
HETATM   17  H   UNL     1      43.803 -14.963   7.163  1.00  0.00     0.162 HD
HETATM   18  O   UNL     1      44.032 -13.727   4.257  1.00  0.00    -0.271 OA
BRANCH  16  19
HETATM   19  C   UNL     1      45.509 -13.822   6.658  1.00  0.00     0.161 C 
BRANCH  19  20
HETATM   20  C   UNL     1      45.480 -12.917   7.861  1.00  0.00    -0.041 A 
HETATM   21  C   UNL     1      44.356 -12.883   8.697  1.00  0.00     0.009 A 
HETATM   22  C   UNL     1      44.298 -11.989   9.769  1.00  0.00     0.001 A 
HETATM   23  C   UNL     1      45.358 -11.116  10.006  1.00  0.00     0.000 A 
HETATM   24  C   UNL     1      46.478 -11.137   9.177  1.00  0.00     0.001 A 
HETATM   25  C   UNL     1      46.540 -12.034   8.110  1.00  0.00     0.009 A 
ENDBRANCH  19  20
ENDBRANCH  16  19
ENDBRANCH   8  15
BRANCH  10  26
HETATM   26  C   UNL     1      42.715 -17.311   3.423  1.00  0.00     0.032 A 
HETATM   27  C   UNL     1      42.563 -17.897   4.680  1.00  0.00     0.020 A 
HETATM   28  C   UNL     1      43.372 -18.980   5.035  1.00  0.00     0.038 A 
HETATM   29  C   UNL     1      44.302 -19.507   4.130  1.00  0.00     0.068 A 
HETATM   30  C   UNL     1      44.418 -18.944   2.859  1.00  0.00     0.038 A 
HETATM   31  C   UNL     1      43.619 -17.853   2.503  1.00  0.00     0.020 A 
BRANCH  29  32
HETATM   32  O   UNL     1      45.022 -20.569   4.605  1.00  0.00    -0.356 OA
HETATM   33  C   UNL     1      44.699 -21.851   4.080  1.00  0.00     0.210 C 
ENDBRANCH  29  32
ENDBRANCH  10  26
BRANCH   1  34
HETATM   34  C   UNL     1      40.069 -13.129  -1.629  1.00  0.00     0.032 A 
HETATM   35  C   UNL     1      40.146 -11.761  -1.908  1.00  0.00     0.020 A 
HETATM   36  C   UNL     1      40.980 -11.310  -2.933  1.00  0.00     0.038 A 
HETATM   37  C   UNL     1      41.775 -12.210  -3.650  1.00  0.00     0.068 A 
HETATM   38  C   UNL     1      41.715 -13.573  -3.350  1.00  0.00     0.038 A 
HETATM   39  C   UNL     1      40.867 -14.032  -2.337  1.00  0.00     0.020 A 
BRANCH  37  40
HETATM   40  O   UNL     1      42.557 -11.639  -4.617  1.00  0.00    -0.356 OA
HETATM   41  C   UNL     1      42.206 -10.316  -5.008  1.00  0.00     0.210 C 
ENDBRANCH  37  40
ENDBRANCH   1  34
TORSDOF 7
ENDMDL
MODEL 2
REMARK VINA RESULT:      -9.2      2.998      9.565
REMARK  7 active torsions:
REMARK  status: ('A' for Active; 'I' for Inactive)
REMARK    1  A    between atoms: O_2  and  C_3 
REMARK    2  A    between atoms: C_6  and  C_7 
REMARK       I    between atoms: C_7  and  N_8 
REMARK    3  A    between atoms: C_14  and  C_15 
REMARK       I    between atoms: C_15  and  N_16 
REMARK    4  A    between atoms: N_16  and  C_17 
REMARK    5  A    between atoms: C_17  and  C_18 
REMARK       I    between atoms: N_25  and  C_26 
REMARK    6  A    between atoms: C_26  and  C_27 
REMARK    7  A    between atoms: C_30  and  O_31 
ROOT
HETATM    1  C   UNL     1      43.044 -15.456   4.133  1.00  0.00     0.253 C 
HETATM    2  N   UNL     1      42.032 -14.629   3.619  1.00  0.00    -0.348 N 
HETATM    3  C   UNL     1      41.205 -15.010   2.477  1.00  0.00     0.131 C 
HETATM    4  C   UNL     1      39.887 -14.269   2.430  1.00  0.00     0.081 C 
HETATM    5  C   UNL     1      40.016 -12.749   2.558  1.00  0.00     0.142 C 
HETATM    6  O   UNL     1      38.661 -12.315   2.890  1.00  0.00    -0.358 OA
HETATM    7  C   UNL     1      38.327 -11.174   2.092  1.00  0.00     0.206 C 
HETATM    8  C   UNL     1      39.140 -11.332   0.834  1.00  0.00     0.206 C 
HETATM    9  N   UNL     1      40.334 -12.022   1.318  1.00  0.00    -0.300 N 
HETATM   10  C   UNL     1      41.568 -12.016   0.694  1.00  0.00     0.257 C 
HETATM   11  O   UNL     1      42.514 -12.719   1.033  1.00  0.00    -0.267 OA
HETATM   12  C   UNL     1      40.881 -12.391   3.774  1.00  0.00     0.081 C 
HETATM   13  C   UNL     1      42.162 -13.204   3.920  1.00  0.00     0.131 C 
HETATM   14  O   UNL     1      43.766 -15.137   5.077  1.00  0.00    -0.267 OA
ENDROOT
BRANCH   8  15
HETATM   15  C   UNL     1      38.331 -12.106  -0.229  1.00  0.00     0.243 C 
HETATM   16  N   UNL     1      38.703 -11.871  -1.530  1.00  0.00    -0.355 N 
HETATM   17  H   UNL     1      39.559 -11.360  -1.703  1.00  0.00     0.162 HD
HETATM   18  O   UNL     1      37.369 -12.811   0.066  1.00  0.00    -0.271 OA
BRANCH  16  19
HETATM   19  C   UNL     1      38.063 -12.512  -2.652  1.00  0.00     0.161 C 
BRANCH  19  20
HETATM   20  C   UNL     1      38.698 -13.857  -2.893  1.00  0.00    -0.041 A 
HETATM   21  C   UNL     1      39.985 -14.130  -2.413  1.00  0.00     0.009 A 
HETATM   22  C   UNL     1      40.604 -15.348  -2.700  1.00  0.00     0.001 A 
HETATM   23  C   UNL     1      39.945 -16.298  -3.478  1.00  0.00     0.000 A 
HETATM   24  C   UNL     1      38.666 -16.035  -3.965  1.00  0.00     0.001 A 
HETATM   25  C   UNL     1      38.044 -14.820  -3.674  1.00  0.00     0.009 A 
ENDBRANCH  19  20
ENDBRANCH  16  19
ENDBRANCH   8  15
BRANCH  10  26
HETATM   26  C   UNL     1      41.787 -11.187  -0.512  1.00  0.00     0.032 A 
HETATM   27  C   UNL     1      41.579  -9.808  -0.505  1.00  0.00     0.020 A 
HETATM   28  C   UNL     1      41.829  -9.070  -1.665  1.00  0.00     0.038 A 
HETATM   29  C   UNL     1      42.322  -9.693  -2.819  1.00  0.00     0.068 A 
HETATM   30  C   UNL     1      42.569 -11.066  -2.804  1.00  0.00     0.038 A 
HETATM   31  C   UNL     1      42.310 -11.810  -1.650  1.00  0.00     0.020 A 
BRANCH  29  32
HETATM   32  O   UNL     1      42.527  -8.852  -3.878  1.00  0.00    -0.356 OA
HETATM   33  C   UNL     1      42.553  -9.442  -5.172  1.00  0.00     0.210 C 
ENDBRANCH  29  32
ENDBRANCH  10  26
BRANCH   1  34
HETATM   34  C   UNL     1      43.273 -16.793   3.536  1.00  0.00     0.032 A 
HETATM   35  C   UNL     1      43.816 -16.927   2.254  1.00  0.00     0.020 A 
HETATM   36  C   UNL     1      44.043 -18.201   1.730  1.00  0.00     0.038 A 
HETATM   37  C   UNL     1      43.780 -19.342   2.494  1.00  0.00     0.068 A 
HETATM   38  C   UNL     1      43.263 -19.203   3.783  1.00  0.00     0.038 A 
HETATM   39  C   UNL     1      43.014 -17.929   4.307  1.00  0.00     0.020 A 
BRANCH  37  40
HETATM   40  O   UNL     1      44.060 -20.527   1.869  1.00  0.00    -0.356 OA
HETATM   41  C   UNL     1      44.428 -21.611   2.715  1.00  0.00     0.210 C 
ENDBRANCH  37  40
ENDBRANCH   1  34
TORSDOF 7
ENDMDL
MODEL 3
REMARK VINA RESULT:      -8.7      3.451     10.204
REMARK  7 active torsions:
REMARK  status: ('A' for Active; 'I' for Inactive)
REMARK    1  A    between atoms: O_2  and  C_3 
REMARK    2  A    between atoms: C_6  and  C_7 
REMARK       I    between atoms: C_7  and  N_8 
REMARK    3  A    between atoms: C_14  and  C_15 
REMARK       I    between atoms: C_15  and  N_16 
REMARK    4  A    between atoms: N_16  and  C_17 
REMARK    5  A    between atoms: C_17  and  C_18 
REMARK       I    between atoms: N_25  and  C_26 
REMARK    6  A    between atoms: C_26  and  C_27 
REMARK    7  A    between atoms: C_30  and  O_31 
ROOT
HETATM    1  C   UNL     1      42.175 -16.902   4.568  1.00  0.00     0.253 C 
HETATM    2  N   UNL     1      41.308 -16.217   3.701  1.00  0.00    -0.348 N 
HETATM    3  C   UNL     1      41.148 -16.579   2.295  1.00  0.00     0.131 C 
HETATM    4  C   UNL     1      39.837 -16.103   1.708  1.00  0.00     0.081 C 
HETATM    5  C   UNL     1      39.544 -14.620   1.951  1.00  0.00     0.142 C 
HETATM    6  O   UNL     1      38.113 -14.503   1.674  1.00  0.00    -0.358 OA
HETATM    7  C   UNL     1      37.888 -13.343   0.864  1.00  0.00     0.206 C 
HETATM    8  C   UNL     1      39.165 -13.163   0.085  1.00  0.00     0.206 C 
HETATM    9  N   UNL     1      40.172 -13.677   1.012  1.00  0.00    -0.300 N 
HETATM   10  C   UNL     1      41.515 -13.348   0.994  1.00  0.00     0.257 C 
HETATM   11  O   UNL     1      42.367 -13.900   1.680  1.00  0.00    -0.267 OA
HETATM   12  C   UNL     1      39.712 -14.283   3.438  1.00  0.00     0.081 C 
HETATM   13  C   UNL     1      40.964 -14.851   4.094  1.00  0.00     0.131 C 
HETATM   14  O   UNL     1      42.339 -16.590   5.747  1.00  0.00    -0.267 OA
ENDROOT
BRANCH   8  15
HETATM   15  C   UNL     1      39.078 -13.916  -1.259  1.00  0.00     0.243 C 
HETATM   16  N   UNL     1      37.913 -13.726  -1.962  1.00  0.00    -0.355 N 
HETATM   17  H   UNL     1      37.278 -13.000  -1.655  1.00  0.00     0.162 HD
HETATM   18  O   UNL     1      39.951 -14.698  -1.629  1.00  0.00    -0.271 OA
BRANCH  16  19
HETATM   19  C   UNL     1      37.663 -14.345  -3.239  1.00  0.00     0.161 C 
BRANCH  19  20
HETATM   20  C   UNL     1      36.717 -13.487  -4.038  1.00  0.00    -0.041 A 
HETATM   21  C   UNL     1      35.865 -14.065  -4.989  1.00  0.00     0.009 A 
HETATM   22  C   UNL     1      35.043 -13.263  -5.782  1.00  0.00     0.001 A 
HETATM   23  C   UNL     1      35.073 -11.876  -5.639  1.00  0.00     0.000 A 
HETATM   24  C   UNL     1      35.920 -11.291  -4.700  1.00  0.00     0.001 A 
HETATM   25  C   UNL     1      36.738 -12.092  -3.902  1.00  0.00     0.009 A 
ENDBRANCH  19  20
ENDBRANCH  16  19
ENDBRANCH   8  15
BRANCH  10  26
HETATM   26  C   UNL     1      42.018 -12.329   0.047  1.00  0.00     0.032 A 
HETATM   27  C   UNL     1      42.465 -12.668  -1.230  1.00  0.00     0.020 A 
HETATM   28  C   UNL     1      42.903 -11.660  -2.094  1.00  0.00     0.038 A 
HETATM   29  C   UNL     1      42.861 -10.315  -1.707  1.00  0.00     0.068 A 
HETATM   30  C   UNL     1      42.371  -9.980  -0.444  1.00  0.00     0.038 A 
HETATM   31  C   UNL     1      41.942 -10.985   0.428  1.00  0.00     0.020 A 
BRANCH  29  32
HETATM   32  O   UNL     1      43.313  -9.434  -2.651  1.00  0.00    -0.356 OA
HETATM   33  C   UNL     1      42.521  -8.276  -2.883  1.00  0.00     0.210 C 
ENDBRANCH  29  32
ENDBRANCH  10  26
BRANCH   1  34
HETATM   34  C   UNL     1      42.936 -18.072   4.071  1.00  0.00     0.032 A 
HETATM   35  C   UNL     1      42.889 -18.443   2.724  1.00  0.00     0.020 A 
HETATM   36  C   UNL     1      43.639 -19.536   2.281  1.00  0.00     0.038 A 
HETATM   37  C   UNL     1      44.473 -20.229   3.163  1.00  0.00     0.068 A 
HETATM   38  C   UNL     1      44.537 -19.838   4.502  1.00  0.00     0.038 A 
HETATM   39  C   UNL     1      43.774 -18.757   4.955  1.00  0.00     0.020 A 
BRANCH  37  40
HETATM   40  O   UNL     1      45.163 -21.269   2.601  1.00  0.00    -0.356 OA
HETATM   41  C   UNL     1      44.425 -22.107   1.718  1.00  0.00     0.210 C 
ENDBRANCH  37  40
ENDBRANCH   1  34
TORSDOF 7
ENDMDL
MODEL 4
REMARK VINA RESULT:      -8.7      2.021      2.270
REMARK  7 active torsions:
REMARK  status: ('A' for Active; 'I' for Inactive)
REMARK    1  A    between atoms: O_2  and  C_3 
REMARK    2  A    between atoms: C_6  and  C_7 
REMARK       I    between atoms: C_7  and  N_8 
REMARK    3  A    between atoms: C_14  and  C_15 
REMARK       I    between atoms: C_15  and  N_16 
REMARK    4  A    between atoms: N_16  and  C_17 
REMARK    5  A    between atoms: C_17  and  C_18 
REMARK       I    between atoms: N_25  and  C_26 
REMARK    6  A    between atoms: C_26  and  C_27 
REMARK    7  A    between atoms: C_30  and  O_31 
ROOT
HETATM    1  C   UNL     1      40.350 -11.983   0.775  1.00  0.00     0.253 C 
HETATM    2  N   UNL     1      40.608 -12.635   1.992  1.00  0.00    -0.348 N 
HETATM    3  C   UNL     1      41.908 -12.584   2.655  1.00  0.00     0.131 C 
HETATM    4  C   UNL     1      41.825 -12.872   4.139  1.00  0.00     0.081 C 
HETATM    5  C   UNL     1      41.057 -14.150   4.487  1.00  0.00     0.142 C 
HETATM    6  O   UNL     1      40.767 -13.999   5.912  1.00  0.00    -0.358 OA
HETATM    7  C   UNL     1      41.055 -15.233   6.581  1.00  0.00     0.206 C 
HETATM    8  C   UNL     1      42.137 -15.876   5.754  1.00  0.00     0.206 C 
HETATM    9  N   UNL     1      41.823 -15.404   4.406  1.00  0.00    -0.300 N 
HETATM   10  C   UNL     1      42.209 -16.026   3.233  1.00  0.00     0.257 C 
HETATM   11  O   UNL     1      42.066 -15.539   2.117  1.00  0.00    -0.267 OA
HETATM   12  C   UNL     1      39.696 -14.160   3.781  1.00  0.00     0.081 C 
HETATM   13  C   UNL     1      39.725 -13.756   2.312  1.00  0.00     0.131 C 
HETATM   14  O   UNL     1      39.268 -12.040   0.192  1.00  0.00    -0.267 OA
ENDROOT
BRANCH   8  15
HETATM   15  C   UNL     1      43.527 -15.458   6.278  1.00  0.00     0.243 C 
HETATM   16  N   UNL     1      43.591 -14.198   6.822  1.00  0.00    -0.355 N 
HETATM   17  H   UNL     1      42.726 -13.704   6.997  1.00  0.00     0.162 HD
HETATM   18  O   UNL     1      44.521 -16.168   6.138  1.00  0.00    -0.271 OA
BRANCH  16  19
HETATM   19  C   UNL     1      44.806 -13.645   7.366  1.00  0.00     0.161 C 
BRANCH  19  20
HETATM   20  C   UNL     1      44.469 -12.518   8.307  1.00  0.00    -0.041 A 
HETATM   21  C   UNL     1      45.329 -12.193   9.364  1.00  0.00     0.009 A 
HETATM   22  C   UNL     1      44.981 -11.199  10.280  1.00  0.00     0.001 A 
HETATM   23  C   UNL     1      43.765 -10.529  10.153  1.00  0.00     0.000 A 
HETATM   24  C   UNL     1      42.900 -10.847   9.109  1.00  0.00     0.001 A 
HETATM   25  C   UNL     1      43.249 -11.836   8.188  1.00  0.00     0.009 A 
ENDBRANCH  19  20
ENDBRANCH  16  19
ENDBRANCH   8  15
BRANCH  10  26
HETATM   26  C   UNL     1      42.915 -17.325   3.277  1.00  0.00     0.032 A 
HETATM   27  C   UNL     1      42.620 -18.292   4.239  1.00  0.00     0.020 A 
HETATM   28  C   UNL     1      43.299 -19.513   4.216  1.00  0.00     0.038 A 
HETATM   29  C   UNL     1      44.241 -19.791   3.219  1.00  0.00     0.068 A 
HETATM   30  C   UNL     1      44.500 -18.836   2.235  1.00  0.00     0.038 A 
HETATM   31  C   UNL     1      43.832 -17.609   2.259  1.00  0.00     0.020 A 
BRANCH  29  32
HETATM   32  O   UNL     1      44.825 -21.024   3.312  1.00  0.00    -0.356 OA
HETATM   33  C   UNL     1      44.961 -21.575   4.617  1.00  0.00     0.210 C 
ENDBRANCH  29  32
ENDBRANCH  10  26
BRANCH   1  34
HETATM   34  C   UNL     1      41.412 -11.168   0.140  1.00  0.00     0.032 A 
HETATM   35  C   UNL     1      41.613  -9.834   0.507  1.00  0.00     0.020 A 
HETATM   36  C   UNL     1      42.639  -9.099  -0.091  1.00  0.00     0.038 A 
HETATM   37  C   UNL     1      43.497  -9.700  -1.017  1.00  0.00     0.068 A 
HETATM   38  C   UNL     1      43.309 -11.040  -1.362  1.00  0.00     0.038 A 
HETATM   39  C   UNL     1      42.271 -11.776  -0.779  1.00  0.00     0.020 A 
BRANCH  37  40
HETATM   40  O   UNL     1      44.467  -8.876  -1.518  1.00  0.00    -0.356 OA
HETATM   41  C   UNL     1      44.494  -7.550  -1.000  1.00  0.00     0.210 C 
ENDBRANCH  37  40
ENDBRANCH   1  34
TORSDOF 7
ENDMDL
MODEL 5
REMARK VINA RESULT:      -8.6      2.492     10.033
REMARK  7 active torsions:
REMARK  status: ('A' for Active; 'I' for Inactive)
REMARK    1  A    between atoms: O_2  and  C_3 
REMARK    2  A    between atoms: C_6  and  C_7 
REMARK       I    between atoms: C_7  and  N_8 
REMARK    3  A    between atoms: C_14  and  C_15 
REMARK       I    between atoms: C_15  and  N_16 
REMARK    4  A    between atoms: N_16  and  C_17 
REMARK    5  A    between atoms: C_17  and  C_18 
REMARK       I    between atoms: N_25  and  C_26 
REMARK    6  A    between atoms: C_26  and  C_27 
REMARK    7  A    between atoms: C_30  and  O_31 
ROOT
HETATM    1  C   UNL     1      43.218 -14.679   5.354  1.00  0.00     0.253 C 
HETATM    2  N   UNL     1      42.187 -14.165   4.550  1.00  0.00    -0.348 N 
HETATM    3  C   UNL     1      41.449 -14.984   3.593  1.00  0.00     0.131 C 
HETATM    4  C   UNL     1      40.093 -14.409   3.246  1.00  0.00     0.081 C 
HETATM    5  C   UNL     1      40.124 -12.936   2.831  1.00  0.00     0.142 C 
HETATM    6  O   UNL     1      38.729 -12.516   2.947  1.00  0.00    -0.358 OA
HETATM    7  C   UNL     1      38.371 -11.757   1.786  1.00  0.00     0.206 C 
HETATM    8  C   UNL     1      39.260 -12.286   0.690  1.00  0.00     0.206 C 
HETATM    9  N   UNL     1      40.465 -12.670   1.424  1.00  0.00    -0.300 N 
HETATM   10  C   UNL     1      41.729 -12.791   0.875  1.00  0.00     0.257 C 
HETATM   11  O   UNL     1      42.695 -13.256   1.470  1.00  0.00    -0.267 OA
HETATM   12  C   UNL     1      40.898 -12.109   3.866  1.00  0.00     0.081 C 
HETATM   13  C   UNL     1      42.215 -12.719   4.330  1.00  0.00     0.131 C 
HETATM   14  O   UNL     1      43.866 -13.994   6.145  1.00  0.00    -0.267 OA
ENDROOT
BRANCH   8  15
HETATM   15  C   UNL     1      38.559 -13.443  -0.052  1.00  0.00     0.243 C 
HETATM   16  N   UNL     1      38.640 -13.392  -1.423  1.00  0.00    -0.355 N 
HETATM   17  H   UNL     1      39.272 -12.724  -1.843  1.00  0.00     0.162 HD
HETATM   18  O   UNL     1      37.902 -14.297   0.539  1.00  0.00    -0.271 OA
BRANCH  16  19
HETATM   19  C   UNL     1      38.049 -14.392  -2.277  1.00  0.00     0.161 C 
BRANCH  19  20
HETATM   20  C   UNL     1      37.323 -13.720  -3.412  1.00  0.00    -0.041 A 
HETATM   21  C   UNL     1      37.361 -12.326  -3.553  1.00  0.00     0.009 A 
HETATM   22  C   UNL     1      36.627 -11.697  -4.561  1.00  0.00     0.001 A 
HETATM   23  C   UNL     1      35.841 -12.454  -5.427  1.00  0.00     0.000 A 
HETATM   24  C   UNL     1      35.791 -13.840  -5.292  1.00  0.00     0.001 A 
HETATM   25  C   UNL     1      36.529 -14.471  -4.290  1.00  0.00     0.009 A 
ENDBRANCH  19  20
ENDBRANCH  16  19
ENDBRANCH   8  15
BRANCH  10  26
HETATM   26  C   UNL     1      41.963 -12.425  -0.539  1.00  0.00     0.032 A 
HETATM   27  C   UNL     1      42.241 -11.114  -0.924  1.00  0.00     0.020 A 
HETATM   28  C   UNL     1      42.483 -10.830  -2.271  1.00  0.00     0.038 A 
HETATM   29  C   UNL     1      42.488 -11.852  -3.229  1.00  0.00     0.068 A 
HETATM   30  C   UNL     1      42.252 -13.168  -2.830  1.00  0.00     0.038 A 
HETATM   31  C   UNL     1      41.999 -13.455  -1.485  1.00  0.00     0.020 A 
BRANCH  29  32
HETATM   32  O   UNL     1      42.743 -11.435  -4.507  1.00  0.00    -0.356 OA
HETATM   33  C   UNL     1      42.353 -10.110  -4.842  1.00  0.00     0.210 C 
ENDBRANCH  29  32
ENDBRANCH  10  26
BRANCH   1  34
HETATM   34  C   UNL     1      43.559 -16.119   5.277  1.00  0.00     0.032 A 
HETATM   35  C   UNL     1      43.510 -16.808   4.061  1.00  0.00     0.020 A 
HETATM   36  C   UNL     1      43.862 -18.159   4.018  1.00  0.00     0.038 A 
HETATM   37  C   UNL     1      44.310 -18.814   5.168  1.00  0.00     0.068 A 
HETATM   38  C   UNL     1      44.383 -18.116   6.375  1.00  0.00     0.038 A 
HETATM   39  C   UNL     1      44.013 -16.767   6.429  1.00  0.00     0.020 A 
BRANCH  37  40
HETATM   40  O   UNL     1      44.637 -20.131   4.987  1.00  0.00    -0.356 OA
HETATM   41  C   UNL     1      44.699 -20.582   3.638  1.00  0.00     0.210 C 
ENDBRANCH  37  40
ENDBRANCH   1  34
TORSDOF 7
ENDMDL
MODEL 6
REMARK VINA RESULT:      -8.4      2.687      9.769
REMARK  7 active torsions:
REMARK  status: ('A' for Active; 'I' for Inactive)
REMARK    1  A    between atoms: O_2  and  C_3 
REMARK    2  A    between atoms: C_6  and  C_7 
REMARK       I    between atoms: C_7  and  N_8 
REMARK    3  A    between atoms: C_14  and  C_15 
REMARK       I    between atoms: C_15  and  N_16 
REMARK    4  A    between atoms: N_16  and  C_17 
REMARK    5  A    between atoms: C_17  and  C_18 
REMARK       I    between atoms: N_25  and  C_26 
REMARK    6  A    between atoms: C_26  and  C_27 
REMARK    7  A    between atoms: C_30  and  O_31 
ROOT
HETATM    1  C   UNL     1      41.955 -16.495   4.544  1.00  0.00     0.253 C 
HETATM    2  N   UNL     1      41.698 -15.960   3.270  1.00  0.00    -0.348 N 
HETATM    3  C   UNL     1      42.190 -14.651   2.850  1.00  0.00     0.131 C 
HETATM    4  C   UNL     1      42.270 -14.505   1.346  1.00  0.00     0.081 C 
HETATM    5  C   UNL     1      40.987 -14.895   0.609  1.00  0.00     0.142 C 
HETATM    6  O   UNL     1      41.423 -15.064  -0.776  1.00  0.00    -0.358 OA
HETATM    7  C   UNL     1      40.486 -14.415  -1.643  1.00  0.00     0.206 C 
HETATM    8  C   UNL     1      39.903 -13.299  -0.816  1.00  0.00     0.206 C 
HETATM    9  N   UNL     1      39.945 -13.858   0.535  1.00  0.00    -0.300 N 
HETATM   10  C   UNL     1      39.148 -13.455   1.590  1.00  0.00     0.257 C 
HETATM   11  O   UNL     1      39.298 -13.829   2.748  1.00  0.00    -0.267 OA
HETATM   12  C   UNL     1      40.510 -16.278   1.070  1.00  0.00     0.081 C 
HETATM   13  C   UNL     1      40.531 -16.503   2.577  1.00  0.00     0.131 C 
HETATM   14  O   UNL     1      41.524 -17.584   4.920  1.00  0.00    -0.267 OA
ENDROOT
BRANCH   8  15
HETATM   15  C   UNL     1      40.726 -12.008  -1.008  1.00  0.00     0.243 C 
HETATM   16  N   UNL     1      42.011 -12.196  -1.455  1.00  0.00    -0.355 N 
HETATM   17  H   UNL     1      42.278 -13.115  -1.783  1.00  0.00     0.162 HD
HETATM   18  O   UNL     1      40.290 -10.902  -0.697  1.00  0.00    -0.271 OA
BRANCH  16  19
HETATM   19  C   UNL     1      42.920 -11.103  -1.697  1.00  0.00     0.161 C 
BRANCH  19  20
HETATM   20  C   UNL     1      42.573 -10.440  -3.004  1.00  0.00    -0.041 A 
HETATM   21  C   UNL     1      42.407 -11.204  -4.166  1.00  0.00     0.009 A 
HETATM   22  C   UNL     1      42.160 -10.583  -5.392  1.00  0.00     0.001 A 
HETATM   23  C   UNL     1      42.088  -9.194  -5.468  1.00  0.00     0.000 A 
HETATM   24  C   UNL     1      42.256  -8.423  -4.319  1.00  0.00     0.001 A 
HETATM   25  C   UNL     1      42.497  -9.042  -3.092  1.00  0.00     0.009 A 
ENDBRANCH  19  20
ENDBRANCH  16  19
ENDBRANCH   8  15
BRANCH  10  26
HETATM   26  C   UNL     1      38.083 -12.451   1.376  1.00  0.00     0.032 A 
HETATM   27  C   UNL     1      36.990 -12.701   0.546  1.00  0.00     0.020 A 
HETATM   28  C   UNL     1      35.999 -11.727   0.402  1.00  0.00     0.038 A 
HETATM   29  C   UNL     1      36.070 -10.522   1.112  1.00  0.00     0.068 A 
HETATM   30  C   UNL     1      37.143 -10.296   1.974  1.00  0.00     0.038 A 
HETATM   31  C   UNL     1      38.143 -11.263   2.113  1.00  0.00     0.020 A 
BRANCH  29  32
HETATM   32  O   UNL     1      35.032  -9.661   0.882  1.00  0.00    -0.356 OA
HETATM   33  C   UNL     1      33.747 -10.067   1.337  1.00  0.00     0.210 C 
ENDBRANCH  29  32
ENDBRANCH  10  26
BRANCH   1  34
HETATM   34  C   UNL     1      42.793 -15.737   5.502  1.00  0.00     0.032 A 
HETATM   35  C   UNL     1      43.891 -16.335   6.128  1.00  0.00     0.020 A 
HETATM   36  C   UNL     1      44.677 -15.587   7.007  1.00  0.00     0.038 A 
HETATM   37  C   UNL     1      44.405 -14.233   7.228  1.00  0.00     0.068 A 
HETATM   38  C   UNL     1      43.323 -13.634   6.581  1.00  0.00     0.038 A 
HETATM   39  C   UNL     1      42.520 -14.383   5.714  1.00  0.00     0.020 A 
BRANCH  37  40
HETATM   40  O   UNL     1      45.258 -13.613   8.100  1.00  0.00    -0.356 OA
HETATM   41  C   UNL     1      44.739 -12.479   8.786  1.00  0.00     0.210 C 
ENDBRANCH  37  40
ENDBRANCH   1  34
TORSDOF 7
ENDMDL
MODEL 7
REMARK VINA RESULT:      -8.4      3.486      8.981
REMARK  7 active torsions:
REMARK  status: ('A' for Active; 'I' for Inactive)
REMARK    1  A    between atoms: O_2  and  C_3 
REMARK    2  A    between atoms: C_6  and  C_7 
REMARK       I    between atoms: C_7  and  N_8 
REMARK    3  A    between atoms: C_14  and  C_15 
REMARK       I    between atoms: C_15  and  N_16 
REMARK    4  A    between atoms: N_16  and  C_17 
REMARK    5  A    between atoms: C_17  and  C_18 
REMARK       I    between atoms: N_25  and  C_26 
REMARK    6  A    between atoms: C_26  and  C_27 
REMARK    7  A    between atoms: C_30  and  O_31 
ROOT
HETATM    1  C   UNL     1      38.371 -10.283   4.348  1.00  0.00     0.253 C 
HETATM    2  N   UNL     1      38.419 -11.121   3.222  1.00  0.00    -0.348 N 
HETATM    3  C   UNL     1      39.557 -11.988   2.930  1.00  0.00     0.131 C 
HETATM    4  C   UNL     1      39.199 -13.148   2.027  1.00  0.00     0.081 C 
HETATM    5  C   UNL     1      38.449 -12.745   0.756  1.00  0.00     0.142 C 
HETATM    6  O   UNL     1      37.875 -14.003   0.281  1.00  0.00    -0.358 OA
HETATM    7  C   UNL     1      38.092 -14.112  -1.131  1.00  0.00     0.206 C 
HETATM    8  C   UNL     1      39.350 -13.326  -1.390  1.00  0.00     0.206 C 
HETATM    9  N   UNL     1      39.284 -12.284  -0.366  1.00  0.00    -0.300 N 
HETATM   10  C   UNL     1      39.927 -11.061  -0.428  1.00  0.00     0.257 C 
HETATM   11  O   UNL     1      39.981 -10.264   0.502  1.00  0.00    -0.267 OA
HETATM   12  C   UNL     1      37.257 -11.846   1.105  1.00  0.00     0.081 C 
HETATM   13  C   UNL     1      37.553 -10.737   2.108  1.00  0.00     0.131 C 
HETATM   14  O   UNL     1      37.430  -9.528   4.592  1.00  0.00    -0.267 OA
ENDROOT
BRANCH   8  15
HETATM   15  C   UNL     1      40.584 -14.248  -1.295  1.00  0.00     0.243 C 
HETATM   16  N   UNL     1      40.402 -15.392  -0.556  1.00  0.00    -0.355 N 
HETATM   17  H   UNL     1      39.463 -15.639  -0.273  1.00  0.00     0.162 HD
HETATM   18  O   UNL     1      41.673 -13.936  -1.771  1.00  0.00    -0.271 OA
BRANCH  16  19
HETATM   19  C   UNL     1      41.443 -16.371  -0.366  1.00  0.00     0.161 C 
BRANCH  19  20
HETATM   20  C   UNL     1      41.773 -16.477   1.100  1.00  0.00    -0.041 A 
HETATM   21  C   UNL     1      43.107 -16.522   1.526  1.00  0.00     0.009 A 
HETATM   22  C   UNL     1      43.413 -16.696   2.877  1.00  0.00     0.001 A 
HETATM   23  C   UNL     1      42.388 -16.837   3.811  1.00  0.00     0.000 A 
HETATM   24  C   UNL     1      41.058 -16.798   3.398  1.00  0.00     0.001 A 
HETATM   25  C   UNL     1      40.751 -16.618   2.049  1.00  0.00     0.009 A 
ENDBRANCH  19  20
ENDBRANCH  16  19
ENDBRANCH   8  15
BRANCH  10  26
HETATM   26  C   UNL     1      40.681 -10.679  -1.642  1.00  0.00     0.032 A 
HETATM   27  C   UNL     1      40.037 -10.309  -2.823  1.00  0.00     0.020 A 
HETATM   28  C   UNL     1      40.800  -9.930  -3.931  1.00  0.00     0.038 A 
HETATM   29  C   UNL     1      42.197  -9.879  -3.856  1.00  0.00     0.068 A 
HETATM   30  C   UNL     1      42.832 -10.209  -2.659  1.00  0.00     0.038 A 
HETATM   31  C   UNL     1      42.075 -10.599  -1.551  1.00  0.00     0.020 A 
BRANCH  29  32
HETATM   32  O   UNL     1      42.817  -9.486  -5.011  1.00  0.00    -0.356 OA
HETATM   33  C   UNL     1      42.225  -8.408  -5.724  1.00  0.00     0.210 C 
ENDBRANCH  29  32
ENDBRANCH  10  26
BRANCH   1  34
HETATM   34  C   UNL     1      39.491 -10.294   5.319  1.00  0.00     0.032 A 
HETATM   35  C   UNL     1      40.481  -9.308   5.288  1.00  0.00     0.020 A 
HETATM   36  C   UNL     1      41.510  -9.331   6.232  1.00  0.00     0.038 A 
HETATM   37  C   UNL     1      41.530 -10.303   7.237  1.00  0.00     0.068 A 
HETATM   38  C   UNL     1      40.525 -11.271   7.280  1.00  0.00     0.038 A 
HETATM   39  C   UNL     1      39.502 -11.264   6.325  1.00  0.00     0.020 A 
BRANCH  37  40
HETATM   40  O   UNL     1      42.583 -10.206   8.106  1.00  0.00    -0.356 OA
HETATM   41  C   UNL     1      42.300 -10.501   9.470  1.00  0.00     0.210 C 
ENDBRANCH  37  40
ENDBRANCH   1  34
TORSDOF 7
ENDMDL
MODEL 8
REMARK VINA RESULT:      -8.3      3.699      7.465
REMARK  7 active torsions:
REMARK  status: ('A' for Active; 'I' for Inactive)
REMARK    1  A    between atoms: O_2  and  C_3 
REMARK    2  A    between atoms: C_6  and  C_7 
REMARK       I    between atoms: C_7  and  N_8 
REMARK    3  A    between atoms: C_14  and  C_15 
REMARK       I    between atoms: C_15  and  N_16 
REMARK    4  A    between atoms: N_16  and  C_17 
REMARK    5  A    between atoms: C_17  and  C_18 
REMARK       I    between atoms: N_25  and  C_26 
REMARK    6  A    between atoms: C_26  and  C_27 
REMARK    7  A    between atoms: C_30  and  O_31 
ROOT
HETATM    1  C   UNL     1      36.445 -10.192  -3.253  1.00  0.00     0.253 C 
HETATM    2  N   UNL     1      37.621 -10.911  -2.984  1.00  0.00    -0.348 N 
HETATM    3  C   UNL     1      37.628 -12.350  -2.736  1.00  0.00     0.131 C 
HETATM    4  C   UNL     1      38.974 -12.988  -3.000  1.00  0.00     0.081 C 
HETATM    5  C   UNL     1      40.147 -12.285  -2.311  1.00  0.00     0.142 C 
HETATM    6  O   UNL     1      41.319 -12.801  -3.015  1.00  0.00    -0.358 OA
HETATM    7  C   UNL     1      42.323 -13.155  -2.056  1.00  0.00     0.206 C 
HETATM    8  C   UNL     1      41.555 -13.518  -0.812  1.00  0.00     0.206 C 
HETATM    9  N   UNL     1      40.382 -12.652  -0.905  1.00  0.00    -0.300 N 
HETATM   10  C   UNL     1      39.594 -12.257   0.162  1.00  0.00     0.257 C 
HETATM   11  O   UNL     1      38.532 -11.655   0.047  1.00  0.00    -0.267 OA
HETATM   12  C   UNL     1      40.111 -10.780  -2.604  1.00  0.00     0.081 C 
HETATM   13  C   UNL     1      38.741 -10.126  -2.466  1.00  0.00     0.131 C 
HETATM   14  O   UNL     1      36.421  -8.975  -3.436  1.00  0.00    -0.267 OA
ENDROOT
BRANCH   8  15
HETATM   15  C   UNL     1      41.244 -15.030  -0.800  1.00  0.00     0.243 C 
HETATM   16  N   UNL     1      41.524 -15.674   0.381  1.00  0.00    -0.355 N 
HETATM   17  H   UNL     1      41.745 -15.115   1.195  1.00  0.00     0.162 HD
HETATM   18  O   UNL     1      40.859 -15.627  -1.802  1.00  0.00    -0.271 OA
BRANCH  16  19
HETATM   19  C   UNL     1      41.290 -17.083   0.575  1.00  0.00     0.161 C 
BRANCH  19  20
HETATM   20  C   UNL     1      42.081 -17.566   1.762  1.00  0.00    -0.041 A 
HETATM   21  C   UNL     1      43.246 -18.323   1.580  1.00  0.00     0.009 A 
HETATM   22  C   UNL     1      43.937 -18.835   2.680  1.00  0.00     0.001 A 
HETATM   23  C   UNL     1      43.464 -18.603   3.970  1.00  0.00     0.000 A 
HETATM   24  C   UNL     1      42.304 -17.856   4.163  1.00  0.00     0.001 A 
HETATM   25  C   UNL     1      41.615 -17.338   3.065  1.00  0.00     0.009 A 
ENDBRANCH  19  20
ENDBRANCH  16  19
ENDBRANCH   8  15
BRANCH  10  26
HETATM   26  C   UNL     1      39.972 -12.630   1.542  1.00  0.00     0.032 A 
HETATM   27  C   UNL     1      39.380 -13.706   2.203  1.00  0.00     0.020 A 
HETATM   28  C   UNL     1      39.797 -14.031   3.497  1.00  0.00     0.038 A 
HETATM   29  C   UNL     1      40.826 -13.314   4.120  1.00  0.00     0.068 A 
HETATM   30  C   UNL     1      41.443 -12.266   3.436  1.00  0.00     0.038 A 
HETATM   31  C   UNL     1      41.023 -11.931   2.146  1.00  0.00     0.020 A 
BRANCH  29  32
HETATM   32  O   UNL     1      41.137 -13.741   5.382  1.00  0.00    -0.356 OA
HETATM   33  C   UNL     1      40.543 -14.960   5.814  1.00  0.00     0.210 C 
ENDBRANCH  29  32
ENDBRANCH  10  26
BRANCH   1  34
HETATM   34  C   UNL     1      35.150 -10.908  -3.336  1.00  0.00     0.032 A 
HETATM   35  C   UNL     1      34.191 -10.784  -2.326  1.00  0.00     0.020 A 
HETATM   36  C   UNL     1      32.971 -11.452  -2.446  1.00  0.00     0.038 A 
HETATM   37  C   UNL     1      32.680 -12.202  -3.590  1.00  0.00     0.068 A 
HETATM   38  C   UNL     1      33.631 -12.302  -4.608  1.00  0.00     0.038 A 
HETATM   39  C   UNL     1      34.863 -11.651  -4.484  1.00  0.00     0.020 A 
BRANCH  37  40
HETATM   40  O   UNL     1      31.446 -12.793  -3.589  1.00  0.00    -0.356 OA
HETATM   41  C   UNL     1      30.617 -12.514  -2.466  1.00  0.00     0.210 C 
ENDBRANCH  37  40
ENDBRANCH   1  34
TORSDOF 7
ENDMDL
MODEL 9
REMARK VINA RESULT:      -8.2      3.896      7.237
REMARK  7 active torsions:
REMARK  status: ('A' for Active; 'I' for Inactive)
REMARK    1  A    between atoms: O_2  and  C_3 
REMARK    2  A    between atoms: C_6  and  C_7 
REMARK       I    between atoms: C_7  and  N_8 
REMARK    3  A    between atoms: C_14  and  C_15 
REMARK       I    between atoms: C_15  and  N_16 
REMARK    4  A    between atoms: N_16  and  C_17 
REMARK    5  A    between atoms: C_17  and  C_18 
REMARK       I    between atoms: N_25  and  C_26 
REMARK    6  A    between atoms: C_26  and  C_27 
REMARK    7  A    between atoms: C_30  and  O_31 
ROOT
HETATM    1  C   UNL     1      36.734  -8.965   1.071  1.00  0.00     0.253 C 
HETATM    2  N   UNL     1      37.807  -9.817   0.764  1.00  0.00    -0.348 N 
HETATM    3  C   UNL     1      37.647 -11.259   0.598  1.00  0.00     0.131 C 
HETATM    4  C   UNL     1      38.752 -11.885  -0.225  1.00  0.00     0.081 C 
HETATM    5  C   UNL     1      40.164 -11.517   0.238  1.00  0.00     0.142 C 
HETATM    6  O   UNL     1      41.006 -11.878  -0.901  1.00  0.00    -0.358 OA
HETATM    7  C   UNL     1      42.158 -12.583  -0.426  1.00  0.00     0.206 C 
HETATM    8  C   UNL     1      41.705 -13.252   0.846  1.00  0.00     0.206 C 
HETATM    9  N   UNL     1      40.705 -12.313   1.352  1.00  0.00    -0.300 N 
HETATM   10  C   UNL     1      40.306 -12.207   2.672  1.00  0.00     0.257 C 
HETATM   11  O   UNL     1      39.364 -11.521   3.053  1.00  0.00    -0.267 OA
HETATM   12  C   UNL     1      40.294  -9.996   0.389  1.00  0.00     0.081 C 
HETATM   13  C   UNL     1      39.136  -9.315   1.109  1.00  0.00     0.131 C 
HETATM   14  O   UNL     1      36.859  -7.752   1.240  1.00  0.00    -0.267 OA
ENDROOT
BRANCH   8  15
HETATM   15  C   UNL     1      41.168 -14.666   0.541  1.00  0.00     0.243 C 
HETATM   16  N   UNL     1      41.829 -15.690   1.177  1.00  0.00    -0.355 N 
HETATM   17  H   UNL     1      42.487 -15.458   1.909  1.00  0.00     0.162 HD
HETATM   18  O   UNL     1      40.275 -14.866  -0.278  1.00  0.00    -0.271 OA
BRANCH  16  19
HETATM   19  C   UNL     1      41.460 -17.074   1.016  1.00  0.00     0.161 C 
BRANCH  19  20
HETATM   20  C   UNL     1      42.256 -17.922   1.972  1.00  0.00    -0.041 A 
HETATM   21  C   UNL     1      42.162 -17.713   3.354  1.00  0.00     0.009 A 
HETATM   22  C   UNL     1      42.956 -18.448   4.237  1.00  0.00     0.001 A 
HETATM   23  C   UNL     1      43.858 -19.390   3.744  1.00  0.00     0.000 A 
HETATM   24  C   UNL     1      43.964 -19.602   2.371  1.00  0.00     0.001 A 
HETATM   25  C   UNL     1      43.166 -18.873   1.488  1.00  0.00     0.009 A 
ENDBRANCH  19  20
ENDBRANCH  16  19
ENDBRANCH   8  15
BRANCH  10  26
HETATM   26  C   UNL     1      40.975 -13.012   3.718  1.00  0.00     0.032 A 
HETATM   27  C   UNL     1      40.342 -14.090   4.335  1.00  0.00     0.020 A 
HETATM   28  C   UNL     1      41.032 -14.833   5.296  1.00  0.00     0.038 A 
HETATM   29  C   UNL     1      42.362 -14.533   5.616  1.00  0.00     0.068 A 
HETATM   30  C   UNL     1      43.003 -13.481   4.963  1.00  0.00     0.038 A 
HETATM   31  C   UNL     1      42.314 -12.727   4.009  1.00  0.00     0.020 A 
BRANCH  29  32
HETATM   32  O   UNL     1      42.917 -15.344   6.568  1.00  0.00    -0.356 OA
HETATM   33  C   UNL     1      44.250 -15.049   6.966  1.00  0.00     0.210 C 
ENDBRANCH  29  32
ENDBRANCH  10  26
BRANCH   1  34
HETATM   34  C   UNL     1      35.366  -9.522   1.194  1.00  0.00     0.032 A 
HETATM   35  C   UNL     1      34.663  -9.448   2.400  1.00  0.00     0.020 A 
HETATM   36  C   UNL     1      33.366  -9.959   2.477  1.00  0.00     0.038 A 
HETATM   37  C   UNL     1      32.747 -10.499   1.346  1.00  0.00     0.068 A 
HETATM   38  C   UNL     1      33.443 -10.548   0.136  1.00  0.00     0.038 A 
HETATM   39  C   UNL     1      34.750 -10.054   0.058  1.00  0.00     0.020 A 
BRANCH  37  40
HETATM   40  O   UNL     1      31.472 -10.952   1.552  1.00  0.00    -0.356 OA
HETATM   41  C   UNL     1      31.223 -11.576   2.807  1.00  0.00     0.210 C 
ENDBRANCH  37  40
ENDBRANCH   1  34
TORSDOF 7
ENDMDL
MODEL 10
REMARK VINA RESULT:      -8.1      4.299      9.592
REMARK  7 active torsions:
REMARK  status: ('A' for Active; 'I' for Inactive)
REMARK    1  A    between atoms: O_2  and  C_3 
REMARK    2  A    between atoms: C_6  and  C_7 
REMARK       I    between atoms: C_7  and  N_8 
REMARK    3  A    between atoms: C_14  and  C_15 
REMARK       I    between atoms: C_15  and  N_16 
REMARK    4  A    between atoms: N_16  and  C_17 
REMARK    5  A    between atoms: C_17  and  C_18 
REMARK       I    between atoms: N_25  and  C_26 
REMARK    6  A    between atoms: C_26  and  C_27 
REMARK    7  A    between atoms: C_30  and  O_31 
ROOT
HETATM    1  C   UNL     1      40.038 -13.740   3.108  1.00  0.00     0.253 C 
HETATM    2  N   UNL     1      40.401 -13.738   1.751  1.00  0.00    -0.348 N 
HETATM    3  C   UNL     1      40.495 -12.513   0.961  1.00  0.00     0.131 C 
HETATM    4  C   UNL     1      41.383 -12.662  -0.255  1.00  0.00     0.081 C 
HETATM    5  C   UNL     1      41.057 -13.878  -1.125  1.00  0.00     0.142 C 
HETATM    6  O   UNL     1      42.248 -14.036  -1.957  1.00  0.00    -0.358 OA
HETATM    7  C   UNL     1      41.845 -14.264  -3.313  1.00  0.00     0.206 C 
HETATM    8  C   UNL     1      40.513 -13.571  -3.441  1.00  0.00     0.206 C 
HETATM    9  N   UNL     1      39.962 -13.703  -2.094  1.00  0.00    -0.300 N 
HETATM   10  C   UNL     1      38.618 -13.645  -1.772  1.00  0.00     0.257 C 
HETATM   11  O   UNL     1      38.186 -13.608  -0.625  1.00  0.00    -0.267 OA
HETATM   12  C   UNL     1      40.978 -15.143  -0.262  1.00  0.00     0.081 C 
HETATM   13  C   UNL     1      40.190 -14.995   1.035  1.00  0.00     0.131 C 
HETATM   14  O   UNL     1      39.929 -14.767   3.778  1.00  0.00    -0.267 OA
ENDROOT
BRANCH   8  15
HETATM   15  C   UNL     1      40.714 -12.117  -3.918  1.00  0.00     0.243 C 
HETATM   16  N   UNL     1      42.007 -11.656  -3.855  1.00  0.00    -0.355 N 
HETATM   17  H   UNL     1      42.748 -12.319  -3.672  1.00  0.00     0.162 HD
HETATM   18  O   UNL     1      39.772 -11.399  -4.245  1.00  0.00    -0.271 OA
BRANCH  16  19
HETATM   19  C   UNL     1      42.380 -10.325  -4.267  1.00  0.00     0.161 C 
BRANCH  19  20
HETATM   20  C   UNL     1      42.769  -9.515  -3.058  1.00  0.00    -0.041 A 
HETATM   21  C   UNL     1      43.378 -10.130  -1.957  1.00  0.00     0.009 A 
HETATM   22  C   UNL     1      43.670  -9.394  -0.807  1.00  0.00     0.001 A 
HETATM   23  C   UNL     1      43.345  -8.040  -0.745  1.00  0.00     0.000 A 
HETATM   24  C   UNL     1      42.734  -7.419  -1.832  1.00  0.00     0.001 A 
HETATM   25  C   UNL     1      42.448  -8.152  -2.984  1.00  0.00     0.009 A 
ENDBRANCH  19  20
ENDBRANCH  16  19
ENDBRANCH   8  15
BRANCH  10  26
HETATM   26  C   UNL     1      37.602 -13.538  -2.842  1.00  0.00     0.032 A 
HETATM   27  C   UNL     1      37.271 -14.622  -3.655  1.00  0.00     0.020 A 
HETATM   28  C   UNL     1      36.283 -14.472  -4.632  1.00  0.00     0.038 A 
HETATM   29  C   UNL     1      35.596 -13.261  -4.776  1.00  0.00     0.068 A 
HETATM   30  C   UNL     1      35.902 -12.194  -3.931  1.00  0.00     0.038 A 
HETATM   31  C   UNL     1      36.897 -12.335  -2.959  1.00  0.00     0.020 A 
BRANCH  29  32
HETATM   32  O   UNL     1      34.652 -13.254  -5.766  1.00  0.00    -0.356 OA
HETATM   33  C   UNL     1      35.108 -13.490  -7.092  1.00  0.00     0.210 C 
ENDBRANCH  29  32
ENDBRANCH  10  26
BRANCH   1  34
HETATM   34  C   UNL     1      39.777 -12.456   3.800  1.00  0.00     0.032 A 
HETATM   35  C   UNL     1      38.604 -11.734   3.562  1.00  0.00     0.020 A 
HETATM   36  C   UNL     1      38.375 -10.540   4.249  1.00  0.00     0.038 A 
HETATM   37  C   UNL     1      39.286 -10.087   5.208  1.00  0.00     0.068 A 
HETATM   38  C   UNL     1      40.444 -10.824   5.461  1.00  0.00     0.038 A 
HETATM   39  C   UNL     1      40.688 -12.011   4.762  1.00  0.00     0.020 A 
BRANCH  37  40
HETATM   40  O   UNL     1      38.938  -8.912   5.818  1.00  0.00    -0.356 OA
HETATM   41  C   UNL     1      39.330  -8.771   7.179  1.00  0.00     0.210 C 
ENDBRANCH  37  40
ENDBRANCH   1  34
TORSDOF 7
ENDMDL
