MODEL 1
REMARK VINA RESULT:      -7.4      0.000      0.000
REMARK  9 active torsions:
REMARK  status: ('A' for Active; 'I' for Inactive)
REMARK    1  A    between atoms: C_2  and  O_3 
REMARK    2  A    between atoms: O_3  and  C_4 
REMARK    3  A    between atoms: C_4  and  C_5 
REMARK    4  A    between atoms: C_10  and  N_11 
REMARK       I    between atoms: N_11  and  C_12 
REMARK    5  A    between atoms: C_12  and  C_13 
REMARK    6  A    between atoms: C_13  and  N_14 
REMARK    7  A    between atoms: C_16  and  C_17 
REMARK    8  A    between atoms: C_17  and  C_18 
REMARK    9  A    between atoms: C_18  and  O_19 
ROOT
HETATM    1  C   UNL     1      43.260 -16.332   4.229  1.00  0.00     0.137 A 
HETATM    2  N   UNL     1      43.723 -17.269   5.117  1.00  0.00    -0.349 N 
HETATM    3  H   UNL     1      43.864 -17.100   6.105  1.00  0.00     0.166 HD
HETATM    4  C   UNL     1      43.978 -18.458   4.480  1.00  0.00     0.045 A 
HETATM    5  C   UNL     1      43.670 -18.285   3.126  1.00  0.00     0.021 A 
HETATM    6  C   UNL     1      43.193 -16.939   2.979  1.00  0.00     0.080 A 
HETATM    7  C   UNL     1      44.468 -19.657   5.015  1.00  0.00     0.032 A 
HETATM    8  C   UNL     1      44.670 -20.726   4.141  1.00  0.00     0.026 A 
HETATM    9  C   UNL     1      44.399 -20.586   2.787  1.00  0.00     0.035 A 
HETATM   10 CL   UNL     1      44.676 -21.912   1.723  1.00  0.00    -0.084 Cl
HETATM   11  C   UNL     1      43.910 -19.381   2.267  1.00  0.00     0.040 A 
ENDROOT
BRANCH   6  12
HETATM   12  N   UNL     1      42.734 -16.208   1.883  1.00  0.00    -0.323 N 
HETATM   13  C   UNL     1      41.596 -16.422   1.150  1.00  0.00     0.248 C 
HETATM   14  O   UNL     1      40.712 -17.254   1.343  1.00  0.00    -0.271 OA
HETATM   15  H   UNL     1      43.271 -15.354   1.716  1.00  0.00     0.169 HD
BRANCH  13  16
HETATM   16  C   UNL     1      41.411 -15.441  -0.011  1.00  0.00     0.338 C 
BRANCH  16  17
HETATM   17  N   UNL     1      40.033 -14.765   0.066  1.00  0.00    -0.059 N 
HETATM   18  H   UNL     1      39.425 -15.561   0.331  1.00  0.00     0.280 HD
HETATM   19  C   UNL     1      39.866 -13.770   1.222  1.00  0.00     0.190 C 
HETATM   20  C   UNL     1      38.373 -13.416   1.297  1.00  0.00     0.033 C 
HETATM   21  C   UNL     1      37.824 -12.887  -0.025  1.00  0.00     0.004 C 
HETATM   22  C   UNL     1      38.086 -13.868  -1.163  1.00  0.00     0.028 C 
HETATM   23  C   UNL     1      39.551 -14.264  -1.267  1.00  0.00     0.236 C 
BRANCH  19  24
HETATM   24  C   UNL     1      40.799 -12.562   1.061  1.00  0.00     0.059 C 
BRANCH  24  25
HETATM   25  C   UNL     1      41.594 -12.242   2.323  1.00  0.00     0.166 C 
BRANCH  25  26
HETATM   26  O   UNL     1      42.833 -12.927   2.228  1.00  0.00    -0.401 OA
HETATM   27  H   UNL     1      43.151 -12.847   1.310  1.00  0.00     0.209 HD
ENDBRANCH  25  26
ENDBRANCH  24  25
ENDBRANCH  19  24
ENDBRANCH  16  17
ENDBRANCH  13  16
ENDBRANCH   6  12
BRANCH   1  28
HETATM   28  C   UNL     1      42.899 -14.980   4.581  1.00  0.00     0.312 C 
HETATM   29  O   UNL     1      43.705 -14.147   4.983  1.00  0.00    -0.258 OA
BRANCH  28  30
HETATM   30  O   UNL     1      41.567 -14.787   4.400  1.00  0.00    -0.317 OA
BRANCH  30  31
HETATM   31  C   UNL     1      40.756 -14.884   5.581  1.00  0.00     0.175 C 
HETATM   32  C   UNL     1      39.958 -13.610   5.784  1.00  0.00     0.034 C 
ENDBRANCH  30  31
ENDBRANCH  28  30
ENDBRANCH   1  28
TORSDOF 9
ENDMDL
MODEL 2
REMARK VINA RESULT:      -7.4      1.878      2.693
REMARK  9 active torsions:
REMARK  status: ('A' for Active; 'I' for Inactive)
REMARK    1  A    between atoms: C_2  and  O_3 
REMARK    2  A    between atoms: O_3  and  C_4 
REMARK    3  A    between atoms: C_4  and  C_5 
REMARK    4  A    between atoms: C_10  and  N_11 
REMARK       I    between atoms: N_11  and  C_12 
REMARK    5  A    between atoms: C_12  and  C_13 
REMARK    6  A    between atoms: C_13  and  N_14 
REMARK    7  A    between atoms: C_16  and  C_17 
REMARK    8  A    between atoms: C_17  and  C_18 
REMARK    9  A    between atoms: C_18  and  O_19 
ROOT
HETATM    1  C   UNL     1      44.076 -18.089   6.192  1.00  0.00     0.137 A 
HETATM    2  N   UNL     1      44.401 -19.377   6.535  1.00  0.00    -0.349 N 
HETATM    3  H   UNL     1      44.604 -19.683   7.478  1.00  0.00     0.166 HD
HETATM    4  C   UNL     1      44.425 -20.183   5.425  1.00  0.00     0.045 A 
HETATM    5  C   UNL     1      44.104 -19.387   4.319  1.00  0.00     0.021 A 
HETATM    6  C   UNL     1      43.860 -18.064   4.819  1.00  0.00     0.080 A 
HETATM    7  C   UNL     1      44.719 -21.550   5.334  1.00  0.00     0.032 A 
HETATM    8  C   UNL     1      44.703 -22.139   4.069  1.00  0.00     0.026 A 
HETATM    9  C   UNL     1      44.413 -21.377   2.945  1.00  0.00     0.035 A 
HETATM   10 CL   UNL     1      44.420 -22.119   1.391  1.00  0.00    -0.084 Cl
HETATM   11  C   UNL     1      44.121 -20.012   3.051  1.00  0.00     0.040 A 
ENDROOT
BRANCH   6  12
HETATM   12  N   UNL     1      43.496 -16.868   4.201  1.00  0.00    -0.323 N 
HETATM   13  C   UNL     1      42.462 -16.658   3.325  1.00  0.00     0.248 C 
HETATM   14  O   UNL     1      41.605 -17.456   2.955  1.00  0.00    -0.271 OA
HETATM   15  H   UNL     1      44.005 -16.058   4.561  1.00  0.00     0.169 HD
BRANCH  13  16
HETATM   16  C   UNL     1      42.365 -15.218   2.813  1.00  0.00     0.338 C 
BRANCH  16  17
HETATM   17  N   UNL     1      41.101 -15.031   1.959  1.00  0.00    -0.059 N 
HETATM   18  H   UNL     1      40.966 -15.985   1.576  1.00  0.00     0.280 HD
HETATM   19  C   UNL     1      39.817 -14.766   2.755  1.00  0.00     0.190 C 
HETATM   20  C   UNL     1      38.645 -14.883   1.769  1.00  0.00     0.033 C 
HETATM   21  C   UNL     1      38.795 -13.959   0.562  1.00  0.00     0.004 C 
HETATM   22  C   UNL     1      40.122 -14.196  -0.151  1.00  0.00     0.028 C 
HETATM   23  C   UNL     1      41.314 -14.111   0.790  1.00  0.00     0.236 C 
BRANCH  19  24
HETATM   24  C   UNL     1      39.887 -13.429   3.506  1.00  0.00     0.059 C 
BRANCH  24  25
HETATM   25  C   UNL     1      39.746 -13.578   5.017  1.00  0.00     0.166 C 
BRANCH  25  26
HETATM   26  O   UNL     1      39.645 -14.965   5.299  1.00  0.00    -0.401 OA
HETATM   27  H   UNL     1      39.581 -15.441   4.450  1.00  0.00     0.209 HD
ENDBRANCH  25  26
ENDBRANCH  24  25
ENDBRANCH  19  24
ENDBRANCH  16  17
ENDBRANCH  13  16
ENDBRANCH   6  12
BRANCH   1  28
HETATM   28  C   UNL     1      43.965 -16.996   7.129  1.00  0.00     0.312 C 
HETATM   29  O   UNL     1      43.283 -17.045   8.147  1.00  0.00    -0.258 OA
BRANCH  28  30
HETATM   30  O   UNL     1      44.714 -15.943   6.713  1.00  0.00    -0.317 OA
BRANCH  30  31
HETATM   31  C   UNL     1      44.312 -14.657   7.210  1.00  0.00     0.175 C 
HETATM   32  C   UNL     1      43.521 -13.904   6.157  1.00  0.00     0.034 C 
ENDBRANCH  30  31
ENDBRANCH  28  30
ENDBRANCH   1  28
TORSDOF 9
ENDMDL
MODEL 3
REMARK VINA RESULT:      -7.4      1.602      2.526
REMARK  9 active torsions:
REMARK  status: ('A' for Active; 'I' for Inactive)
REMARK    1  A    between atoms: C_2  and  O_3 
REMARK    2  A    between atoms: O_3  and  C_4 
REMARK    3  A    between atoms: C_4  and  C_5 
REMARK    4  A    between atoms: C_10  and  N_11 
REMARK       I    between atoms: N_11  and  C_12 
REMARK    5  A    between atoms: C_12  and  C_13 
REMARK    6  A    between atoms: C_13  and  N_14 
REMARK    7  A    between atoms: C_16  and  C_17 
REMARK    8  A    between atoms: C_17  and  C_18 
REMARK    9  A    between atoms: C_18  and  O_19 
ROOT
HETATM    1  C   UNL     1      43.356 -16.341   3.857  1.00  0.00     0.137 A 
HETATM    2  N   UNL     1      43.843 -17.197   4.813  1.00  0.00    -0.349 N 
HETATM    3  H   UNL     1      44.024 -16.936   5.774  1.00  0.00     0.166 HD
HETATM    4  C   UNL     1      44.063 -18.443   4.283  1.00  0.00     0.045 A 
HETATM    5  C   UNL     1      43.705 -18.394   2.931  1.00  0.00     0.021 A 
HETATM    6  C   UNL     1      43.234 -17.062   2.675  1.00  0.00     0.080 A 
HETATM    7  C   UNL     1      44.561 -19.593   4.910  1.00  0.00     0.032 A 
HETATM    8  C   UNL     1      44.720 -20.742   4.135  1.00  0.00     0.026 A 
HETATM    9  C   UNL     1      44.399 -20.727   2.784  1.00  0.00     0.035 A 
HETATM   10 CL   UNL     1      44.622 -22.151   1.841  1.00  0.00    -0.084 Cl
HETATM   11  C   UNL     1      43.901 -19.571   2.171  1.00  0.00     0.040 A 
ENDROOT
BRANCH   6  12
HETATM   12  N   UNL     1      42.741 -16.433   1.532  1.00  0.00    -0.323 N 
HETATM   13  C   UNL     1      41.450 -16.421   1.073  1.00  0.00     0.248 C 
HETATM   14  O   UNL     1      40.450 -16.903   1.602  1.00  0.00    -0.271 OA
HETATM   15  H   UNL     1      43.426 -15.822   1.082  1.00  0.00     0.169 HD
BRANCH  13  16
HETATM   16  C   UNL     1      41.263 -15.650  -0.237  1.00  0.00     0.338 C 
BRANCH  16  17
HETATM   17  N   UNL     1      41.673 -14.180  -0.062  1.00  0.00    -0.059 N 
HETATM   18  H   UNL     1      42.611 -14.275   0.368  1.00  0.00     0.280 HD
HETATM   19  C   UNL     1      41.939 -13.423  -1.369  1.00  0.00     0.190 C 
HETATM   20  C   UNL     1      42.590 -12.085  -0.990  1.00  0.00     0.033 C 
HETATM   21  C   UNL     1      41.752 -11.280  -0.000  1.00  0.00     0.004 C 
HETATM   22  C   UNL     1      41.438 -12.097   1.249  1.00  0.00     0.028 C 
HETATM   23  C   UNL     1      40.808 -13.443   0.923  1.00  0.00     0.236 C 
BRANCH  19  24
HETATM   24  C   UNL     1      40.663 -13.294  -2.212  1.00  0.00     0.059 C 
BRANCH  24  25
HETATM   25  C   UNL     1      40.770 -13.969  -3.576  1.00  0.00     0.166 C 
BRANCH  25  26
HETATM   26  O   UNL     1      42.012 -14.655  -3.613  1.00  0.00    -0.401 OA
HETATM   27  H   UNL     1      42.719 -14.006  -3.438  1.00  0.00     0.209 HD
ENDBRANCH  25  26
ENDBRANCH  24  25
ENDBRANCH  19  24
ENDBRANCH  16  17
ENDBRANCH  13  16
ENDBRANCH   6  12
BRANCH   1  28
HETATM   28  C   UNL     1      43.021 -14.957   4.093  1.00  0.00     0.312 C 
HETATM   29  O   UNL     1      43.507 -14.026   3.459  1.00  0.00    -0.258 OA
BRANCH  28  30
HETATM   30  O   UNL     1      42.110 -14.858   5.095  1.00  0.00    -0.317 OA
BRANCH  30  31
HETATM   31  C   UNL     1      40.747 -15.129   4.729  1.00  0.00     0.175 C 
HETATM   32  C   UNL     1      39.968 -13.835   4.590  1.00  0.00     0.034 C 
ENDBRANCH  30  31
ENDBRANCH  28  30
ENDBRANCH   1  28
TORSDOF 9
ENDMDL
MODEL 4
REMARK VINA RESULT:      -7.4      1.987      3.223
REMARK  9 active torsions:
REMARK  status: ('A' for Active; 'I' for Inactive)
REMARK    1  A    between atoms: C_2  and  O_3 
REMARK    2  A    between atoms: O_3  and  C_4 
REMARK    3  A    between atoms: C_4  and  C_5 
REMARK    4  A    between atoms: C_10  and  N_11 
REMARK       I    between atoms: N_11  and  C_12 
REMARK    5  A    between atoms: C_12  and  C_13 
REMARK    6  A    between atoms: C_13  and  N_14 
REMARK    7  A    between atoms: C_16  and  C_17 
REMARK    8  A    between atoms: C_17  and  C_18 
REMARK    9  A    between atoms: C_18  and  O_19 
ROOT
HETATM    1  C   UNL     1      42.982 -16.648   4.525  1.00  0.00     0.137 A 
HETATM    2  N   UNL     1      43.765 -17.550   5.200  1.00  0.00    -0.349 N 
HETATM    3  H   UNL     1      44.157 -17.390   6.120  1.00  0.00     0.166 HD
HETATM    4  C   UNL     1      43.953 -18.686   4.453  1.00  0.00     0.045 A 
HETATM    5  C   UNL     1      43.265 -18.514   3.247  1.00  0.00     0.021 A 
HETATM    6  C   UNL     1      42.631 -17.227   3.311  1.00  0.00     0.080 A 
HETATM    7  C   UNL     1      44.690 -19.835   4.767  1.00  0.00     0.032 A 
HETATM    8  C   UNL     1      44.749 -20.852   3.813  1.00  0.00     0.026 A 
HETATM    9  C   UNL     1      44.100 -20.709   2.594  1.00  0.00     0.035 A 
HETATM   10 CL   UNL     1      44.204 -21.968   1.423  1.00  0.00    -0.084 Cl
HETATM   11  C   UNL     1      43.367 -19.555   2.295  1.00  0.00     0.040 A 
ENDROOT
BRANCH   6  12
HETATM   12  N   UNL     1      41.815 -16.526   2.424  1.00  0.00    -0.323 N 
HETATM   13  C   UNL     1      42.033 -16.291   1.091  1.00  0.00     0.248 C 
HETATM   14  O   UNL     1      42.953 -16.702   0.386  1.00  0.00    -0.271 OA
HETATM   15  H   UNL     1      40.906 -16.281   2.822  1.00  0.00     0.169 HD
BRANCH  13  16
HETATM   16  C   UNL     1      40.939 -15.456   0.420  1.00  0.00     0.338 C 
BRANCH  16  17
HETATM   17  N   UNL     1      41.478 -14.777  -0.849  1.00  0.00    -0.059 N 
HETATM   18  H   UNL     1      42.355 -15.304  -1.011  1.00  0.00     0.280 HD
HETATM   19  C   UNL     1      40.653 -15.030  -2.117  1.00  0.00     0.190 C 
HETATM   20  C   UNL     1      41.482 -14.513  -3.302  1.00  0.00     0.033 C 
HETATM   21  C   UNL     1      41.890 -13.051  -3.144  1.00  0.00     0.004 C 
HETATM   22  C   UNL     1      42.633 -12.825  -1.832  1.00  0.00     0.028 C 
HETATM   23  C   UNL     1      41.860 -13.340  -0.627  1.00  0.00     0.236 C 
BRANCH  19  24
HETATM   24  C   UNL     1      39.250 -14.418  -2.006  1.00  0.00     0.059 C 
BRANCH  24  25
HETATM   25  C   UNL     1      38.418 -14.582  -3.274  1.00  0.00     0.166 C 
BRANCH  25  26
HETATM   26  O   UNL     1      37.371 -15.494  -2.979  1.00  0.00    -0.401 OA
HETATM   27  H   UNL     1      37.583 -15.932  -2.135  1.00  0.00     0.209 HD
ENDBRANCH  25  26
ENDBRANCH  24  25
ENDBRANCH  19  24
ENDBRANCH  16  17
ENDBRANCH  13  16
ENDBRANCH   6  12
BRANCH   1  28
HETATM   28  C   UNL     1      42.597 -15.355   5.037  1.00  0.00     0.312 C 
HETATM   29  O   UNL     1      41.762 -14.636   4.500  1.00  0.00    -0.258 OA
BRANCH  28  30
HETATM   30  O   UNL     1      43.287 -15.075   6.173  1.00  0.00    -0.317 OA
BRANCH  30  31
HETATM   31  C   UNL     1      44.269 -14.032   6.065  1.00  0.00     0.175 C 
HETATM   32  C   UNL     1      44.926 -13.779   7.408  1.00  0.00     0.034 C 
ENDBRANCH  30  31
ENDBRANCH  28  30
ENDBRANCH   1  28
TORSDOF 9
ENDMDL
MODEL 5
REMARK VINA RESULT:      -6.9      2.110      2.716
REMARK  9 active torsions:
REMARK  status: ('A' for Active; 'I' for Inactive)
REMARK    1  A    between atoms: C_2  and  O_3 
REMARK    2  A    between atoms: O_3  and  C_4 
REMARK    3  A    between atoms: C_4  and  C_5 
REMARK    4  A    between atoms: C_10  and  N_11 
REMARK       I    between atoms: N_11  and  C_12 
REMARK    5  A    between atoms: C_12  and  C_13 
REMARK    6  A    between atoms: C_13  and  N_14 
REMARK    7  A    between atoms: C_16  and  C_17 
REMARK    8  A    between atoms: C_17  and  C_18 
REMARK    9  A    between atoms: C_18  and  O_19 
ROOT
HETATM    1  C   UNL     1      43.170 -15.814   3.325  1.00  0.00     0.137 A 
HETATM    2  N   UNL     1      43.475 -16.718   4.311  1.00  0.00    -0.349 N 
HETATM    3  H   UNL     1      43.579 -16.483   5.290  1.00  0.00     0.166 HD
HETATM    4  C   UNL     1      43.633 -17.975   3.785  1.00  0.00     0.045 A 
HETATM    5  C   UNL     1      43.422 -17.884   2.404  1.00  0.00     0.021 A 
HETATM    6  C   UNL     1      43.105 -16.512   2.124  1.00  0.00     0.080 A 
HETATM    7  C   UNL     1      43.956 -19.171   4.440  1.00  0.00     0.032 A 
HETATM    8  C   UNL     1      44.087 -20.325   3.665  1.00  0.00     0.026 A 
HETATM    9  C   UNL     1      43.910 -20.269   2.289  1.00  0.00     0.035 A 
HETATM   10 CL   UNL     1      44.097 -21.701   1.350  1.00  0.00    -0.084 Cl
HETATM   11  C   UNL     1      43.586 -19.067   1.649  1.00  0.00     0.040 A 
ENDROOT
BRANCH   6  12
HETATM   12  N   UNL     1      42.792 -15.831   0.948  1.00  0.00    -0.323 N 
HETATM   13  C   UNL     1      41.550 -15.617   0.409  1.00  0.00     0.248 C 
HETATM   14  O   UNL     1      40.455 -15.919   0.877  1.00  0.00    -0.271 OA
HETATM   15  H   UNL     1      43.594 -15.348   0.538  1.00  0.00     0.169 HD
BRANCH  13  16
HETATM   16  C   UNL     1      41.572 -14.849  -0.916  1.00  0.00     0.338 C 
BRANCH  16  17
HETATM   17  N   UNL     1      40.314 -15.158  -1.742  1.00  0.00    -0.059 N 
HETATM   18  H   UNL     1      39.815 -15.822  -1.121  1.00  0.00     0.280 HD
HETATM   19  C   UNL     1      39.336 -13.985  -1.893  1.00  0.00     0.190 C 
HETATM   20  C   UNL     1      38.043 -14.553  -2.497  1.00  0.00     0.033 C 
HETATM   21  C   UNL     1      38.281 -15.298  -3.807  1.00  0.00     0.004 C 
HETATM   22  C   UNL     1      39.321 -16.400  -3.634  1.00  0.00     0.028 C 
HETATM   23  C   UNL     1      40.616 -15.890  -3.019  1.00  0.00     0.236 C 
BRANCH  19  24
HETATM   24  C   UNL     1      39.960 -12.834  -2.693  1.00  0.00     0.059 C 
BRANCH  24  25
HETATM   25  C   UNL     1      38.946 -11.781  -3.127  1.00  0.00     0.166 C 
BRANCH  25  26
HETATM   26  O   UNL     1      39.116 -11.579  -4.522  1.00  0.00    -0.401 OA
HETATM   27  H   UNL     1      38.264 -11.277  -4.888  1.00  0.00     0.209 HD
ENDBRANCH  25  26
ENDBRANCH  24  25
ENDBRANCH  19  24
ENDBRANCH  16  17
ENDBRANCH  13  16
ENDBRANCH   6  12
BRANCH   1  28
HETATM   28  C   UNL     1      42.941 -14.406   3.549  1.00  0.00     0.312 C 
HETATM   29  O   UNL     1      43.495 -13.521   2.907  1.00  0.00    -0.258 OA
BRANCH  28  30
HETATM   30  O   UNL     1      42.041 -14.230   4.551  1.00  0.00    -0.317 OA
BRANCH  30  31
HETATM   31  C   UNL     1      40.667 -14.468   4.205  1.00  0.00     0.175 C 
HETATM   32  C   UNL     1      39.762 -13.473   4.905  1.00  0.00     0.034 C 
ENDBRANCH  30  31
ENDBRANCH  28  30
ENDBRANCH   1  28
TORSDOF 9
ENDMDL
MODEL 6
REMARK VINA RESULT:      -6.8      1.242      1.693
REMARK  9 active torsions:
REMARK  status: ('A' for Active; 'I' for Inactive)
REMARK    1  A    between atoms: C_2  and  O_3 
REMARK    2  A    between atoms: O_3  and  C_4 
REMARK    3  A    between atoms: C_4  and  C_5 
REMARK    4  A    between atoms: C_10  and  N_11 
REMARK       I    between atoms: N_11  and  C_12 
REMARK    5  A    between atoms: C_12  and  C_13 
REMARK    6  A    between atoms: C_13  and  N_14 
REMARK    7  A    between atoms: C_16  and  C_17 
REMARK    8  A    between atoms: C_17  and  C_18 
REMARK    9  A    between atoms: C_18  and  O_19 
ROOT
HETATM    1  C   UNL     1      43.229 -16.446   4.288  1.00  0.00     0.137 A 
HETATM    2  N   UNL     1      43.808 -17.424   5.056  1.00  0.00    -0.349 N 
HETATM    3  H   UNL     1      44.085 -17.302   6.023  1.00  0.00     0.166 HD
HETATM    4  C   UNL     1      43.972 -18.578   4.332  1.00  0.00     0.045 A 
HETATM    5  C   UNL     1      43.480 -18.340   3.044  1.00  0.00     0.021 A 
HETATM    6  C   UNL     1      42.988 -16.991   3.031  1.00  0.00     0.080 A 
HETATM    7  C   UNL     1      44.529 -19.799   4.734  1.00  0.00     0.032 A 
HETATM    8  C   UNL     1      44.607 -20.823   3.789  1.00  0.00     0.026 A 
HETATM    9  C   UNL     1      44.152 -20.617   2.493  1.00  0.00     0.035 A 
HETATM   10 CL   UNL     1      44.278 -21.888   1.337  1.00  0.00    -0.084 Cl
HETATM   11  C   UNL     1      43.597 -19.391   2.107  1.00  0.00     0.040 A 
ENDROOT
BRANCH   6  12
HETATM   12  N   UNL     1      42.384 -16.210   2.047  1.00  0.00    -0.323 N 
HETATM   13  C   UNL     1      41.286 -16.521   1.287  1.00  0.00     0.248 C 
HETATM   14  O   UNL     1      40.569 -17.516   1.358  1.00  0.00    -0.271 OA
HETATM   15  H   UNL     1      42.756 -15.259   2.003  1.00  0.00     0.169 HD
BRANCH  13  16
HETATM   16  C   UNL     1      40.905 -15.438   0.273  1.00  0.00     0.338 C 
BRANCH  16  17
HETATM   17  N   UNL     1      39.933 -14.427   0.902  1.00  0.00    -0.059 N 
HETATM   18  H   UNL     1      39.674 -14.907   1.783  1.00  0.00     0.280 HD
HETATM   19  C   UNL     1      40.578 -13.116   1.371  1.00  0.00     0.190 C 
HETATM   20  C   UNL     1      39.525 -12.369   2.202  1.00  0.00     0.033 C 
HETATM   21  C   UNL     1      38.220 -12.148   1.441  1.00  0.00     0.004 C 
HETATM   22  C   UNL     1      37.656 -13.466   0.920  1.00  0.00     0.028 C 
HETATM   23  C   UNL     1      38.671 -14.254   0.105  1.00  0.00     0.236 C 
BRANCH  19  24
HETATM   24  C   UNL     1      41.142 -12.315   0.189  1.00  0.00     0.059 C 
BRANCH  24  25
HETATM   25  C   UNL     1      41.609 -10.916   0.577  1.00  0.00     0.166 C 
BRANCH  25  26
HETATM   26  O   UNL     1      43.007 -10.854   0.338  1.00  0.00    -0.401 OA
HETATM   27  H   UNL     1      43.280  -9.920   0.389  1.00  0.00     0.209 HD
ENDBRANCH  25  26
ENDBRANCH  24  25
ENDBRANCH  19  24
ENDBRANCH  16  17
ENDBRANCH  13  16
ENDBRANCH   6  12
BRANCH   1  28
HETATM   28  C   UNL     1      42.921 -15.115   4.753  1.00  0.00     0.312 C 
HETATM   29  O   UNL     1      41.823 -14.587   4.614  1.00  0.00    -0.258 OA
BRANCH  28  30
HETATM   30  O   UNL     1      44.008 -14.563   5.351  1.00  0.00    -0.317 OA
BRANCH  30  31
HETATM   31  C   UNL     1      43.744 -13.779   6.525  1.00  0.00     0.175 C 
HETATM   32  C   UNL     1      44.969 -13.730   7.418  1.00  0.00     0.034 C 
ENDBRANCH  30  31
ENDBRANCH  28  30
ENDBRANCH   1  28
TORSDOF 9
ENDMDL
MODEL 7
REMARK VINA RESULT:      -6.6      3.171      7.055
REMARK  9 active torsions:
REMARK  status: ('A' for Active; 'I' for Inactive)
REMARK    1  A    between atoms: C_2  and  O_3 
REMARK    2  A    between atoms: O_3  and  C_4 
REMARK    3  A    between atoms: C_4  and  C_5 
REMARK    4  A    between atoms: C_10  and  N_11 
REMARK       I    between atoms: N_11  and  C_12 
REMARK    5  A    between atoms: C_12  and  C_13 
REMARK    6  A    between atoms: C_13  and  N_14 
REMARK    7  A    between atoms: C_16  and  C_17 
REMARK    8  A    between atoms: C_17  and  C_18 
REMARK    9  A    between atoms: C_18  and  O_19 
ROOT
HETATM    1  C   UNL     1      41.330 -16.025   0.095  1.00  0.00     0.137 A 
HETATM    2  N   UNL     1      41.257 -16.163  -1.268  1.00  0.00    -0.349 N 
HETATM    3  H   UNL     1      41.426 -17.028  -1.765  1.00  0.00     0.166 HD
HETATM    4  C   UNL     1      40.936 -14.967  -1.861  1.00  0.00     0.045 A 
HETATM    5  C   UNL     1      40.796 -14.017  -0.843  1.00  0.00     0.021 A 
HETATM    6  C   UNL     1      41.025 -14.703   0.398  1.00  0.00     0.080 A 
HETATM    7  C   UNL     1      40.774 -14.673  -3.221  1.00  0.00     0.032 A 
HETATM    8  C   UNL     1      40.472 -13.356  -3.572  1.00  0.00     0.026 A 
HETATM    9  C   UNL     1      40.350 -12.380  -2.593  1.00  0.00     0.035 A 
HETATM   10 CL   UNL     1      39.998 -10.757  -3.051  1.00  0.00    -0.084 Cl
HETATM   11  C   UNL     1      40.514 -12.689  -1.238  1.00  0.00     0.040 A 
ENDROOT
BRANCH   6  12
HETATM   12  N   UNL     1      41.010 -14.287   1.729  1.00  0.00    -0.323 N 
HETATM   13  C   UNL     1      41.837 -13.374   2.331  1.00  0.00     0.248 C 
HETATM   14  O   UNL     1      42.714 -12.685   1.815  1.00  0.00    -0.271 OA
HETATM   15  H   UNL     1      40.202 -14.633   2.249  1.00  0.00     0.169 HD
BRANCH  13  16
HETATM   16  C   UNL     1      41.559 -13.174   3.823  1.00  0.00     0.338 C 
BRANCH  16  17
HETATM   17  N   UNL     1      41.698 -14.503   4.582  1.00  0.00    -0.059 N 
HETATM   18  H   UNL     1      41.571 -15.193   3.819  1.00  0.00     0.280 HD
HETATM   19  C   UNL     1      43.105 -14.797   5.118  1.00  0.00     0.190 C 
HETATM   20  C   UNL     1      43.109 -16.258   5.591  1.00  0.00     0.033 C 
HETATM   21  C   UNL     1      42.014 -16.552   6.612  1.00  0.00     0.004 C 
HETATM   22  C   UNL     1      40.640 -16.167   6.073  1.00  0.00     0.028 C 
HETATM   23  C   UNL     1      40.590 -14.731   5.573  1.00  0.00     0.236 C 
BRANCH  19  24
HETATM   24  C   UNL     1      43.521 -13.780   6.189  1.00  0.00     0.059 C 
BRANCH  24  25
HETATM   25  C   UNL     1      44.740 -14.216   6.995  1.00  0.00     0.166 C 
BRANCH  25  26
HETATM   26  O   UNL     1      44.434 -14.020   8.367  1.00  0.00    -0.401 OA
HETATM   27  H   UNL     1      44.417 -13.060   8.537  1.00  0.00     0.209 HD
ENDBRANCH  25  26
ENDBRANCH  24  25
ENDBRANCH  19  24
ENDBRANCH  16  17
ENDBRANCH  13  16
ENDBRANCH   6  12
BRANCH   1  28
HETATM   28  C   UNL     1      41.645 -17.096   1.009  1.00  0.00     0.312 C 
HETATM   29  O   UNL     1      40.949 -18.097   1.145  1.00  0.00    -0.258 OA
BRANCH  28  30
HETATM   30  O   UNL     1      42.800 -16.825   1.670  1.00  0.00    -0.317 OA
BRANCH  30  31
HETATM   31  C   UNL     1      43.852 -17.789   1.511  1.00  0.00     0.175 C 
HETATM   32  C   UNL     1      43.970 -18.657   2.749  1.00  0.00     0.034 C 
ENDBRANCH  30  31
ENDBRANCH  28  30
ENDBRANCH   1  28
TORSDOF 9
ENDMDL
MODEL 8
REMARK VINA RESULT:      -6.4      2.629      6.488
REMARK  9 active torsions:
REMARK  status: ('A' for Active; 'I' for Inactive)
REMARK    1  A    between atoms: C_2  and  O_3 
REMARK    2  A    between atoms: O_3  and  C_4 
REMARK    3  A    between atoms: C_4  and  C_5 
REMARK    4  A    between atoms: C_10  and  N_11 
REMARK       I    between atoms: N_11  and  C_12 
REMARK    5  A    between atoms: C_12  and  C_13 
REMARK    6  A    between atoms: C_13  and  N_14 
REMARK    7  A    between atoms: C_16  and  C_17 
REMARK    8  A    between atoms: C_17  and  C_18 
REMARK    9  A    between atoms: C_18  and  O_19 
ROOT
HETATM    1  C   UNL     1      42.337 -13.519   2.029  1.00  0.00     0.137 A 
HETATM    2  N   UNL     1      42.133 -12.610   1.022  1.00  0.00    -0.349 N 
HETATM    3  H   UNL     1      42.282 -11.613   1.114  1.00  0.00     0.166 HD
HETATM    4  C   UNL     1      41.690 -13.236  -0.115  1.00  0.00     0.045 A 
HETATM    5  C   UNL     1      41.602 -14.604   0.165  1.00  0.00     0.021 A 
HETATM    6  C   UNL     1      42.037 -14.778   1.521  1.00  0.00     0.080 A 
HETATM    7  C   UNL     1      41.356 -12.677  -1.356  1.00  0.00     0.032 A 
HETATM    8  C   UNL     1      40.897 -13.536  -2.356  1.00  0.00     0.026 A 
HETATM    9  C   UNL     1      40.773 -14.896  -2.109  1.00  0.00     0.035 A 
HETATM   10 CL   UNL     1      40.185 -15.935  -3.351  1.00  0.00    -0.084 Cl
HETATM   11  C   UNL     1      41.111 -15.440  -0.864  1.00  0.00     0.040 A 
ENDROOT
BRANCH   6  12
HETATM   12  N   UNL     1      42.174 -15.900   2.338  1.00  0.00    -0.323 N 
HETATM   13  C   UNL     1      43.036 -16.954   2.176  1.00  0.00     0.248 C 
HETATM   14  O   UNL     1      43.908 -17.100   1.322  1.00  0.00    -0.271 OA
HETATM   15  H   UNL     1      41.643 -15.832   3.208  1.00  0.00     0.169 HD
BRANCH  13  16
HETATM   16  C   UNL     1      42.902 -18.037   3.250  1.00  0.00     0.338 C 
BRANCH  16  17
HETATM   17  N   UNL     1      43.761 -17.691   4.477  1.00  0.00    -0.059 N 
HETATM   18  H   UNL     1      44.516 -17.124   4.050  1.00  0.00     0.280 HD
HETATM   19  C   UNL     1      43.101 -16.735   5.479  1.00  0.00     0.190 C 
HETATM   20  C   UNL     1      44.191 -16.300   6.469  1.00  0.00     0.033 C 
HETATM   21  C   UNL     1      44.881 -17.482   7.145  1.00  0.00     0.004 C 
HETATM   22  C   UNL     1      45.450 -18.451   6.114  1.00  0.00     0.028 C 
HETATM   23  C   UNL     1      44.410 -18.897   5.096  1.00  0.00     0.236 C 
BRANCH  19  24
HETATM   24  C   UNL     1      41.865 -17.371   6.131  1.00  0.00     0.059 C 
BRANCH  24  25
HETATM   25  C   UNL     1      40.636 -16.469   6.101  1.00  0.00     0.166 C 
BRANCH  25  26
HETATM   26  O   UNL     1      40.342 -16.199   4.739  1.00  0.00    -0.401 OA
HETATM   27  H   UNL     1      40.554 -16.997   4.221  1.00  0.00     0.209 HD
ENDBRANCH  25  26
ENDBRANCH  24  25
ENDBRANCH  19  24
ENDBRANCH  16  17
ENDBRANCH  13  16
ENDBRANCH   6  12
BRANCH   1  28
HETATM   28  C   UNL     1      42.803 -13.182   3.353  1.00  0.00     0.312 C 
HETATM   29  O   UNL     1      43.822 -13.650   3.851  1.00  0.00    -0.258 OA
BRANCH  28  30
HETATM   30  O   UNL     1      41.960 -12.292   3.936  1.00  0.00    -0.317 OA
BRANCH  30  31
HETATM   31  C   UNL     1      40.680 -12.812   4.332  1.00  0.00     0.175 C 
HETATM   32  C   UNL     1      40.511 -12.720   5.836  1.00  0.00     0.034 C 
ENDBRANCH  30  31
ENDBRANCH  28  30
ENDBRANCH   1  28
TORSDOF 9
ENDMDL
MODEL 9
REMARK VINA RESULT:      -6.4      2.773      6.861
REMARK  9 active torsions:
REMARK  status: ('A' for Active; 'I' for Inactive)
REMARK    1  A    between atoms: C_2  and  O_3 
REMARK    2  A    between atoms: O_3  and  C_4 
REMARK    3  A    between atoms: C_4  and  C_5 
REMARK    4  A    between atoms: C_10  and  N_11 
REMARK       I    between atoms: N_11  and  C_12 
REMARK    5  A    between atoms: C_12  and  C_13 
REMARK    6  A    between atoms: C_13  and  N_14 
REMARK    7  A    between atoms: C_16  and  C_17 
REMARK    8  A    between atoms: C_17  and  C_18 
REMARK    9  A    between atoms: C_18  and  O_19 
ROOT
HETATM    1  C   UNL     1      42.328 -13.658   1.940  1.00  0.00     0.137 A 
HETATM    2  N   UNL     1      41.853 -12.725   1.053  1.00  0.00    -0.349 N 
HETATM    3  H   UNL     1      41.837 -11.728   1.226  1.00  0.00     0.166 HD
HETATM    4  C   UNL     1      41.393 -13.331  -0.089  1.00  0.00     0.045 A 
HETATM    5  C   UNL     1      41.576 -14.710   0.063  1.00  0.00     0.021 A 
HETATM    6  C   UNL     1      42.193 -14.907   1.344  1.00  0.00     0.080 A 
HETATM    7  C   UNL     1      40.823 -12.747  -1.228  1.00  0.00     0.032 A 
HETATM    8  C   UNL     1      40.405 -13.594  -2.255  1.00  0.00     0.026 A 
HETATM    9  C   UNL     1      40.547 -14.970  -2.132  1.00  0.00     0.035 A 
HETATM   10 CL   UNL     1      40.005 -15.998  -3.403  1.00  0.00    -0.084 Cl
HETATM   11  C   UNL     1      41.119 -15.539  -0.988  1.00  0.00     0.040 A 
ENDROOT
BRANCH   6  12
HETATM   12  N   UNL     1      42.618 -16.046   2.028  1.00  0.00    -0.323 N 
HETATM   13  C   UNL     1      41.913 -16.786   2.942  1.00  0.00     0.248 C 
HETATM   14  O   UNL     1      40.746 -16.644   3.299  1.00  0.00    -0.271 OA
HETATM   15  H   UNL     1      43.513 -16.406   1.692  1.00  0.00     0.169 HD
BRANCH  13  16
HETATM   16  C   UNL     1      42.699 -17.965   3.524  1.00  0.00     0.338 C 
BRANCH  16  17
HETATM   17  N   UNL     1      42.866 -17.807   5.043  1.00  0.00    -0.059 N 
HETATM   18  H   UNL     1      41.879 -17.769   5.359  1.00  0.00     0.280 HD
HETATM   19  C   UNL     1      43.438 -19.035   5.762  1.00  0.00     0.190 C 
HETATM   20  C   UNL     1      43.274 -18.791   7.269  1.00  0.00     0.033 C 
HETATM   21  C   UNL     1      43.915 -17.485   7.729  1.00  0.00     0.004 C 
HETATM   22  C   UNL     1      43.381 -16.298   6.933  1.00  0.00     0.028 C 
HETATM   23  C   UNL     1      43.503 -16.501   5.430  1.00  0.00     0.236 C 
BRANCH  19  24
HETATM   24  C   UNL     1      44.878 -19.325   5.316  1.00  0.00     0.059 C 
BRANCH  24  25
HETATM   25  C   UNL     1      45.037 -20.676   4.627  1.00  0.00     0.166 C 
BRANCH  25  26
HETATM   26  O   UNL     1      44.642 -21.674   5.556  1.00  0.00    -0.401 OA
HETATM   27  H   UNL     1      43.838 -22.105   5.211  1.00  0.00     0.209 HD
ENDBRANCH  25  26
ENDBRANCH  24  25
ENDBRANCH  19  24
ENDBRANCH  16  17
ENDBRANCH  13  16
ENDBRANCH   6  12
BRANCH   1  28
HETATM   28  C   UNL     1      42.883 -13.346   3.235  1.00  0.00     0.312 C 
HETATM   29  O   UNL     1      44.039 -13.602   3.555  1.00  0.00    -0.258 OA
BRANCH  28  30
HETATM   30  O   UNL     1      41.948 -12.743   4.014  1.00  0.00    -0.317 OA
BRANCH  30  31
HETATM   31  C   UNL     1      41.918 -13.160   5.388  1.00  0.00     0.175 C 
HETATM   32  C   UNL     1      40.673 -13.980   5.668  1.00  0.00     0.034 C 
ENDBRANCH  30  31
ENDBRANCH  28  30
ENDBRANCH   1  28
TORSDOF 9
ENDMDL
MODEL 10
REMARK VINA RESULT:      -6.4      1.868      2.653
REMARK  9 active torsions:
REMARK  status: ('A' for Active; 'I' for Inactive)
REMARK    1  A    between atoms: C_2  and  O_3 
REMARK    2  A    between atoms: O_3  and  C_4 
REMARK    3  A    between atoms: C_4  and  C_5 
REMARK    4  A    between atoms: C_10  and  N_11 
REMARK       I    between atoms: N_11  and  C_12 
REMARK    5  A    between atoms: C_12  and  C_13 
REMARK    6  A    between atoms: C_13  and  N_14 
REMARK    7  A    between atoms: C_16  and  C_17 
REMARK    8  A    between atoms: C_17  and  C_18 
REMARK    9  A    between atoms: C_18  and  O_19 
ROOT
HETATM    1  C   UNL     1      43.328 -17.223   4.792  1.00  0.00     0.137 A 
HETATM    2  N   UNL     1      44.318 -18.115   5.119  1.00  0.00    -0.349 N 
HETATM    3  H   UNL     1      44.952 -18.004   5.900  1.00  0.00     0.166 HD
HETATM    4  C   UNL     1      44.336 -19.166   4.236  1.00  0.00     0.045 A 
HETATM    5  C   UNL     1      43.319 -18.946   3.300  1.00  0.00     0.021 A 
HETATM    6  C   UNL     1      42.669 -17.722   3.675  1.00  0.00     0.080 A 
HETATM    7  C   UNL     1      45.188 -20.278   4.206  1.00  0.00     0.032 A 
HETATM    8  C   UNL     1      45.017 -21.203   3.176  1.00  0.00     0.026 A 
HETATM    9  C   UNL     1      44.035 -21.007   2.213  1.00  0.00     0.035 A 
HETATM   10 CL   UNL     1      43.855 -22.151   0.938  1.00  0.00    -0.084 Cl
HETATM   11  C   UNL     1      43.190 -19.891   2.257  1.00  0.00     0.040 A 
ENDROOT
BRANCH   6  12
HETATM   12  N   UNL     1      41.597 -17.013   3.134  1.00  0.00    -0.323 N 
HETATM   13  C   UNL     1      41.428 -16.609   1.835  1.00  0.00     0.248 C 
HETATM   14  O   UNL     1      42.148 -16.842   0.866  1.00  0.00    -0.271 OA
HETATM   15  H   UNL     1      40.815 -16.908   3.785  1.00  0.00     0.169 HD
BRANCH  13  16
HETATM   16  C   UNL     1      40.138 -15.821   1.592  1.00  0.00     0.338 C 
BRANCH  16  17
HETATM   17  N   UNL     1      40.361 -14.324   1.857  1.00  0.00    -0.059 N 
HETATM   18  H   UNL     1      39.913 -13.896   1.026  1.00  0.00     0.280 HD
HETATM   19  C   UNL     1      39.569 -13.752   3.040  1.00  0.00     0.190 C 
HETATM   20  C   UNL     1      39.705 -12.224   2.976  1.00  0.00     0.033 C 
HETATM   21  C   UNL     1      41.159 -11.760   2.957  1.00  0.00     0.004 C 
HETATM   22  C   UNL     1      41.932 -12.416   1.818  1.00  0.00     0.028 C 
HETATM   23  C   UNL     1      41.812 -13.932   1.827  1.00  0.00     0.236 C 
BRANCH  19  24
HETATM   24  C   UNL     1      40.018 -14.376   4.369  1.00  0.00     0.059 C 
BRANCH  24  25
HETATM   25  C   UNL     1      39.745 -13.485   5.577  1.00  0.00     0.166 C 
BRANCH  25  26
HETATM   26  O   UNL     1      40.939 -13.431   6.342  1.00  0.00    -0.401 OA
HETATM   27  H   UNL     1      40.887 -14.119   7.030  1.00  0.00     0.209 HD
ENDBRANCH  25  26
ENDBRANCH  24  25
ENDBRANCH  19  24
ENDBRANCH  16  17
ENDBRANCH  13  16
ENDBRANCH   6  12
BRANCH   1  28
HETATM   28  C   UNL     1      43.046 -16.011   5.523  1.00  0.00     0.312 C 
HETATM   29  O   UNL     1      43.634 -14.952   5.330  1.00  0.00    -0.258 OA
BRANCH  28  30
HETATM   30  O   UNL     1      42.057 -16.227   6.428  1.00  0.00    -0.317 OA
BRANCH  30  31
HETATM   31  C   UNL     1      42.274 -17.313   7.342  1.00  0.00     0.175 C 
HETATM   32  C   UNL     1      43.380 -16.971   8.321  1.00  0.00     0.034 C 
ENDBRANCH  30  31
ENDBRANCH  28  30
ENDBRANCH   1  28
TORSDOF 9
ENDMDL
