MODEL 1
REMARK VINA RESULT:      -9.0      0.000      0.000
REMARK  7 active torsions:
REMARK  status: ('A' for Active; 'I' for Inactive)
REMARK    1  A    between atoms: C_2  and  C_3 
REMARK    2  A    between atoms: C_8  and  N_9 
REMARK    3  A    between atoms: N_9  and  C_10 
REMARK    4  A    between atoms: C_10  and  C_11 
REMARK       I    between atoms: C_11  and  N_12 
REMARK    5  A    between atoms: N_12  and  C_13 
REMARK    6  A    between atoms: C_24  and  N_25 
REMARK    7  A    between atoms: N_25  and  C_26 
ROOT
HETATM    1  N   UNL     1      42.971 -16.958   0.645  1.00  0.00    -0.282 NA
HETATM    2  H   UNL     1      43.496 -17.239  -0.186  1.00  0.00     0.128 HD
ENDROOT
BRANCH   1   3
HETATM    3  C   UNL     1      43.343 -17.867   1.675  1.00  0.00     0.036 A 
HETATM    4  C   UNL     1      43.491 -19.246   1.473  1.00  0.00     0.042 A 
HETATM    5  C   UNL     1      43.885 -20.096   2.519  1.00  0.00     0.049 A 
HETATM    6  C   UNL     1      44.139 -19.544   3.778  1.00  0.00     0.018 A 
HETATM    7  C   UNL     1      43.998 -18.171   3.993  1.00  0.00     0.032 A 
HETATM    8  C   UNL     1      43.615 -17.311   2.961  1.00  0.00     0.049 A 
BRANCH   5   9
HETATM    9  C   UNL     1      44.034 -21.576   2.267  1.00  0.00     0.417 C 
HETATM   10  F   UNL     1      44.196 -22.309   3.403  1.00  0.00    -0.166 F 
HETATM   11  F   UNL     1      42.957 -22.109   1.628  1.00  0.00    -0.166 F 
HETATM   12  F   UNL     1      45.111 -21.859   1.483  1.00  0.00    -0.166 F 
ENDBRANCH   5   9
BRANCH   8  13
HETATM   13  N   UNL     1      43.384 -15.944   3.144  1.00  0.00    -0.384 N 
HETATM   14  H   UNL     1      44.183 -15.413   2.803  1.00  0.00     0.160 HD
BRANCH  13  15
HETATM   15  C   UNL     1      42.728 -15.322   4.297  1.00  0.00     0.081 C 
HETATM   16  C   UNL     1      41.255 -15.712   4.459  1.00  0.00     0.025 C 
HETATM   17  C   UNL     1      40.648 -15.074   5.708  1.00  0.00     0.002 C 
HETATM   18  C   UNL     1      40.850 -13.561   5.720  1.00  0.00     0.000 C 
HETATM   19  C   UNL     1      42.325 -13.188   5.587  1.00  0.00     0.002 C 
HETATM   20  C   UNL     1      42.957 -13.807   4.342  1.00  0.00     0.025 C 
ENDBRANCH  13  15
ENDBRANCH   8  13
ENDBRANCH   1   3
BRANCH   1  21
HETATM   21  C   UNL     1      41.542 -16.794   0.291  1.00  0.00     0.195 C 
BRANCH  21  22
HETATM   22  C   UNL     1      41.061 -15.334   0.364  1.00  0.00     0.235 C 
HETATM   23  N   UNL     1      39.898 -15.189   1.097  1.00  0.00    -0.326 N 
HETATM   24  H   UNL     1      39.518 -16.072   1.438  1.00  0.00     0.169 HD
HETATM   25  O   UNL     1      41.711 -14.436  -0.164  1.00  0.00    -0.272 OA
BRANCH  23  26
HETATM   26  C   UNL     1      39.134 -14.029   1.306  1.00  0.00     0.037 A 
HETATM   27  C   UNL     1      37.959 -13.742   0.601  1.00  0.00     0.061 A 
HETATM   28  C   UNL     1      37.298 -12.582   0.935  1.00  0.00     0.065 A 
HETATM   29  C   UNL     1      37.762 -11.712   1.918  1.00  0.00     0.063 A 
HETATM   30  N   UNL     1      36.113 -12.058   0.426  1.00  0.00    -0.306 N 
HETATM   31  N   UNL     1      36.867 -10.653   2.012  1.00  0.00    -0.307 N 
HETATM   32  C   UNL     1      38.913 -11.956   2.622  1.00  0.00     0.034 A 
HETATM   33  C   UNL     1      35.830 -10.857   1.089  1.00  0.00     0.325 A 
HETATM   34  H   UNL     1      36.916  -9.863   2.632  1.00  0.00     0.170 HD
HETATM   35  O   UNL     1      34.870 -10.131   0.906  1.00  0.00    -0.247 OA
HETATM   36  C   UNL     1      39.601 -13.136   2.308  1.00  0.00     0.032 A 
HETATM   37  H   UNL     1      35.530 -12.460  -0.290  1.00  0.00     0.170 HD
ENDBRANCH  23  26
ENDBRANCH  21  22
ENDBRANCH   1  21
TORSDOF 7
ENDMDL
MODEL 2
REMARK VINA RESULT:      -8.9      0.870      1.537
REMARK  7 active torsions:
REMARK  status: ('A' for Active; 'I' for Inactive)
REMARK    1  A    between atoms: C_2  and  C_3 
REMARK    2  A    between atoms: C_8  and  N_9 
REMARK    3  A    between atoms: N_9  and  C_10 
REMARK    4  A    between atoms: C_10  and  C_11 
REMARK       I    between atoms: C_11  and  N_12 
REMARK    5  A    between atoms: N_12  and  C_13 
REMARK    6  A    between atoms: C_24  and  N_25 
REMARK    7  A    between atoms: N_25  and  C_26 
ROOT
HETATM    1  N   UNL     1      43.040 -16.944   0.635  1.00  0.00    -0.282 NA
HETATM    2  H   UNL     1      43.524 -17.263  -0.207  1.00  0.00     0.128 HD
ENDROOT
BRANCH   1   3
HETATM    3  C   UNL     1      43.383 -17.866   1.663  1.00  0.00     0.036 A 
HETATM    4  C   UNL     1      43.510 -19.246   1.453  1.00  0.00     0.042 A 
HETATM    5  C   UNL     1      43.876 -20.110   2.497  1.00  0.00     0.049 A 
HETATM    6  C   UNL     1      44.123 -19.571   3.763  1.00  0.00     0.018 A 
HETATM    7  C   UNL     1      44.003 -18.197   3.987  1.00  0.00     0.032 A 
HETATM    8  C   UNL     1      43.648 -17.324   2.956  1.00  0.00     0.049 A 
BRANCH   5   9
HETATM    9  C   UNL     1      44.002 -21.590   2.237  1.00  0.00     0.417 C 
HETATM   10  F   UNL     1      42.924 -22.126   1.601  1.00  0.00    -0.166 F 
HETATM   11  F   UNL     1      45.082 -21.896   1.467  1.00  0.00    -0.166 F 
HETATM   12  F   UNL     1      44.150 -22.304   3.387  1.00  0.00    -0.166 F 
ENDBRANCH   5   9
BRANCH   8  13
HETATM   13  N   UNL     1      43.438 -15.954   3.146  1.00  0.00    -0.384 N 
HETATM   14  H   UNL     1      44.268 -15.438   2.858  1.00  0.00     0.160 HD
BRANCH  13  15
HETATM   15  C   UNL     1      42.733 -15.332   4.269  1.00  0.00     0.081 C 
HETATM   16  C   UNL     1      41.244 -15.690   4.342  1.00  0.00     0.025 C 
HETATM   17  C   UNL     1      40.582 -15.054   5.564  1.00  0.00     0.002 C 
HETATM   18  C   UNL     1      40.818 -13.546   5.610  1.00  0.00     0.000 C 
HETATM   19  C   UNL     1      42.306 -13.207   5.566  1.00  0.00     0.002 C 
HETATM   20  C   UNL     1      42.993 -13.824   4.349  1.00  0.00     0.025 C 
ENDBRANCH  13  15
ENDBRANCH   8  13
ENDBRANCH   1   3
BRANCH   1  21
HETATM   21  C   UNL     1      41.615 -16.694   0.318  1.00  0.00     0.195 C 
BRANCH  21  22
HETATM   22  C   UNL     1      41.156 -15.266   0.660  1.00  0.00     0.235 C 
HETATM   23  N   UNL     1      39.803 -15.189   0.934  1.00  0.00    -0.326 N 
HETATM   24  H   UNL     1      39.314 -16.077   0.825  1.00  0.00     0.169 HD
HETATM   25  O   UNL     1      41.966 -14.345   0.706  1.00  0.00    -0.272 OA
BRANCH  23  26
HETATM   26  C   UNL     1      39.028 -14.049   1.203  1.00  0.00     0.037 A 
HETATM   27  C   UNL     1      39.297 -13.165   2.255  1.00  0.00     0.061 A 
HETATM   28  C   UNL     1      38.471 -12.071   2.379  1.00  0.00     0.065 A 
HETATM   29  C   UNL     1      37.403 -11.838   1.517  1.00  0.00     0.063 A 
HETATM   30  N   UNL     1      38.510 -11.030   3.301  1.00  0.00    -0.306 N 
HETATM   31  N   UNL     1      36.783 -10.658   1.909  1.00  0.00    -0.307 N 
HETATM   32  C   UNL     1      37.104 -12.687   0.481  1.00  0.00     0.034 A 
HETATM   33  C   UNL     1      37.466 -10.139   3.019  1.00  0.00     0.325 A 
HETATM   34  H   UNL     1      35.986 -10.214   1.485  1.00  0.00     0.170 HD
HETATM   35  O   UNL     1      37.201  -9.112   3.617  1.00  0.00    -0.247 OA
HETATM   36  C   UNL     1      37.937 -13.804   0.328  1.00  0.00     0.032 A 
HETATM   37  H   UNL     1      39.173 -10.905   4.048  1.00  0.00     0.170 HD
ENDBRANCH  23  26
ENDBRANCH  21  22
ENDBRANCH   1  21
TORSDOF 7
ENDMDL
MODEL 3
REMARK VINA RESULT:      -8.7      4.292      6.138
REMARK  7 active torsions:
REMARK  status: ('A' for Active; 'I' for Inactive)
REMARK    1  A    between atoms: C_2  and  C_3 
REMARK    2  A    between atoms: C_8  and  N_9 
REMARK    3  A    between atoms: N_9  and  C_10 
REMARK    4  A    between atoms: C_10  and  C_11 
REMARK       I    between atoms: C_11  and  N_12 
REMARK    5  A    between atoms: N_12  and  C_13 
REMARK    6  A    between atoms: C_24  and  N_25 
REMARK    7  A    between atoms: N_25  and  C_26 
ROOT
HETATM    1  N   UNL     1      43.390 -14.851   2.820  1.00  0.00    -0.282 NA
HETATM    2  H   UNL     1      43.398 -15.762   2.355  1.00  0.00     0.128 HD
ENDROOT
BRANCH   1   3
HETATM    3  C   UNL     1      43.430 -15.120   4.217  1.00  0.00     0.036 A 
HETATM    4  C   UNL     1      43.927 -14.215   5.165  1.00  0.00     0.042 A 
HETATM    5  C   UNL     1      43.919 -14.518   6.536  1.00  0.00     0.049 A 
HETATM    6  C   UNL     1      43.396 -15.746   6.951  1.00  0.00     0.018 A 
HETATM    7  C   UNL     1      42.893 -16.657   6.018  1.00  0.00     0.032 A 
HETATM    8  C   UNL     1      42.887 -16.366   4.652  1.00  0.00     0.049 A 
BRANCH   5   9
HETATM    9  C   UNL     1      44.464 -13.522   7.528  1.00  0.00     0.417 C 
HETATM   10  F   UNL     1      44.453 -13.970   8.814  1.00  0.00    -0.166 F 
HETATM   11  F   UNL     1      45.752 -13.171   7.265  1.00  0.00    -0.166 F 
HETATM   12  F   UNL     1      43.754 -12.360   7.533  1.00  0.00    -0.166 F 
ENDBRANCH   5   9
BRANCH   8  13
HETATM   13  N   UNL     1      42.469 -17.273   3.674  1.00  0.00    -0.384 N 
HETATM   14  H   UNL     1      41.466 -17.176   3.523  1.00  0.00     0.160 HD
BRANCH  13  15
HETATM   15  C   UNL     1      42.947 -18.648   3.505  1.00  0.00     0.081 C 
HETATM   16  C   UNL     1      44.281 -18.931   4.204  1.00  0.00     0.025 C 
HETATM   17  C   UNL     1      44.694 -20.393   4.035  1.00  0.00     0.002 C 
HETATM   18  C   UNL     1      44.711 -20.806   2.564  1.00  0.00     0.000 C 
HETATM   19  C   UNL     1      43.366 -20.544   1.890  1.00  0.00     0.002 C 
HETATM   20  C   UNL     1      42.931 -19.087   2.037  1.00  0.00     0.025 C 
ENDBRANCH  13  15
ENDBRANCH   8  13
ENDBRANCH   1   3
BRANCH   1  21
HETATM   21  C   UNL     1      42.296 -14.024   2.262  1.00  0.00     0.195 C 
BRANCH  21  22
HETATM   22  C   UNL     1      41.411 -14.782   1.258  1.00  0.00     0.235 C 
HETATM   23  N   UNL     1      41.319 -14.142   0.036  1.00  0.00    -0.326 N 
HETATM   24  H   UNL     1      41.814 -13.252   0.003  1.00  0.00     0.169 HD
HETATM   25  O   UNL     1      40.902 -15.857   1.562  1.00  0.00    -0.272 OA
BRANCH  23  26
HETATM   26  C   UNL     1      40.543 -14.496  -1.081  1.00  0.00     0.037 A 
HETATM   27  C   UNL     1      39.277 -13.958  -1.341  1.00  0.00     0.061 A 
HETATM   28  C   UNL     1      38.646 -14.374  -2.491  1.00  0.00     0.065 A 
HETATM   29  C   UNL     1      39.215 -15.295  -3.367  1.00  0.00     0.063 A 
HETATM   30  N   UNL     1      37.411 -14.000  -3.011  1.00  0.00    -0.306 N 
HETATM   31  N   UNL     1      38.332 -15.491  -4.420  1.00  0.00    -0.307 N 
HETATM   32  C   UNL     1      40.450 -15.849  -3.139  1.00  0.00     0.034 A 
HETATM   33  C   UNL     1      37.201 -14.686  -4.215  1.00  0.00     0.325 A 
HETATM   34  H   UNL     1      38.452 -16.091  -5.219  1.00  0.00     0.170 HD
HETATM   35  O   UNL     1      36.230 -14.599  -4.945  1.00  0.00    -0.247 OA
HETATM   36  C   UNL     1      41.118 -15.435  -1.979  1.00  0.00     0.032 A 
HETATM   37  H   UNL     1      36.761 -13.340  -2.616  1.00  0.00     0.170 HD
ENDBRANCH  23  26
ENDBRANCH  21  22
ENDBRANCH   1  21
TORSDOF 7
ENDMDL
MODEL 4
REMARK VINA RESULT:      -8.7      3.107      3.899
REMARK  7 active torsions:
REMARK  status: ('A' for Active; 'I' for Inactive)
REMARK    1  A    between atoms: C_2  and  C_3 
REMARK    2  A    between atoms: C_8  and  N_9 
REMARK    3  A    between atoms: N_9  and  C_10 
REMARK    4  A    between atoms: C_10  and  C_11 
REMARK       I    between atoms: C_11  and  N_12 
REMARK    5  A    between atoms: N_12  and  C_13 
REMARK    6  A    between atoms: C_24  and  N_25 
REMARK    7  A    between atoms: N_25  and  C_26 
ROOT
HETATM    1  N   UNL     1      43.202 -17.046   1.019  1.00  0.00    -0.282 NA
HETATM    2  H   UNL     1      43.728 -17.269   0.171  1.00  0.00     0.128 HD
ENDROOT
BRANCH   1   3
HETATM    3  C   UNL     1      43.534 -18.052   1.968  1.00  0.00     0.036 A 
HETATM    4  C   UNL     1      43.626 -19.414   1.652  1.00  0.00     0.042 A 
HETATM    5  C   UNL     1      43.984 -20.365   2.622  1.00  0.00     0.049 A 
HETATM    6  C   UNL     1      44.258 -19.931   3.922  1.00  0.00     0.018 A 
HETATM    7  C   UNL     1      44.174 -18.576   4.251  1.00  0.00     0.032 A 
HETATM    8  C   UNL     1      43.827 -17.618   3.296  1.00  0.00     0.049 A 
BRANCH   5   9
HETATM    9  C   UNL     1      44.072 -21.823   2.247  1.00  0.00     0.417 C 
HETATM   10  F   UNL     1      44.159 -22.658   3.319  1.00  0.00    -0.166 F 
HETATM   11  F   UNL     1      42.996 -22.245   1.529  1.00  0.00    -0.166 F 
HETATM   12  F   UNL     1      45.163 -22.091   1.476  1.00  0.00    -0.166 F 
ENDBRANCH   5   9
BRANCH   8  13
HETATM   13  N   UNL     1      43.652 -16.263   3.593  1.00  0.00    -0.384 N 
HETATM   14  H   UNL     1      44.550 -15.784   3.550  1.00  0.00     0.160 HD
BRANCH  13  15
HETATM   15  C   UNL     1      42.750 -15.706   4.604  1.00  0.00     0.081 C 
HETATM   16  C   UNL     1      41.500 -16.556   4.857  1.00  0.00     0.025 C 
HETATM   17  C   UNL     1      40.631 -15.949   5.958  1.00  0.00     0.002 C 
HETATM   18  C   UNL     1      40.290 -14.490   5.664  1.00  0.00     0.000 C 
HETATM   19  C   UNL     1      41.546 -13.650   5.444  1.00  0.00     0.002 C 
HETATM   20  C   UNL     1      42.431 -14.230   4.341  1.00  0.00     0.025 C 
ENDBRANCH  13  15
ENDBRANCH   8  13
ENDBRANCH   1   3
BRANCH   1  21
HETATM   21  C   UNL     1      41.783 -16.808   0.668  1.00  0.00     0.195 C 
BRANCH  21  22
HETATM   22  C   UNL     1      41.525 -15.407   0.089  1.00  0.00     0.235 C 
HETATM   23  N   UNL     1      41.217 -15.432  -1.258  1.00  0.00    -0.326 N 
HETATM   24  H   UNL     1      41.249 -16.365  -1.666  1.00  0.00     0.169 HD
HETATM   25  O   UNL     1      41.567 -14.415   0.813  1.00  0.00    -0.272 OA
BRANCH  23  26
HETATM   26  C   UNL     1      41.003 -14.349  -2.128  1.00  0.00     0.037 A 
HETATM   27  C   UNL     1      42.042 -13.619  -2.719  1.00  0.00     0.061 A 
HETATM   28  C   UNL     1      41.682 -12.603  -3.575  1.00  0.00     0.065 A 
HETATM   29  C   UNL     1      40.353 -12.289  -3.849  1.00  0.00     0.063 A 
HETATM   30  N   UNL     1      42.485 -11.737  -4.311  1.00  0.00    -0.306 N 
HETATM   31  N   UNL     1      40.338 -11.231  -4.748  1.00  0.00    -0.307 N 
HETATM   32  C   UNL     1      39.311 -12.977  -3.281  1.00  0.00     0.034 A 
HETATM   33  C   UNL     1      41.662 -10.877  -5.050  1.00  0.00     0.325 A 
HETATM   34  H   UNL     1      39.534 -10.777  -5.147  1.00  0.00     0.170 HD
HETATM   35  O   UNL     1      42.022  -9.996  -5.810  1.00  0.00    -0.247 OA
HETATM   36  C   UNL     1      39.650 -14.023  -2.412  1.00  0.00     0.032 A 
HETATM   37  H   UNL     1      43.491 -11.718  -4.338  1.00  0.00     0.170 HD
ENDBRANCH  23  26
ENDBRANCH  21  22
ENDBRANCH   1  21
TORSDOF 7
ENDMDL
MODEL 5
REMARK VINA RESULT:      -8.7      2.706      3.400
REMARK  7 active torsions:
REMARK  status: ('A' for Active; 'I' for Inactive)
REMARK    1  A    between atoms: C_2  and  C_3 
REMARK    2  A    between atoms: C_8  and  N_9 
REMARK    3  A    between atoms: N_9  and  C_10 
REMARK    4  A    between atoms: C_10  and  C_11 
REMARK       I    between atoms: C_11  and  N_12 
REMARK    5  A    between atoms: N_12  and  C_13 
REMARK    6  A    between atoms: C_24  and  N_25 
REMARK    7  A    between atoms: N_25  and  C_26 
ROOT
HETATM    1  N   UNL     1      43.639 -16.997   2.591  1.00  0.00    -0.282 NA
HETATM    2  H   UNL     1      44.360 -16.345   2.909  1.00  0.00     0.128 HD
ENDROOT
BRANCH   1   3
HETATM    3  C   UNL     1      43.932 -18.245   3.210  1.00  0.00     0.036 A 
HETATM    4  C   UNL     1      43.952 -19.464   2.520  1.00  0.00     0.042 A 
HETATM    5  C   UNL     1      44.274 -20.665   3.173  1.00  0.00     0.049 A 
HETATM    6  C   UNL     1      44.585 -20.629   4.535  1.00  0.00     0.018 A 
HETATM    7  C   UNL     1      44.572 -19.420   5.236  1.00  0.00     0.032 A 
HETATM    8  C   UNL     1      44.262 -18.217   4.598  1.00  0.00     0.049 A 
BRANCH   5   9
HETATM    9  C   UNL     1      44.285 -21.960   2.400  1.00  0.00     0.417 C 
HETATM   10  F   UNL     1      45.233 -22.005   1.424  1.00  0.00    -0.166 F 
HETATM   11  F   UNL     1      44.513 -23.042   3.193  1.00  0.00    -0.166 F 
HETATM   12  F   UNL     1      43.097 -22.197   1.777  1.00  0.00    -0.166 F 
ENDBRANCH   5   9
BRANCH   8  13
HETATM   13  N   UNL     1      44.158 -16.995   5.270  1.00  0.00    -0.384 N 
HETATM   14  H   UNL     1      44.964 -16.871   5.882  1.00  0.00     0.160 HD
BRANCH  13  15
HETATM   15  C   UNL     1      42.931 -16.401   5.805  1.00  0.00     0.081 C 
HETATM   16  C   UNL     1      41.699 -17.304   5.682  1.00  0.00     0.025 C 
HETATM   17  C   UNL     1      40.468 -16.648   6.307  1.00  0.00     0.002 C 
HETATM   18  C   UNL     1      40.223 -15.254   5.735  1.00  0.00     0.000 C 
HETATM   19  C   UNL     1      41.449 -14.357   5.891  1.00  0.00     0.002 C 
HETATM   20  C   UNL     1      42.695 -14.985   5.268  1.00  0.00     0.025 C 
ENDBRANCH  13  15
ENDBRANCH   8  13
ENDBRANCH   1   3
BRANCH   1  21
HETATM   21  C   UNL     1      43.521 -16.919   1.117  1.00  0.00     0.195 C 
BRANCH  21  22
HETATM   22  C   UNL     1      42.081 -16.677   0.634  1.00  0.00     0.235 C 
HETATM   23  N   UNL     1      42.019 -15.857  -0.477  1.00  0.00    -0.326 N 
HETATM   24  H   UNL     1      42.928 -15.507  -0.776  1.00  0.00     0.169 HD
HETATM   25  O   UNL     1      41.134 -17.219   1.198  1.00  0.00    -0.272 OA
BRANCH  23  26
HETATM   26  C   UNL     1      40.882 -15.360  -1.136  1.00  0.00     0.037 A 
HETATM   27  C   UNL     1      40.440 -15.837  -2.376  1.00  0.00     0.061 A 
HETATM   28  C   UNL     1      39.291 -15.278  -2.887  1.00  0.00     0.065 A 
HETATM   29  C   UNL     1      38.588 -14.275  -2.225  1.00  0.00     0.063 A 
HETATM   30  N   UNL     1      38.615 -15.562  -4.070  1.00  0.00    -0.306 N 
HETATM   31  N   UNL     1      37.484 -13.940  -2.999  1.00  0.00    -0.307 N 
HETATM   32  C   UNL     1      38.996 -13.777  -1.013  1.00  0.00     0.034 A 
HETATM   33  C   UNL     1      37.485 -14.739  -4.153  1.00  0.00     0.325 A 
HETATM   34  H   UNL     1      36.776 -13.255  -2.795  1.00  0.00     0.170 HD
HETATM   35  O   UNL     1      36.660 -14.719  -5.049  1.00  0.00    -0.247 OA
HETATM   36  C   UNL     1      40.158 -14.337  -0.467  1.00  0.00     0.032 A 
HETATM   37  H   UNL     1      38.866 -16.249  -4.762  1.00  0.00     0.170 HD
ENDBRANCH  23  26
ENDBRANCH  21  22
ENDBRANCH   1  21
TORSDOF 7
ENDMDL
MODEL 6
REMARK VINA RESULT:      -8.5      3.461      4.149
REMARK  7 active torsions:
REMARK  status: ('A' for Active; 'I' for Inactive)
REMARK    1  A    between atoms: C_2  and  C_3 
REMARK    2  A    between atoms: C_8  and  N_9 
REMARK    3  A    between atoms: N_9  and  C_10 
REMARK    4  A    between atoms: C_10  and  C_11 
REMARK       I    between atoms: C_11  and  N_12 
REMARK    5  A    between atoms: N_12  and  C_13 
REMARK    6  A    between atoms: C_24  and  N_25 
REMARK    7  A    between atoms: N_25  and  C_26 
ROOT
HETATM    1  N   UNL     1      41.801 -17.721   3.089  1.00  0.00    -0.282 NA
HETATM    2  H   UNL     1      42.213 -16.809   3.296  1.00  0.00     0.128 HD
ENDROOT
BRANCH   1   3
HETATM    3  C   UNL     1      42.774 -18.690   3.461  1.00  0.00     0.036 A 
HETATM    4  C   UNL     1      43.148 -19.765   2.643  1.00  0.00     0.042 A 
HETATM    5  C   UNL     1      44.134 -20.679   3.047  1.00  0.00     0.049 A 
HETATM    6  C   UNL     1      44.752 -20.500   4.288  1.00  0.00     0.018 A 
HETATM    7  C   UNL     1      44.391 -19.432   5.113  1.00  0.00     0.032 A 
HETATM    8  C   UNL     1      43.418 -18.509   4.722  1.00  0.00     0.049 A 
BRANCH   5   9
HETATM    9  C   UNL     1      44.511 -21.825   2.142  1.00  0.00     0.417 C 
HETATM   10  F   UNL     1      43.518 -22.195   1.287  1.00  0.00    -0.166 F 
HETATM   11  F   UNL     1      45.590 -21.543   1.361  1.00  0.00    -0.166 F 
HETATM   12  F   UNL     1      44.839 -22.947   2.841  1.00  0.00    -0.166 F 
ENDBRANCH   5   9
BRANCH   8  13
HETATM   13  N   UNL     1      42.967 -17.472   5.543  1.00  0.00    -0.384 N 
HETATM   14  H   UNL     1      41.948 -17.455   5.545  1.00  0.00     0.160 HD
BRANCH  13  15
HETATM   15  C   UNL     1      43.565 -16.141   5.666  1.00  0.00     0.081 C 
HETATM   16  C   UNL     1      44.139 -15.844   7.056  1.00  0.00     0.025 C 
HETATM   17  C   UNL     1      44.795 -14.464   7.101  1.00  0.00     0.002 C 
HETATM   18  C   UNL     1      43.839 -13.372   6.623  1.00  0.00     0.000 C 
HETATM   19  C   UNL     1      43.299 -13.667   5.226  1.00  0.00     0.002 C 
HETATM   20  C   UNL     1      42.631 -15.039   5.154  1.00  0.00     0.025 C 
ENDBRANCH  13  15
ENDBRANCH   8  13
ENDBRANCH   1   3
BRANCH   1  21
HETATM   21  C   UNL     1      41.261 -17.715   1.710  1.00  0.00     0.195 C 
BRANCH  21  22
HETATM   22  C   UNL     1      41.891 -16.634   0.815  1.00  0.00     0.235 C 
HETATM   23  N   UNL     1      40.983 -16.064  -0.057  1.00  0.00    -0.326 N 
HETATM   24  H   UNL     1      40.052 -16.476  -0.002  1.00  0.00     0.169 HD
HETATM   25  O   UNL     1      43.075 -16.332   0.941  1.00  0.00    -0.272 OA
BRANCH  23  26
HETATM   26  C   UNL     1      41.215 -15.114  -1.066  1.00  0.00     0.037 A 
HETATM   27  C   UNL     1      41.655 -13.809  -0.808  1.00  0.00     0.061 A 
HETATM   28  C   UNL     1      41.871 -12.998  -1.898  1.00  0.00     0.065 A 
HETATM   29  C   UNL     1      41.659 -13.426  -3.206  1.00  0.00     0.063 A 
HETATM   30  N   UNL     1      42.322 -11.682  -1.949  1.00  0.00    -0.306 N 
HETATM   31  N   UNL     1      41.975 -12.376  -4.060  1.00  0.00    -0.307 N 
HETATM   32  C   UNL     1      41.221 -14.693  -3.495  1.00  0.00     0.034 A 
HETATM   33  C   UNL     1      42.395 -11.281  -3.289  1.00  0.00     0.325 A 
HETATM   34  H   UNL     1      41.934 -12.370  -5.064  1.00  0.00     0.170 HD
HETATM   35  O   UNL     1      42.755 -10.196  -3.709  1.00  0.00    -0.247 OA
HETATM   36  C   UNL     1      41.002 -15.544  -2.403  1.00  0.00     0.032 A 
HETATM   37  H   UNL     1      42.573 -11.096  -1.169  1.00  0.00     0.170 HD
ENDBRANCH  23  26
ENDBRANCH  21  22
ENDBRANCH   1  21
TORSDOF 7
ENDMDL
MODEL 7
REMARK VINA RESULT:      -8.4      3.645      6.669
REMARK  7 active torsions:
REMARK  status: ('A' for Active; 'I' for Inactive)
REMARK    1  A    between atoms: C_2  and  C_3 
REMARK    2  A    between atoms: C_8  and  N_9 
REMARK    3  A    between atoms: N_9  and  C_10 
REMARK    4  A    between atoms: C_10  and  C_11 
REMARK       I    between atoms: C_11  and  N_12 
REMARK    5  A    between atoms: N_12  and  C_13 
REMARK    6  A    between atoms: C_24  and  N_25 
REMARK    7  A    between atoms: N_25  and  C_26 
ROOT
HETATM    1  N   UNL     1      39.949 -16.244   2.610  1.00  0.00    -0.282 NA
HETATM    2  H   UNL     1      39.410 -16.785   3.290  1.00  0.00     0.128 HD
ENDROOT
BRANCH   1   3
HETATM    3  C   UNL     1      41.198 -16.912   2.473  1.00  0.00     0.036 A 
HETATM    4  C   UNL     1      41.926 -17.421   3.557  1.00  0.00     0.042 A 
HETATM    5  C   UNL     1      43.142 -18.096   3.364  1.00  0.00     0.049 A 
HETATM    6  C   UNL     1      43.621 -18.263   2.062  1.00  0.00     0.018 A 
HETATM    7  C   UNL     1      42.905 -17.764   0.971  1.00  0.00     0.032 A 
HETATM    8  C   UNL     1      41.690 -17.098   1.146  1.00  0.00     0.049 A 
BRANCH   5   9
HETATM    9  C   UNL     1      43.900 -18.629   4.554  1.00  0.00     0.417 C 
HETATM   10  F   UNL     1      44.881 -19.514   4.223  1.00  0.00    -0.166 F 
HETATM   11  F   UNL     1      44.509 -17.646   5.272  1.00  0.00    -0.166 F 
HETATM   12  F   UNL     1      43.089 -19.284   5.430  1.00  0.00    -0.166 F 
ENDBRANCH   5   9
BRANCH   8  13
HETATM   13  N   UNL     1      40.976 -16.512   0.097  1.00  0.00    -0.384 N 
HETATM   14  H   UNL     1      40.367 -17.207  -0.334  1.00  0.00     0.160 HD
BRANCH  13  15
HETATM   15  C   UNL     1      41.488 -15.525  -0.857  1.00  0.00     0.081 C 
HETATM   16  C   UNL     1      41.473 -14.086  -0.329  1.00  0.00     0.025 C 
HETATM   17  C   UNL     1      42.070 -13.117  -1.350  1.00  0.00     0.002 C 
HETATM   18  C   UNL     1      41.387 -13.242  -2.710  1.00  0.00     0.000 C 
HETATM   19  C   UNL     1      41.436 -14.676  -3.235  1.00  0.00     0.002 C 
HETATM   20  C   UNL     1      40.838 -15.666  -2.237  1.00  0.00     0.025 C 
ENDBRANCH  13  15
ENDBRANCH   8  13
ENDBRANCH   1   3
BRANCH   1  21
HETATM   21  C   UNL     1      39.920 -14.812   2.987  1.00  0.00     0.195 C 
BRANCH  21  22
HETATM   22  C   UNL     1      40.479 -14.541   4.395  1.00  0.00     0.235 C 
HETATM   23  N   UNL     1      41.726 -13.945   4.371  1.00  0.00    -0.326 N 
HETATM   24  H   UNL     1      42.098 -13.817   3.431  1.00  0.00     0.169 HD
HETATM   25  O   UNL     1      39.817 -14.816   5.392  1.00  0.00    -0.272 OA
BRANCH  23  26
HETATM   26  C   UNL     1      42.566 -13.630   5.452  1.00  0.00     0.037 A 
HETATM   27  C   UNL     1      42.295 -12.603   6.365  1.00  0.00     0.061 A 
HETATM   28  C   UNL     1      43.192 -12.429   7.393  1.00  0.00     0.065 A 
HETATM   29  C   UNL     1      44.330 -13.218   7.536  1.00  0.00     0.063 A 
HETATM   30  N   UNL     1      43.171 -11.517   8.445  1.00  0.00    -0.306 N 
HETATM   31  N   UNL     1      45.011 -12.791   8.670  1.00  0.00    -0.307 N 
HETATM   32  C   UNL     1      44.632 -14.227   6.656  1.00  0.00     0.034 A 
HETATM   33  C   UNL     1      44.297 -11.732   9.250  1.00  0.00     0.325 A 
HETATM   34  H   UNL     1      45.866 -13.162   9.047  1.00  0.00     0.170 HD
HETATM   35  O   UNL     1      44.599 -11.122  10.261  1.00  0.00    -0.247 OA
HETATM   36  C   UNL     1      43.729 -14.431   5.605  1.00  0.00     0.032 A 
HETATM   37  H   UNL     1      42.470 -10.818   8.627  1.00  0.00     0.170 HD
ENDBRANCH  23  26
ENDBRANCH  21  22
ENDBRANCH   1  21
TORSDOF 7
ENDMDL
MODEL 8
REMARK VINA RESULT:      -8.2      3.972      4.697
REMARK  7 active torsions:
REMARK  status: ('A' for Active; 'I' for Inactive)
REMARK    1  A    between atoms: C_2  and  C_3 
REMARK    2  A    between atoms: C_8  and  N_9 
REMARK    3  A    between atoms: N_9  and  C_10 
REMARK    4  A    between atoms: C_10  and  C_11 
REMARK       I    between atoms: C_11  and  N_12 
REMARK    5  A    between atoms: N_12  and  C_13 
REMARK    6  A    between atoms: C_24  and  N_25 
REMARK    7  A    between atoms: N_25  and  C_26 
ROOT
HETATM    1  N   UNL     1      40.610 -16.236   0.898  1.00  0.00    -0.282 NA
HETATM    2  H   UNL     1      40.367 -15.320   1.282  1.00  0.00     0.128 HD
ENDROOT
BRANCH   1   3
HETATM    3  C   UNL     1      41.237 -16.955   1.954  1.00  0.00     0.036 A 
HETATM    4  C   UNL     1      42.143 -18.003   1.745  1.00  0.00     0.042 A 
HETATM    5  C   UNL     1      42.755 -18.663   2.823  1.00  0.00     0.049 A 
HETATM    6  C   UNL     1      42.452 -18.253   4.124  1.00  0.00     0.018 A 
HETATM    7  C   UNL     1      41.553 -17.207   4.348  1.00  0.00     0.032 A 
HETATM    8  C   UNL     1      40.942 -16.536   3.286  1.00  0.00     0.049 A 
BRANCH   5   9
HETATM    9  C   UNL     1      43.724 -19.788   2.561  1.00  0.00     0.417 C 
HETATM   10  F   UNL     1      43.242 -20.739   1.714  1.00  0.00    -0.166 F 
HETATM   11  F   UNL     1      44.893 -19.357   2.013  1.00  0.00    -0.166 F 
HETATM   12  F   UNL     1      44.069 -20.446   3.703  1.00  0.00    -0.166 F 
ENDBRANCH   5   9
BRANCH   8  13
HETATM   13  N   UNL     1      39.978 -15.538   3.459  1.00  0.00    -0.384 N 
HETATM   14  H   UNL     1      39.351 -15.526   2.656  1.00  0.00     0.160 HD
BRANCH  13  15
HETATM   15  C   UNL     1      40.197 -14.212   4.040  1.00  0.00     0.081 C 
HETATM   16  C   UNL     1      41.567 -13.608   3.712  1.00  0.00     0.025 C 
HETATM   17  C   UNL     1      41.708 -12.205   4.301  1.00  0.00     0.002 C 
HETATM   18  C   UNL     1      41.414 -12.192   5.799  1.00  0.00     0.000 C 
HETATM   19  C   UNL     1      40.034 -12.769   6.108  1.00  0.00     0.002 C 
HETATM   20  C   UNL     1      39.867 -14.176   5.536  1.00  0.00     0.025 C 
ENDBRANCH  13  15
ENDBRANCH   8  13
ENDBRANCH   1   3
BRANCH   1  21
HETATM   21  C   UNL     1      41.319 -16.058  -0.390  1.00  0.00     0.195 C 
BRANCH  21  22
HETATM   22  C   UNL     1      41.042 -14.697  -1.053  1.00  0.00     0.235 C 
HETATM   23  N   UNL     1      42.183 -14.111  -1.568  1.00  0.00    -0.326 N 
HETATM   24  H   UNL     1      43.032 -14.646  -1.392  1.00  0.00     0.169 HD
HETATM   25  O   UNL     1      39.898 -14.256  -1.118  1.00  0.00    -0.272 OA
BRANCH  23  26
HETATM   26  C   UNL     1      42.324 -12.846  -2.165  1.00  0.00     0.037 A 
HETATM   27  C   UNL     1      42.269 -12.637  -3.548  1.00  0.00     0.061 A 
HETATM   28  C   UNL     1      42.391 -11.339  -3.988  1.00  0.00     0.065 A 
HETATM   29  C   UNL     1      42.574 -10.267  -3.119  1.00  0.00     0.063 A 
HETATM   30  N   UNL     1      42.353 -10.834  -5.285  1.00  0.00    -0.306 N 
HETATM   31  N   UNL     1      42.652  -9.106  -3.877  1.00  0.00    -0.307 N 
HETATM   32  C   UNL     1      42.642 -10.436  -1.759  1.00  0.00     0.034 A 
HETATM   33  C   UNL     1      42.512  -9.443  -5.232  1.00  0.00     0.325 A 
HETATM   34  H   UNL     1      42.775  -8.164  -3.546  1.00  0.00     0.170 HD
HETATM   35  O   UNL     1      42.523  -8.673  -6.176  1.00  0.00    -0.247 OA
HETATM   36  C   UNL     1      42.510 -11.748  -1.284  1.00  0.00     0.032 A 
HETATM   37  H   UNL     1      42.223 -11.356  -6.136  1.00  0.00     0.170 HD
ENDBRANCH  23  26
ENDBRANCH  21  22
ENDBRANCH   1  21
TORSDOF 7
ENDMDL
MODEL 9
REMARK VINA RESULT:      -8.2      3.542      4.622
REMARK  7 active torsions:
REMARK  status: ('A' for Active; 'I' for Inactive)
REMARK    1  A    between atoms: C_2  and  C_3 
REMARK    2  A    between atoms: C_8  and  N_9 
REMARK    3  A    between atoms: N_9  and  C_10 
REMARK    4  A    between atoms: C_10  and  C_11 
REMARK       I    between atoms: C_11  and  N_12 
REMARK    5  A    between atoms: N_12  and  C_13 
REMARK    6  A    between atoms: C_24  and  N_25 
REMARK    7  A    between atoms: N_25  and  C_26 
ROOT
HETATM    1  N   UNL     1      40.514 -16.990   3.080  1.00  0.00    -0.282 NA
HETATM    2  H   UNL     1      40.414 -15.992   2.883  1.00  0.00     0.128 HD
ENDROOT
BRANCH   1   3
HETATM    3  C   UNL     1      41.380 -17.088   4.204  1.00  0.00     0.036 A 
HETATM    4  C   UNL     1      42.464 -17.975   4.272  1.00  0.00     0.042 A 
HETATM    5  C   UNL     1      43.304 -18.013   5.396  1.00  0.00     0.049 A 
HETATM    6  C   UNL     1      43.049 -17.142   6.458  1.00  0.00     0.018 A 
HETATM    7  C   UNL     1      41.974 -16.251   6.404  1.00  0.00     0.032 A 
HETATM    8  C   UNL     1      41.134 -16.195   5.290  1.00  0.00     0.049 A 
BRANCH   5   9
HETATM    9  C   UNL     1      44.460 -18.980   5.435  1.00  0.00     0.417 C 
HETATM   10  F   UNL     1      44.221 -20.086   6.192  1.00  0.00    -0.166 F 
HETATM   11  F   UNL     1      44.803 -19.438   4.200  1.00  0.00    -0.166 F 
HETATM   12  F   UNL     1      45.587 -18.414   5.949  1.00  0.00    -0.166 F 
ENDBRANCH   5   9
BRANCH   8  13
HETATM   13  N   UNL     1      40.001 -15.379   5.220  1.00  0.00    -0.384 N 
HETATM   14  H   UNL     1      39.233 -15.895   4.794  1.00  0.00     0.160 HD
BRANCH  13  15
HETATM   15  C   UNL     1      39.980 -13.949   4.904  1.00  0.00     0.081 C 
HETATM   16  C   UNL     1      41.175 -13.481   4.066  1.00  0.00     0.025 C 
HETATM   17  C   UNL     1      41.064 -11.995   3.726  1.00  0.00     0.002 C 
HETATM   18  C   UNL     1      40.866 -11.145   4.979  1.00  0.00     0.000 C 
HETATM   19  C   UNL     1      39.655 -11.605   5.787  1.00  0.00     0.002 C 
HETATM   20  C   UNL     1      39.743 -13.087   6.148  1.00  0.00     0.025 C 
ENDBRANCH  13  15
ENDBRANCH   8  13
ENDBRANCH   1   3
BRANCH   1  21
HETATM   21  C   UNL     1      40.853 -17.706   1.828  1.00  0.00     0.195 C 
BRANCH  21  22
HETATM   22  C   UNL     1      41.601 -16.829   0.809  1.00  0.00     0.235 C 
HETATM   23  N   UNL     1      40.771 -15.932   0.163  1.00  0.00    -0.326 N 
HETATM   24  H   UNL     1      39.791 -16.018   0.430  1.00  0.00     0.169 HD
HETATM   25  O   UNL     1      42.815 -16.941   0.662  1.00  0.00    -0.272 OA
BRANCH  23  26
HETATM   26  C   UNL     1      41.086 -15.039  -0.875  1.00  0.00     0.037 A 
HETATM   27  C   UNL     1      41.476 -13.712  -0.658  1.00  0.00     0.061 A 
HETATM   28  C   UNL     1      41.785 -12.963  -1.771  1.00  0.00     0.065 A 
HETATM   29  C   UNL     1      41.711 -13.475  -3.063  1.00  0.00     0.063 A 
HETATM   30  N   UNL     1      42.216 -11.643  -1.859  1.00  0.00    -0.306 N 
HETATM   31  N   UNL     1      42.092 -12.472  -3.946  1.00  0.00    -0.307 N 
HETATM   32  C   UNL     1      41.325 -14.767  -3.313  1.00  0.00     0.034 A 
HETATM   33  C   UNL     1      42.415 -11.323  -3.209  1.00  0.00     0.325 A 
HETATM   34  H   UNL     1      42.151 -12.528  -4.949  1.00  0.00     0.170 HD
HETATM   35  O   UNL     1      42.796 -10.257  -3.659  1.00  0.00    -0.247 OA
HETATM   36  C   UNL     1      41.014 -15.555  -2.197  1.00  0.00     0.032 A 
HETATM   37  H   UNL     1      42.379 -11.005  -1.098  1.00  0.00     0.170 HD
ENDBRANCH  23  26
ENDBRANCH  21  22
ENDBRANCH   1  21
TORSDOF 7
ENDMDL
MODEL 10
REMARK VINA RESULT:      -8.1      5.474      9.346
REMARK  7 active torsions:
REMARK  status: ('A' for Active; 'I' for Inactive)
REMARK    1  A    between atoms: C_2  and  C_3 
REMARK    2  A    between atoms: C_8  and  N_9 
REMARK    3  A    between atoms: N_9  and  C_10 
REMARK    4  A    between atoms: C_10  and  C_11 
REMARK       I    between atoms: C_11  and  N_12 
REMARK    5  A    between atoms: N_12  and  C_13 
REMARK    6  A    between atoms: C_24  and  N_25 
REMARK    7  A    between atoms: N_25  and  C_26 
ROOT
HETATM    1  N   UNL     1      41.472 -13.092   1.141  1.00  0.00    -0.282 NA
HETATM    2  H   UNL     1      41.430 -14.090   0.922  1.00  0.00     0.128 HD
ENDROOT
BRANCH   1   3
HETATM    3  C   UNL     1      41.996 -12.454  -0.018  1.00  0.00     0.036 A 
HETATM    4  C   UNL     1      42.445 -11.127  -0.034  1.00  0.00     0.042 A 
HETATM    5  C   UNL     1      42.978 -10.552  -1.199  1.00  0.00     0.049 A 
HETATM    6  C   UNL     1      43.063 -11.331  -2.357  1.00  0.00     0.018 A 
HETATM    7  C   UNL     1      42.622 -12.657  -2.355  1.00  0.00     0.032 A 
HETATM    8  C   UNL     1      42.097 -13.245  -1.202  1.00  0.00     0.049 A 
BRANCH   5   9
HETATM    9  C   UNL     1      43.451  -9.121  -1.181  1.00  0.00     0.417 C 
HETATM   10  F   UNL     1      43.369  -8.534   0.045  1.00  0.00    -0.166 F 
HETATM   11  F   UNL     1      44.749  -8.993  -1.571  1.00  0.00    -0.166 F 
HETATM   12  F   UNL     1      42.730  -8.329  -2.022  1.00  0.00    -0.166 F 
ENDBRANCH   5   9
BRANCH   8  13
HETATM   13  N   UNL     1      41.570 -14.540  -1.170  1.00  0.00    -0.384 N 
HETATM   14  H   UNL     1      42.328 -15.219  -1.219  1.00  0.00     0.160 HD
BRANCH  13  15
HETATM   15  C   UNL     1      40.345 -14.994  -1.831  1.00  0.00     0.081 C 
HETATM   16  C   UNL     1      40.585 -15.682  -3.179  1.00  0.00     0.025 C 
HETATM   17  C   UNL     1      39.274 -16.179  -3.788  1.00  0.00     0.002 C 
HETATM   18  C   UNL     1      38.240 -15.060  -3.886  1.00  0.00     0.000 C 
HETATM   19  C   UNL     1      37.990 -14.404  -2.530  1.00  0.00     0.002 C 
HETATM   20  C   UNL     1      39.284 -13.890  -1.900  1.00  0.00     0.025 C 
ENDBRANCH  13  15
ENDBRANCH   8  13
ENDBRANCH   1   3
BRANCH   1  21
HETATM   21  C   UNL     1      42.142 -12.904   2.448  1.00  0.00     0.195 C 
BRANCH  21  22
HETATM   22  C   UNL     1      42.985 -14.116   2.881  1.00  0.00     0.235 C 
HETATM   23  N   UNL     1      42.618 -15.281   2.235  1.00  0.00    -0.326 N 
HETATM   24  H   UNL     1      41.823 -15.167   1.608  1.00  0.00     0.169 HD
HETATM   25  O   UNL     1      43.899 -13.983   3.691  1.00  0.00    -0.272 OA
BRANCH  23  26
HETATM   26  C   UNL     1      43.107 -16.583   2.434  1.00  0.00     0.037 A 
HETATM   27  C   UNL     1      43.519 -17.069   3.681  1.00  0.00     0.061 A 
HETATM   28  C   UNL     1      43.946 -18.377   3.732  1.00  0.00     0.065 A 
HETATM   29  C   UNL     1      43.986 -19.196   2.607  1.00  0.00     0.063 A 
HETATM   30  N   UNL     1      44.386 -19.125   4.819  1.00  0.00    -0.306 N 
HETATM   31  N   UNL     1      44.453 -20.444   2.999  1.00  0.00    -0.307 N 
HETATM   32  C   UNL     1      43.599 -18.751   1.368  1.00  0.00     0.034 A 
HETATM   33  C   UNL     1      44.704 -20.417   4.380  1.00  0.00     0.325 A 
HETATM   34  H   UNL     1      44.590 -21.256   2.422  1.00  0.00     0.170 HD
HETATM   35  O   UNL     1      45.114 -21.340   5.060  1.00  0.00    -0.247 OA
HETATM   36  C   UNL     1      43.150 -17.425   1.291  1.00  0.00     0.032 A 
HETATM   37  H   UNL     1      44.462 -18.819   5.776  1.00  0.00     0.170 HD
ENDBRANCH  23  26
ENDBRANCH  21  22
ENDBRANCH   1  21
TORSDOF 7
ENDMDL
