MODEL 1
REMARK VINA RESULT:      -9.5      0.000      0.000
REMARK  8 active torsions:
REMARK  status: ('A' for Active; 'I' for Inactive)
REMARK    1  A    between atoms: C_4  and  S_5 
REMARK    2  A    between atoms: S_5  and  C_6 
REMARK    3  A    between atoms: C_6  and  C_7 
REMARK       I    between atoms: C_7  and  N_8 
REMARK    4  A    between atoms: N_8  and  C_9 
REMARK    5  A    between atoms: C_20  and  C_21 
REMARK    6  A    between atoms: C_27  and  C_28 
REMARK       I    between atoms: C_28  and  N_29 
REMARK    7  A    between atoms: N_29  and  C_30 
REMARK    8  A    between atoms: C_31  and  O_32 
ROOT
HETATM    1  C   UNL     1      41.396 -16.789   1.031  1.00  0.00     0.069 C 
HETATM    2  C   UNL     1      41.242 -15.850   2.206  1.00  0.00     0.019 A 
HETATM    3  N   UNL     1      40.789 -14.584   1.886  1.00  0.00    -0.353 N 
HETATM    4  C   UNL     1      40.594 -13.546   2.771  1.00  0.00     0.087 A 
HETATM    5  C   UNL     1      40.801 -13.761   4.088  1.00  0.00     0.055 A 
HETATM    6  C   UNL     1      40.756 -12.648   5.122  1.00  0.00     0.019 C 
HETATM    7  N   UNL     1      40.720 -11.725   5.980  1.00  0.00    -0.096 N 
HETATM    8  C   UNL     1      41.322 -15.127   4.600  1.00  0.00     0.104 A 
HETATM    9  C   UNL     1      41.527 -16.171   3.495  1.00  0.00     0.046 A 
HETATM   10  H   UNL     1      40.470 -14.419   0.936  1.00  0.00     0.166 HD
ENDROOT
BRANCH   4  11
HETATM   11  S   UNL     1      40.070 -12.004   2.138  1.00  0.00    -0.102 SA
BRANCH  11  12
HETATM   12  C   UNL     1      38.387 -12.307   1.526  1.00  0.00     0.184 C 
BRANCH  12  13
HETATM   13  C   UNL     1      38.242 -13.444   0.532  1.00  0.00     0.231 C 
HETATM   14  N   UNL     1      38.773 -13.171  -0.716  1.00  0.00    -0.325 N 
HETATM   15  H   UNL     1      39.040 -12.212  -0.906  1.00  0.00     0.169 HD
HETATM   16  O   UNL     1      37.697 -14.494   0.862  1.00  0.00    -0.272 OA
BRANCH  14  17
HETATM   17  C   UNL     1      38.809 -14.036  -1.839  1.00  0.00     0.056 A 
HETATM   18  C   UNL     1      40.052 -14.546  -2.257  1.00  0.00     0.060 A 
HETATM   19 CL   UNL     1      41.505 -14.164  -1.396  1.00  0.00    -0.082 Cl
HETATM   20  C   UNL     1      40.152 -15.369  -3.384  1.00  0.00     0.026 A 
HETATM   21  C   UNL     1      39.004 -15.709  -4.099  1.00  0.00     0.002 A 
HETATM   22  C   UNL     1      37.764 -15.237  -3.679  1.00  0.00     0.002 A 
HETATM   23  C   UNL     1      37.667 -14.412  -2.553  1.00  0.00     0.031 A 
ENDBRANCH  14  17
ENDBRANCH  12  13
ENDBRANCH  11  12
ENDBRANCH   4  11
BRANCH   8  24
HETATM   24  C   UNL     1      42.559 -14.887   5.472  1.00  0.00    -0.044 A 
HETATM   25  C   UNL     1      43.547 -13.978   5.054  1.00  0.00     0.008 A 
HETATM   26  C   UNL     1      44.710 -13.799   5.804  1.00  0.00     0.001 A 
HETATM   27  C   UNL     1      44.897 -14.515   6.985  1.00  0.00     0.000 A 
HETATM   28  C   UNL     1      43.924 -15.414   7.412  1.00  0.00     0.001 A 
HETATM   29  C   UNL     1      42.767 -15.606   6.659  1.00  0.00     0.008 A 
ENDBRANCH   8  24
BRANCH   9  30
HETATM   30  C   UNL     1      41.897 -17.600   3.793  1.00  0.00     0.255 C 
HETATM   31  N   UNL     1      43.101 -18.042   3.306  1.00  0.00    -0.321 N 
HETATM   32  H   UNL     1      43.815 -17.388   3.015  1.00  0.00     0.169 HD
HETATM   33  O   UNL     1      41.128 -18.301   4.450  1.00  0.00    -0.268 OA
BRANCH  31  34
HETATM   34  C   UNL     1      43.499 -19.384   3.093  1.00  0.00     0.068 A 
HETATM   35  C   UNL     1      44.341 -19.971   4.063  1.00  0.00     0.095 A 
HETATM   36  C   UNL     1      44.848 -21.257   3.856  1.00  0.00     0.039 A 
HETATM   37  C   UNL     1      44.526 -21.959   2.693  1.00  0.00     0.003 A 
HETATM   38  C   UNL     1      43.689 -21.383   1.740  1.00  0.00     0.002 A 
HETATM   39  C   UNL     1      43.172 -20.102   1.940  1.00  0.00     0.032 A 
BRANCH  35  40
HETATM   40  O   UNL     1      44.598 -19.197   5.169  1.00  0.00    -0.354 OA
HETATM   41  C   UNL     1      44.018 -19.611   6.399  1.00  0.00     0.210 C 
ENDBRANCH  35  40
ENDBRANCH  31  34
ENDBRANCH   9  30
TORSDOF 8
ENDMDL
MODEL 2
REMARK VINA RESULT:      -9.4      4.332      8.259
REMARK  8 active torsions:
REMARK  status: ('A' for Active; 'I' for Inactive)
REMARK    1  A    between atoms: C_4  and  S_5 
REMARK    2  A    between atoms: S_5  and  C_6 
REMARK    3  A    between atoms: C_6  and  C_7 
REMARK       I    between atoms: C_7  and  N_8 
REMARK    4  A    between atoms: N_8  and  C_9 
REMARK    5  A    between atoms: C_20  and  C_21 
REMARK    6  A    between atoms: C_27  and  C_28 
REMARK       I    between atoms: C_28  and  N_29 
REMARK    7  A    between atoms: N_29  and  C_30 
REMARK    8  A    between atoms: C_31  and  O_32 
ROOT
HETATM    1  C   UNL     1      40.337 -16.702   6.577  1.00  0.00     0.069 C 
HETATM    2  C   UNL     1      40.569 -15.493   5.699  1.00  0.00     0.019 A 
HETATM    3  N   UNL     1      40.351 -14.275   6.313  1.00  0.00    -0.353 N 
HETATM    4  C   UNL     1      40.469 -13.036   5.722  1.00  0.00     0.087 A 
HETATM    5  C   UNL     1      40.885 -12.961   4.439  1.00  0.00     0.055 A 
HETATM    6  C   UNL     1      40.905 -11.660   3.654  1.00  0.00     0.019 C 
HETATM    7  N   UNL     1      40.921 -10.581   3.002  1.00  0.00    -0.096 N 
HETATM    8  C   UNL     1      41.156 -14.243   3.612  1.00  0.00     0.104 A 
HETATM    9  C   UNL     1      40.948 -15.545   4.396  1.00  0.00     0.046 A 
HETATM   10  H   UNL     1      40.191 -14.270   7.317  1.00  0.00     0.166 HD
ENDROOT
BRANCH   4  11
HETATM   11  S   UNL     1      40.087 -11.622   6.674  1.00  0.00    -0.102 SA
BRANCH  11  12
HETATM   12  C   UNL     1      41.690 -11.044   7.301  1.00  0.00     0.184 C 
BRANCH  12  13
HETATM   13  C   UNL     1      41.664 -10.380   8.666  1.00  0.00     0.231 C 
HETATM   14  N   UNL     1      42.005 -11.225   9.707  1.00  0.00    -0.325 N 
HETATM   15  H   UNL     1      42.065 -12.216   9.501  1.00  0.00     0.169 HD
HETATM   16  O   UNL     1      41.365  -9.195   8.776  1.00  0.00    -0.272 OA
BRANCH  14  17
HETATM   17  C   UNL     1      42.090 -10.895  11.084  1.00  0.00     0.056 A 
HETATM   18  C   UNL     1      43.337 -10.504  11.607  1.00  0.00     0.060 A 
HETATM   19 CL   UNL     1      44.731 -10.384  10.586  1.00  0.00    -0.082 Cl
HETATM   20  C   UNL     1      43.488 -10.209  12.966  1.00  0.00     0.026 A 
HETATM   21  C   UNL     1      42.389 -10.284  13.820  1.00  0.00     0.002 A 
HETATM   22  C   UNL     1      41.143 -10.639  13.310  1.00  0.00     0.002 A 
HETATM   23  C   UNL     1      40.994 -10.937  11.951  1.00  0.00     0.031 A 
ENDBRANCH  14  17
ENDBRANCH  12  13
ENDBRANCH  11  12
ENDBRANCH   4  11
BRANCH   8  24
HETATM   24  C   UNL     1      40.362 -14.164   2.305  1.00  0.00    -0.044 A 
HETATM   25  C   UNL     1      38.960 -14.275   2.328  1.00  0.00     0.008 A 
HETATM   26  C   UNL     1      38.229 -14.272   1.139  1.00  0.00     0.001 A 
HETATM   27  C   UNL     1      38.884 -14.147  -0.084  1.00  0.00     0.000 A 
HETATM   28  C   UNL     1      40.271 -14.031  -0.120  1.00  0.00     0.001 A 
HETATM   29  C   UNL     1      41.006 -14.046   1.064  1.00  0.00     0.008 A 
ENDBRANCH   8  24
BRANCH   9  30
HETATM   30  C   UNL     1      41.288 -16.896   3.821  1.00  0.00     0.255 C 
HETATM   31  N   UNL     1      42.337 -17.566   4.397  1.00  0.00    -0.321 N 
HETATM   32  H   UNL     1      42.678 -17.310   5.314  1.00  0.00     0.169 HD
HETATM   33  O   UNL     1      40.626 -17.340   2.884  1.00  0.00    -0.268 OA
BRANCH  31  34
HETATM   34  C   UNL     1      43.100 -18.615   3.828  1.00  0.00     0.068 A 
HETATM   35  C   UNL     1      44.028 -19.270   4.667  1.00  0.00     0.095 A 
HETATM   36  C   UNL     1      44.878 -20.244   4.135  1.00  0.00     0.039 A 
HETATM   37  C   UNL     1      44.814 -20.566   2.779  1.00  0.00     0.003 A 
HETATM   38  C   UNL     1      43.892 -19.927   1.953  1.00  0.00     0.002 A 
HETATM   39  C   UNL     1      43.033 -18.958   2.475  1.00  0.00     0.032 A 
BRANCH  35  40
HETATM   40  O   UNL     1      44.013 -18.878   5.984  1.00  0.00    -0.354 OA
HETATM   41  C   UNL     1      45.130 -18.133   6.452  1.00  0.00     0.210 C 
ENDBRANCH  35  40
ENDBRANCH  31  34
ENDBRANCH   9  30
TORSDOF 8
ENDMDL
MODEL 3
REMARK VINA RESULT:      -9.2      4.244      9.328
REMARK  8 active torsions:
REMARK  status: ('A' for Active; 'I' for Inactive)
REMARK    1  A    between atoms: C_4  and  S_5 
REMARK    2  A    between atoms: S_5  and  C_6 
REMARK    3  A    between atoms: C_6  and  C_7 
REMARK       I    between atoms: C_7  and  N_8 
REMARK    4  A    between atoms: N_8  and  C_9 
REMARK    5  A    between atoms: C_20  and  C_21 
REMARK    6  A    between atoms: C_27  and  C_28 
REMARK       I    between atoms: C_28  and  N_29 
REMARK    7  A    between atoms: N_29  and  C_30 
REMARK    8  A    between atoms: C_31  and  O_32 
ROOT
HETATM    1  C   UNL     1      41.570 -12.040   3.773  1.00  0.00     0.069 C 
HETATM    2  C   UNL     1      42.154 -13.317   4.333  1.00  0.00     0.019 A 
HETATM    3  N   UNL     1      43.193 -13.143   5.226  1.00  0.00    -0.353 N 
HETATM    4  C   UNL     1      43.903 -14.145   5.850  1.00  0.00     0.087 A 
HETATM    5  C   UNL     1      43.546 -15.430   5.636  1.00  0.00     0.055 A 
HETATM    6  C   UNL     1      44.354 -16.607   6.156  1.00  0.00     0.019 C 
HETATM    7  N   UNL     1      45.025 -17.584   6.587  1.00  0.00    -0.096 N 
HETATM    8  C   UNL     1      42.407 -15.787   4.649  1.00  0.00     0.104 A 
HETATM    9  C   UNL     1      41.735 -14.568   4.005  1.00  0.00     0.046 A 
HETATM   10  H   UNL     1      43.395 -12.198   5.540  1.00  0.00     0.166 HD
ENDROOT
BRANCH   4  11
HETATM   11  S   UNL     1      45.224 -13.695   6.902  1.00  0.00    -0.102 SA
BRANCH  11  12
HETATM   12  C   UNL     1      44.485 -13.619   8.559  1.00  0.00     0.184 C 
BRANCH  12  13
HETATM   13  C   UNL     1      44.432 -12.242   9.194  1.00  0.00     0.231 C 
HETATM   14  N   UNL     1      43.455 -12.109  10.165  1.00  0.00    -0.325 N 
HETATM   15  H   UNL     1      42.770 -12.853  10.239  1.00  0.00     0.169 HD
HETATM   16  O   UNL     1      45.214 -11.363   8.843  1.00  0.00    -0.272 OA
BRANCH  14  17
HETATM   17  C   UNL     1      43.175 -10.958  10.946  1.00  0.00     0.056 A 
HETATM   18  C   UNL     1      42.302  -9.986  10.425  1.00  0.00     0.060 A 
HETATM   19 CL   UNL     1      41.548 -10.204   8.881  1.00  0.00    -0.082 Cl
HETATM   20  C   UNL     1      42.024  -8.812  11.133  1.00  0.00     0.026 A 
HETATM   21  C   UNL     1      42.603  -8.602  12.384  1.00  0.00     0.002 A 
HETATM   22  C   UNL     1      43.444  -9.570  12.926  1.00  0.00     0.002 A 
HETATM   23  C   UNL     1      43.723 -10.742  12.214  1.00  0.00     0.031 A 
ENDBRANCH  14  17
ENDBRANCH  12  13
ENDBRANCH  11  12
ENDBRANCH   4  11
BRANCH   8  24
HETATM   24  C   UNL     1      42.931 -16.818   3.643  1.00  0.00    -0.044 A 
HETATM   25  C   UNL     1      43.745 -16.404   2.574  1.00  0.00     0.008 A 
HETATM   26  C   UNL     1      44.174 -17.321   1.613  1.00  0.00     0.001 A 
HETATM   27  C   UNL     1      43.806 -18.661   1.713  1.00  0.00     0.000 A 
HETATM   28  C   UNL     1      43.005 -19.085   2.770  1.00  0.00     0.001 A 
HETATM   29  C   UNL     1      42.564 -18.170   3.724  1.00  0.00     0.008 A 
ENDBRANCH   8  24
BRANCH   9  30
HETATM   30  C   UNL     1      40.520 -14.688   3.123  1.00  0.00     0.255 C 
HETATM   31  N   UNL     1      40.727 -14.601   1.770  1.00  0.00    -0.321 N 
HETATM   32  H   UNL     1      41.649 -14.732   1.375  1.00  0.00     0.169 HD
HETATM   33  O   UNL     1      39.414 -14.860   3.634  1.00  0.00    -0.268 OA
BRANCH  31  34
HETATM   34  C   UNL     1      39.770 -14.286   0.774  1.00  0.00     0.068 A 
HETATM   35  C   UNL     1      40.257 -13.922  -0.500  1.00  0.00     0.095 A 
HETATM   36  C   UNL     1      39.365 -13.503  -1.491  1.00  0.00     0.039 A 
HETATM   37  C   UNL     1      37.997 -13.442  -1.222  1.00  0.00     0.003 A 
HETATM   38  C   UNL     1      37.515 -13.810   0.032  1.00  0.00     0.002 A 
HETATM   39  C   UNL     1      38.396 -14.236   1.027  1.00  0.00     0.032 A 
BRANCH  35  40
HETATM   40  O   UNL     1      41.618 -14.015  -0.661  1.00  0.00    -0.354 OA
HETATM   41  C   UNL     1      42.202 -13.246  -1.705  1.00  0.00     0.210 C 
ENDBRANCH  35  40
ENDBRANCH  31  34
ENDBRANCH   9  30
TORSDOF 8
ENDMDL
MODEL 4
REMARK VINA RESULT:      -9.1      3.272      7.592
REMARK  8 active torsions:
REMARK  status: ('A' for Active; 'I' for Inactive)
REMARK    1  A    between atoms: C_4  and  S_5 
REMARK    2  A    between atoms: S_5  and  C_6 
REMARK    3  A    between atoms: C_6  and  C_7 
REMARK       I    between atoms: C_7  and  N_8 
REMARK    4  A    between atoms: N_8  and  C_9 
REMARK    5  A    between atoms: C_20  and  C_21 
REMARK    6  A    between atoms: C_27  and  C_28 
REMARK       I    between atoms: C_28  and  N_29 
REMARK    7  A    between atoms: N_29  and  C_30 
REMARK    8  A    between atoms: C_31  and  O_32 
ROOT
HETATM    1  C   UNL     1      40.561 -15.573   5.887  1.00  0.00     0.069 C 
HETATM    2  C   UNL     1      40.681 -14.581   4.752  1.00  0.00     0.019 A 
HETATM    3  N   UNL     1      40.588 -13.254   5.122  1.00  0.00    -0.353 N 
HETATM    4  C   UNL     1      40.641 -12.169   4.275  1.00  0.00     0.087 A 
HETATM    5  C   UNL     1      40.856 -12.379   2.958  1.00  0.00     0.055 A 
HETATM    6  C   UNL     1      40.784 -11.267   1.923  1.00  0.00     0.019 C 
HETATM    7  N   UNL     1      40.724 -10.346   1.066  1.00  0.00    -0.096 N 
HETATM    8  C   UNL     1      40.969 -13.815   2.386  1.00  0.00     0.104 A 
HETATM    9  C   UNL     1      40.854 -14.918   3.447  1.00  0.00     0.046 A 
HETATM   10  H   UNL     1      40.584 -13.037   6.115  1.00  0.00     0.166 HD
ENDROOT
BRANCH   4  11
HETATM   11  S   UNL     1      40.441 -10.573   4.955  1.00  0.00    -0.102 SA
BRANCH  11  12
HETATM   12  C   UNL     1      40.387 -10.843   6.751  1.00  0.00     0.184 C 
BRANCH  12  13
HETATM   13  C   UNL     1      41.624 -10.414   7.519  1.00  0.00     0.231 C 
HETATM   14  N   UNL     1      42.140 -11.397   8.345  1.00  0.00    -0.325 N 
HETATM   15  H   UNL     1      41.570 -12.222   8.497  1.00  0.00     0.169 HD
HETATM   16  O   UNL     1      42.085  -9.285   7.377  1.00  0.00    -0.272 OA
BRANCH  14  17
HETATM   17  C   UNL     1      43.292 -11.306   9.167  1.00  0.00     0.056 A 
HETATM   18  C   UNL     1      44.407 -12.106   8.855  1.00  0.00     0.060 A 
HETATM   19 CL   UNL     1      44.394 -13.149   7.473  1.00  0.00    -0.082 Cl
HETATM   20  C   UNL     1      45.553 -12.089   9.656  1.00  0.00     0.026 A 
HETATM   21  C   UNL     1      45.608 -11.255  10.772  1.00  0.00     0.002 A 
HETATM   22  C   UNL     1      44.525 -10.435  11.074  1.00  0.00     0.002 A 
HETATM   23  C   UNL     1      43.377 -10.456  10.274  1.00  0.00     0.031 A 
ENDBRANCH  14  17
ENDBRANCH  12  13
ENDBRANCH  11  12
ENDBRANCH   4  11
BRANCH   8  24
HETATM   24  C   UNL     1      39.985 -13.961   1.221  1.00  0.00    -0.044 A 
HETATM   25  C   UNL     1      40.466 -14.064  -0.095  1.00  0.00     0.008 A 
HETATM   26  C   UNL     1      39.581 -14.130  -1.172  1.00  0.00     0.001 A 
HETATM   27  C   UNL     1      38.206 -14.106  -0.948  1.00  0.00     0.000 A 
HETATM   28  C   UNL     1      37.716 -14.010   0.352  1.00  0.00     0.001 A 
HETATM   29  C   UNL     1      38.597 -13.930   1.429  1.00  0.00     0.008 A 
ENDBRANCH   8  24
BRANCH   9  30
HETATM   30  C   UNL     1      41.072 -16.373   3.124  1.00  0.00     0.255 C 
HETATM   31  N   UNL     1      42.130 -16.991   3.740  1.00  0.00    -0.321 N 
HETATM   32  H   UNL     1      42.562 -16.589   4.561  1.00  0.00     0.169 HD
HETATM   33  O   UNL     1      40.309 -16.942   2.344  1.00  0.00    -0.268 OA
BRANCH  31  34
HETATM   34  C   UNL     1      42.785 -18.180   3.332  1.00  0.00     0.068 A 
HETATM   35  C   UNL     1      43.629 -18.809   4.273  1.00  0.00     0.095 A 
HETATM   36  C   UNL     1      44.379 -19.927   3.895  1.00  0.00     0.039 A 
HETATM   37  C   UNL     1      44.296 -20.418   2.591  1.00  0.00     0.003 A 
HETATM   38  C   UNL     1      43.456 -19.803   1.665  1.00  0.00     0.002 A 
HETATM   39  C   UNL     1      42.698 -18.690   2.034  1.00  0.00     0.032 A 
BRANCH  35  40
HETATM   40  O   UNL     1      43.641 -18.247   5.526  1.00  0.00    -0.354 OA
HETATM   41  C   UNL     1      44.893 -18.180   6.196  1.00  0.00     0.210 C 
ENDBRANCH  35  40
ENDBRANCH  31  34
ENDBRANCH   9  30
TORSDOF 8
ENDMDL
MODEL 5
REMARK VINA RESULT:      -9.1      2.530      7.800
REMARK  8 active torsions:
REMARK  status: ('A' for Active; 'I' for Inactive)
REMARK    1  A    between atoms: C_4  and  S_5 
REMARK    2  A    between atoms: S_5  and  C_6 
REMARK    3  A    between atoms: C_6  and  C_7 
REMARK       I    between atoms: C_7  and  N_8 
REMARK    4  A    between atoms: N_8  and  C_9 
REMARK    5  A    between atoms: C_20  and  C_21 
REMARK    6  A    between atoms: C_27  and  C_28 
REMARK       I    between atoms: C_28  and  N_29 
REMARK    7  A    between atoms: N_29  and  C_30 
REMARK    8  A    between atoms: C_31  and  O_32 
ROOT
HETATM    1  C   UNL     1      40.435 -17.037   1.761  1.00  0.00     0.069 C 
HETATM    2  C   UNL     1      40.975 -15.978   2.696  1.00  0.00     0.019 A 
HETATM    3  N   UNL     1      41.367 -16.440   3.938  1.00  0.00    -0.353 N 
HETATM    4  C   UNL     1      41.863 -15.673   4.969  1.00  0.00     0.087 A 
HETATM    5  C   UNL     1      42.050 -14.350   4.769  1.00  0.00     0.055 A 
HETATM    6  C   UNL     1      42.450 -13.397   5.882  1.00  0.00     0.019 C 
HETATM    7  N   UNL     1      42.782 -12.605   6.806  1.00  0.00    -0.096 N 
HETATM    8  C   UNL     1      41.645 -13.681   3.431  1.00  0.00     0.104 A 
HETATM    9  C   UNL     1      41.074 -14.657   2.394  1.00  0.00     0.046 A 
HETATM   10  H   UNL     1      41.394 -17.445   4.084  1.00  0.00     0.166 HD
ENDROOT
BRANCH   4  11
HETATM   11  S   UNL     1      42.242 -16.460   6.482  1.00  0.00    -0.102 SA
BRANCH  11  12
HETATM   12  C   UNL     1      44.057 -16.505   6.535  1.00  0.00     0.184 C 
BRANCH  12  13
HETATM   13  C   UNL     1      44.697 -17.813   6.109  1.00  0.00     0.231 C 
HETATM   14  N   UNL     1      43.871 -18.621   5.348  1.00  0.00    -0.325 N 
HETATM   15  H   UNL     1      42.892 -18.363   5.294  1.00  0.00     0.169 HD
HETATM   16  O   UNL     1      45.851 -18.077   6.434  1.00  0.00    -0.272 OA
BRANCH  14  17
HETATM   17  C   UNL     1      44.188 -19.885   4.789  1.00  0.00     0.056 A 
HETATM   18  C   UNL     1      44.238 -20.009   3.388  1.00  0.00     0.060 A 
HETATM   19 CL   UNL     1      43.962 -18.640   2.365  1.00  0.00    -0.082 Cl
HETATM   20  C   UNL     1      44.504 -21.241   2.782  1.00  0.00     0.026 A 
HETATM   21  C   UNL     1      44.741 -22.366   3.571  1.00  0.00     0.002 A 
HETATM   22  C   UNL     1      44.726 -22.252   4.958  1.00  0.00     0.002 A 
HETATM   23  C   UNL     1      44.457 -21.018   5.562  1.00  0.00     0.031 A 
ENDBRANCH  14  17
ENDBRANCH  12  13
ENDBRANCH  11  12
ENDBRANCH   4  11
BRANCH   8  24
HETATM   24  C   UNL     1      40.737 -12.485   3.733  1.00  0.00    -0.044 A 
HETATM   25  C   UNL     1      41.198 -11.178   3.501  1.00  0.00     0.008 A 
HETATM   26  C   UNL     1      40.408 -10.076   3.833  1.00  0.00     0.001 A 
HETATM   27  C   UNL     1      39.145 -10.266   4.390  1.00  0.00     0.000 A 
HETATM   28  C   UNL     1      38.674 -11.555   4.620  1.00  0.00     0.001 A 
HETATM   29  C   UNL     1      39.466 -12.657   4.302  1.00  0.00     0.008 A 
ENDBRANCH   8  24
BRANCH   9  30
HETATM   30  C   UNL     1      40.747 -14.237   0.985  1.00  0.00     0.255 C 
HETATM   31  N   UNL     1      41.796 -14.154   0.106  1.00  0.00    -0.321 N 
HETATM   32  H   UNL     1      42.677 -14.610   0.302  1.00  0.00     0.169 HD
HETATM   33  O   UNL     1      39.580 -13.995   0.680  1.00  0.00    -0.268 OA
BRANCH  31  34
HETATM   34  C   UNL     1      41.841 -13.428  -1.110  1.00  0.00     0.068 A 
HETATM   35  C   UNL     1      41.453 -14.108  -2.285  1.00  0.00     0.095 A 
HETATM   36  C   UNL     1      41.572 -13.475  -3.526  1.00  0.00     0.039 A 
HETATM   37  C   UNL     1      42.077 -12.176  -3.604  1.00  0.00     0.003 A 
HETATM   38  C   UNL     1      42.452 -11.502  -2.444  1.00  0.00     0.002 A 
HETATM   39  C   UNL     1      42.330 -12.122  -1.199  1.00  0.00     0.032 A 
BRANCH  35  40
HETATM   40  O   UNL     1      40.971 -15.382  -2.099  1.00  0.00    -0.354 OA
HETATM   41  C   UNL     1      40.279 -15.978  -3.188  1.00  0.00     0.210 C 
ENDBRANCH  35  40
ENDBRANCH  31  34
ENDBRANCH   9  30
TORSDOF 8
ENDMDL
MODEL 6
REMARK VINA RESULT:      -9.0      4.040      8.054
REMARK  8 active torsions:
REMARK  status: ('A' for Active; 'I' for Inactive)
REMARK    1  A    between atoms: C_4  and  S_5 
REMARK    2  A    between atoms: S_5  and  C_6 
REMARK    3  A    between atoms: C_6  and  C_7 
REMARK       I    between atoms: C_7  and  N_8 
REMARK    4  A    between atoms: N_8  and  C_9 
REMARK    5  A    between atoms: C_20  and  C_21 
REMARK    6  A    between atoms: C_27  and  C_28 
REMARK       I    between atoms: C_28  and  N_29 
REMARK    7  A    between atoms: N_29  and  C_30 
REMARK    8  A    between atoms: C_31  and  O_32 
ROOT
HETATM    1  C   UNL     1      43.354 -15.783   7.780  1.00  0.00     0.069 C 
HETATM    2  C   UNL     1      43.220 -15.212   6.387  1.00  0.00     0.019 A 
HETATM    3  N   UNL     1      42.628 -13.966   6.320  1.00  0.00    -0.353 N 
HETATM    4  C   UNL     1      42.371 -13.250   5.172  1.00  0.00     0.087 A 
HETATM    5  C   UNL     1      42.769 -13.755   3.984  1.00  0.00     0.055 A 
HETATM    6  C   UNL     1      42.404 -13.118   2.653  1.00  0.00     0.019 C 
HETATM    7  N   UNL     1      42.101 -12.590   1.549  1.00  0.00    -0.096 N 
HETATM    8  C   UNL     1      43.436 -15.150   3.894  1.00  0.00     0.104 A 
HETATM    9  C   UNL     1      43.623 -15.840   5.251  1.00  0.00     0.046 A 
HETATM   10  H   UNL     1      42.454 -13.475   7.193  1.00  0.00     0.166 HD
ENDROOT
BRANCH   4  11
HETATM   11  S   UNL     1      41.555 -11.712   5.316  1.00  0.00    -0.102 SA
BRANCH  11  12
HETATM   12  C   UNL     1      40.918 -11.689   7.018  1.00  0.00     0.184 C 
BRANCH  12  13
HETATM   13  C   UNL     1      41.642 -10.766   7.980  1.00  0.00     0.231 C 
HETATM   14  N   UNL     1      41.575 -11.170   9.302  1.00  0.00    -0.325 N 
HETATM   15  H   UNL     1      40.924 -11.914   9.527  1.00  0.00     0.169 HD
HETATM   16  O   UNL     1      42.225  -9.768   7.567  1.00  0.00    -0.272 OA
BRANCH  14  17
HETATM   17  C   UNL     1      42.166 -10.532  10.423  1.00  0.00     0.056 A 
HETATM   18  C   UNL     1      43.407 -11.003  10.889  1.00  0.00     0.060 A 
HETATM   19 CL   UNL     1      44.221 -12.305  10.088  1.00  0.00    -0.082 Cl
HETATM   20  C   UNL     1      44.015 -10.440  12.016  1.00  0.00     0.026 A 
HETATM   21  C   UNL     1      43.397  -9.383  12.683  1.00  0.00     0.002 A 
HETATM   22  C   UNL     1      42.184  -8.887  12.214  1.00  0.00     0.002 A 
HETATM   23  C   UNL     1      41.576  -9.454  11.089  1.00  0.00     0.031 A 
ENDBRANCH  14  17
ENDBRANCH  12  13
ENDBRANCH  11  12
ENDBRANCH   4  11
BRANCH   8  24
HETATM   24  C   UNL     1      42.682 -15.993   2.861  1.00  0.00    -0.044 A 
HETATM   25  C   UNL     1      41.327 -16.307   3.067  1.00  0.00     0.008 A 
HETATM   26  C   UNL     1      40.645 -17.129   2.168  1.00  0.00     0.001 A 
HETATM   27  C   UNL     1      41.301 -17.637   1.049  1.00  0.00     0.000 A 
HETATM   28  C   UNL     1      42.641 -17.329   0.831  1.00  0.00     0.001 A 
HETATM   29  C   UNL     1      43.329 -16.519   1.733  1.00  0.00     0.008 A 
ENDBRANCH   8  24
BRANCH   9  30
HETATM   30  C   UNL     1      44.372 -17.139   5.400  1.00  0.00     0.255 C 
HETATM   31  N   UNL     1      43.740 -18.272   4.955  1.00  0.00    -0.321 N 
HETATM   32  H   UNL     1      42.956 -18.214   4.318  1.00  0.00     0.169 HD
HETATM   33  O   UNL     1      45.497 -17.136   5.899  1.00  0.00    -0.268 OA
BRANCH  31  34
HETATM   34  C   UNL     1      44.020 -19.611   5.322  1.00  0.00     0.068 A 
HETATM   35  C   UNL     1      44.476 -20.479   4.307  1.00  0.00     0.095 A 
HETATM   36  C   UNL     1      44.672 -21.834   4.587  1.00  0.00     0.039 A 
HETATM   37  C   UNL     1      44.415 -22.329   5.866  1.00  0.00     0.003 A 
HETATM   38  C   UNL     1      43.973 -21.472   6.871  1.00  0.00     0.002 A 
HETATM   39  C   UNL     1      43.781 -20.115   6.603  1.00  0.00     0.032 A 
BRANCH  35  40
HETATM   40  O   UNL     1      44.697 -19.894   3.083  1.00  0.00    -0.354 OA
HETATM   41  C   UNL     1      43.981 -20.419   1.973  1.00  0.00     0.210 C 
ENDBRANCH  35  40
ENDBRANCH  31  34
ENDBRANCH   9  30
TORSDOF 8
ENDMDL
MODEL 7
REMARK VINA RESULT:      -8.9      3.061      8.141
REMARK  8 active torsions:
REMARK  status: ('A' for Active; 'I' for Inactive)
REMARK    1  A    between atoms: C_4  and  S_5 
REMARK    2  A    between atoms: S_5  and  C_6 
REMARK    3  A    between atoms: C_6  and  C_7 
REMARK       I    between atoms: C_7  and  N_8 
REMARK    4  A    between atoms: N_8  and  C_9 
REMARK    5  A    between atoms: C_20  and  C_21 
REMARK    6  A    between atoms: C_27  and  C_28 
REMARK       I    between atoms: C_28  and  N_29 
REMARK    7  A    between atoms: N_29  and  C_30 
REMARK    8  A    between atoms: C_31  and  O_32 
ROOT
HETATM    1  C   UNL     1      41.093 -16.091   0.690  1.00  0.00     0.069 C 
HETATM    2  C   UNL     1      41.287 -14.996   1.714  1.00  0.00     0.019 A 
HETATM    3  N   UNL     1      41.482 -15.435   3.010  1.00  0.00    -0.353 N 
HETATM    4  C   UNL     1      41.655 -14.637   4.119  1.00  0.00     0.087 A 
HETATM    5  C   UNL     1      41.697 -13.296   3.960  1.00  0.00     0.055 A 
HETATM    6  C   UNL     1      41.735 -12.328   5.131  1.00  0.00     0.019 C 
HETATM    7  N   UNL     1      41.765 -11.524   6.101  1.00  0.00    -0.096 N 
HETATM    8  C   UNL     1      41.481 -12.651   2.568  1.00  0.00     0.104 A 
HETATM    9  C   UNL     1      41.265 -13.666   1.438  1.00  0.00     0.046 A 
HETATM   10  H   UNL     1      41.615 -16.431   3.158  1.00  0.00     0.166 HD
ENDROOT
BRANCH   4  11
HETATM   11  S   UNL     1      41.826 -15.407   5.678  1.00  0.00    -0.102 SA
BRANCH  11  12
HETATM   12  C   UNL     1      43.307 -16.446   5.515  1.00  0.00     0.184 C 
BRANCH  12  13
HETATM   13  C   UNL     1      43.080 -17.833   4.942  1.00  0.00     0.231 C 
HETATM   14  N   UNL     1      44.244 -18.493   4.591  1.00  0.00    -0.325 N 
HETATM   15  H   UNL     1      45.100 -17.949   4.579  1.00  0.00     0.169 HD
HETATM   16  O   UNL     1      41.943 -18.281   4.828  1.00  0.00    -0.272 OA
BRANCH  14  17
HETATM   17  C   UNL     1      44.358 -19.800   4.053  1.00  0.00     0.056 A 
HETATM   18  C   UNL     1      44.106 -19.989   2.681  1.00  0.00     0.060 A 
HETATM   19 CL   UNL     1      43.708 -18.650   1.659  1.00  0.00    -0.082 Cl
HETATM   20  C   UNL     1      44.162 -21.262   2.107  1.00  0.00     0.026 A 
HETATM   21  C   UNL     1      44.490 -22.366   2.893  1.00  0.00     0.002 A 
HETATM   22  C   UNL     1      44.772 -22.189   4.245  1.00  0.00     0.002 A 
HETATM   23  C   UNL     1      44.712 -20.915   4.819  1.00  0.00     0.031 A 
ENDBRANCH  14  17
ENDBRANCH  12  13
ENDBRANCH  11  12
ENDBRANCH   4  11
BRANCH   8  24
HETATM   24  C   UNL     1      40.378 -11.594   2.680  1.00  0.00    -0.044 A 
HETATM   25  C   UNL     1      39.033 -11.991   2.789  1.00  0.00     0.008 A 
HETATM   26  C   UNL     1      38.013 -11.040   2.824  1.00  0.00     0.001 A 
HETATM   27  C   UNL     1      38.321  -9.683   2.763  1.00  0.00     0.000 A 
HETATM   28  C   UNL     1      39.648  -9.276   2.660  1.00  0.00     0.001 A 
HETATM   29  C   UNL     1      40.669 -10.223   2.611  1.00  0.00     0.008 A 
ENDBRANCH   8  24
BRANCH   9  30
HETATM   30  C   UNL     1      41.172 -13.255  -0.009  1.00  0.00     0.255 C 
HETATM   31  N   UNL     1      42.341 -12.878  -0.620  1.00  0.00    -0.321 N 
HETATM   32  H   UNL     1      43.238 -13.124  -0.225  1.00  0.00     0.169 HD
HETATM   33  O   UNL     1      40.081 -13.277  -0.577  1.00  0.00    -0.268 OA
BRANCH  31  34
HETATM   34  C   UNL     1      42.481 -12.094  -1.792  1.00  0.00     0.068 A 
HETATM   35  C   UNL     1      42.865 -10.746  -1.626  1.00  0.00     0.095 A 
HETATM   36  C   UNL     1      42.921  -9.898  -2.737  1.00  0.00     0.039 A 
HETATM   37  C   UNL     1      42.595 -10.381  -4.005  1.00  0.00     0.003 A 
HETATM   38  C   UNL     1      42.225 -11.714  -4.170  1.00  0.00     0.002 A 
HETATM   39  C   UNL     1      42.172 -12.571  -3.069  1.00  0.00     0.032 A 
BRANCH  35  40
HETATM   40  O   UNL     1      43.163 -10.369  -0.339  1.00  0.00    -0.354 OA
HETATM   41  C   UNL     1      43.116  -8.980  -0.042  1.00  0.00     0.210 C 
ENDBRANCH  35  40
ENDBRANCH  31  34
ENDBRANCH   9  30
TORSDOF 8
ENDMDL
MODEL 8
REMARK VINA RESULT:      -8.7      4.582      9.333
REMARK  8 active torsions:
REMARK  status: ('A' for Active; 'I' for Inactive)
REMARK    1  A    between atoms: C_4  and  S_5 
REMARK    2  A    between atoms: S_5  and  C_6 
REMARK    3  A    between atoms: C_6  and  C_7 
REMARK       I    between atoms: C_7  and  N_8 
REMARK    4  A    between atoms: N_8  and  C_9 
REMARK    5  A    between atoms: C_20  and  C_21 
REMARK    6  A    between atoms: C_27  and  C_28 
REMARK       I    between atoms: C_28  and  N_29 
REMARK    7  A    between atoms: N_29  and  C_30 
REMARK    8  A    between atoms: C_31  and  O_32 
ROOT
HETATM    1  C   UNL     1      41.229 -11.349   5.477  1.00  0.00     0.069 C 
HETATM    2  C   UNL     1      41.903 -12.670   5.774  1.00  0.00     0.019 A 
HETATM    3  N   UNL     1      43.055 -12.580   6.532  1.00  0.00    -0.353 N 
HETATM    4  C   UNL     1      43.860 -13.632   6.912  1.00  0.00     0.087 A 
HETATM    5  C   UNL     1      43.494 -14.889   6.577  1.00  0.00     0.055 A 
HETATM    6  C   UNL     1      44.384 -16.097   6.818  1.00  0.00     0.019 C 
HETATM    7  N   UNL     1      45.121 -17.100   7.017  1.00  0.00    -0.096 N 
HETATM    8  C   UNL     1      42.233 -15.150   5.716  1.00  0.00     0.104 A 
HETATM    9  C   UNL     1      41.460 -13.879   5.341  1.00  0.00     0.046 A 
HETATM   10  H   UNL     1      43.286 -11.679   6.940  1.00  0.00     0.166 HD
ENDROOT
BRANCH   4  11
HETATM   11  S   UNL     1      45.308 -13.282   7.823  1.00  0.00    -0.102 SA
BRANCH  11  12
HETATM   12  C   UNL     1      44.714 -12.881   9.493  1.00  0.00     0.184 C 
BRANCH  12  13
HETATM   13  C   UNL     1      43.785 -11.685   9.592  1.00  0.00     0.231 C 
HETATM   14  N   UNL     1      42.825 -11.801  10.581  1.00  0.00    -0.325 N 
HETATM   15  H   UNL     1      42.714 -12.710  11.016  1.00  0.00     0.169 HD
HETATM   16  O   UNL     1      43.923 -10.725   8.839  1.00  0.00    -0.272 OA
BRANCH  14  17
HETATM   17  C   UNL     1      41.835 -10.846  10.930  1.00  0.00     0.056 A 
HETATM   18  C   UNL     1      42.124  -9.916  11.945  1.00  0.00     0.060 A 
HETATM   19 CL   UNL     1      43.669  -9.904  12.726  1.00  0.00    -0.082 Cl
HETATM   20  C   UNL     1      41.170  -8.981  12.358  1.00  0.00     0.026 A 
HETATM   21  C   UNL     1      39.917  -8.950  11.748  1.00  0.00     0.002 A 
HETATM   22  C   UNL     1      39.629  -9.845  10.720  1.00  0.00     0.002 A 
HETATM   23  C   UNL     1      40.584 -10.782  10.311  1.00  0.00     0.031 A 
ENDBRANCH  14  17
ENDBRANCH  12  13
ENDBRANCH  11  12
ENDBRANCH   4  11
BRANCH   8  24
HETATM   24  C   UNL     1      42.625 -16.022   4.519  1.00  0.00    -0.044 A 
HETATM   25  C   UNL     1      43.377 -15.471   3.466  1.00  0.00     0.008 A 
HETATM   26  C   UNL     1      43.684 -16.233   2.338  1.00  0.00     0.001 A 
HETATM   27  C   UNL     1      43.256 -17.556   2.252  1.00  0.00     0.000 A 
HETATM   28  C   UNL     1      42.514 -18.115   3.290  1.00  0.00     0.001 A 
HETATM   29  C   UNL     1      42.194 -17.353   4.412  1.00  0.00     0.008 A 
ENDBRANCH   8  24
BRANCH   9  30
HETATM   30  C   UNL     1      40.135 -13.922   4.626  1.00  0.00     0.255 C 
HETATM   31  N   UNL     1      40.159 -13.730   3.268  1.00  0.00    -0.321 N 
HETATM   32  H   UNL     1      41.017 -13.834   2.743  1.00  0.00     0.169 HD
HETATM   33  O   UNL     1      39.106 -14.128   5.268  1.00  0.00    -0.268 OA
BRANCH  31  34
HETATM   34  C   UNL     1      39.082 -13.331   2.439  1.00  0.00     0.068 A 
HETATM   35  C   UNL     1      38.556 -14.296   1.553  1.00  0.00     0.095 A 
HETATM   36  C   UNL     1      37.560 -13.931   0.641  1.00  0.00     0.039 A 
HETATM   37  C   UNL     1      37.091 -12.618   0.603  1.00  0.00     0.003 A 
HETATM   38  C   UNL     1      37.604 -11.668   1.483  1.00  0.00     0.002 A 
HETATM   39  C   UNL     1      38.593 -12.022   2.403  1.00  0.00     0.032 A 
BRANCH  35  40
HETATM   40  O   UNL     1      39.087 -15.558   1.668  1.00  0.00    -0.354 OA
HETATM   41  C   UNL     1      40.276 -15.831   0.939  1.00  0.00     0.210 C 
ENDBRANCH  35  40
ENDBRANCH  31  34
ENDBRANCH   9  30
TORSDOF 8
ENDMDL
MODEL 9
REMARK VINA RESULT:      -8.6      3.907      7.975
REMARK  8 active torsions:
REMARK  status: ('A' for Active; 'I' for Inactive)
REMARK    1  A    between atoms: C_4  and  S_5 
REMARK    2  A    between atoms: S_5  and  C_6 
REMARK    3  A    between atoms: C_6  and  C_7 
REMARK       I    between atoms: C_7  and  N_8 
REMARK    4  A    between atoms: N_8  and  C_9 
REMARK    5  A    between atoms: C_20  and  C_21 
REMARK    6  A    between atoms: C_27  and  C_28 
REMARK       I    between atoms: C_28  and  N_29 
REMARK    7  A    between atoms: N_29  and  C_30 
REMARK    8  A    between atoms: C_31  and  O_32 
ROOT
HETATM    1  C   UNL     1      42.567 -13.935   5.886  1.00  0.00     0.069 C 
HETATM    2  C   UNL     1      41.884 -13.044   4.872  1.00  0.00     0.019 A 
HETATM    3  N   UNL     1      41.196 -11.972   5.406  1.00  0.00    -0.353 N 
HETATM    4  C   UNL     1      40.474 -11.036   4.697  1.00  0.00     0.087 A 
HETATM    5  C   UNL     1      40.459 -11.109   3.348  1.00  0.00     0.055 A 
HETATM    6  C   UNL     1      39.579 -10.220   2.485  1.00  0.00     0.019 C 
HETATM    7  N   UNL     1      38.849  -9.483   1.769  1.00  0.00    -0.096 N 
HETATM    8  C   UNL     1      41.175 -12.263   2.603  1.00  0.00     0.104 A 
HETATM    9  C   UNL     1      41.904 -13.245   3.529  1.00  0.00     0.046 A 
HETATM   10  H   UNL     1      41.306 -11.783   6.398  1.00  0.00     0.166 HD
ENDROOT
BRANCH   4  11
HETATM   11  S   UNL     1      39.628  -9.793   5.584  1.00  0.00    -0.102 SA
BRANCH  11  12
HETATM   12  C   UNL     1      39.873 -10.227   7.331  1.00  0.00     0.184 C 
BRANCH  12  13
HETATM   13  C   UNL     1      41.273 -10.010   7.874  1.00  0.00     0.231 C 
HETATM   14  N   UNL     1      41.697 -10.998   8.744  1.00  0.00    -0.325 N 
HETATM   15  H   UNL     1      41.001 -11.660   9.070  1.00  0.00     0.169 HD
HETATM   16  O   UNL     1      41.927  -9.029   7.534  1.00  0.00    -0.272 OA
BRANCH  14  17
HETATM   17  C   UNL     1      42.955 -11.085   9.393  1.00  0.00     0.056 A 
HETATM   18  C   UNL     1      43.116 -10.449  10.638  1.00  0.00     0.060 A 
HETATM   19 CL   UNL     1      41.797  -9.612  11.386  1.00  0.00    -0.082 Cl
HETATM   20  C   UNL     1      44.346 -10.465  11.302  1.00  0.00     0.026 A 
HETATM   21  C   UNL     1      45.431 -11.136  10.739  1.00  0.00     0.002 A 
HETATM   22  C   UNL     1      45.277 -11.797   9.523  1.00  0.00     0.002 A 
HETATM   23  C   UNL     1      44.046 -11.776   8.859  1.00  0.00     0.031 A 
ENDBRANCH  14  17
ENDBRANCH  12  13
ENDBRANCH  11  12
ENDBRANCH   4  11
BRANCH   8  24
HETATM   24  C   UNL     1      40.178 -12.926   1.646  1.00  0.00    -0.044 A 
HETATM   25  C   UNL     1      40.331 -12.774   0.257  1.00  0.00     0.008 A 
HETATM   26  C   UNL     1      39.394 -13.315  -0.624  1.00  0.00     0.001 A 
HETATM   27  C   UNL     1      38.301 -14.024  -0.131  1.00  0.00     0.000 A 
HETATM   28  C   UNL     1      38.140 -14.187   1.242  1.00  0.00     0.001 A 
HETATM   29  C   UNL     1      39.067 -13.636   2.126  1.00  0.00     0.008 A 
ENDBRANCH   8  24
BRANCH   9  30
HETATM   30  C   UNL     1      42.773 -14.358   3.002  1.00  0.00     0.255 C 
HETATM   31  N   UNL     1      42.147 -15.540   2.698  1.00  0.00    -0.321 N 
HETATM   32  H   UNL     1      41.145 -15.579   2.565  1.00  0.00     0.169 HD
HETATM   33  O   UNL     1      43.980 -14.169   2.862  1.00  0.00    -0.268 OA
BRANCH  31  34
HETATM   34  C   UNL     1      42.742 -16.820   2.579  1.00  0.00     0.068 A 
HETATM   35  C   UNL     1      42.848 -17.596   3.754  1.00  0.00     0.095 A 
HETATM   36  C   UNL     1      43.516 -18.823   3.718  1.00  0.00     0.039 A 
HETATM   37  C   UNL     1      44.081 -19.279   2.526  1.00  0.00     0.003 A 
HETATM   38  C   UNL     1      43.970 -18.517   1.365  1.00  0.00     0.002 A 
HETATM   39  C   UNL     1      43.299 -17.293   1.388  1.00  0.00     0.032 A 
BRANCH  35  40
HETATM   40  O   UNL     1      42.260 -17.058   4.873  1.00  0.00    -0.354 OA
HETATM   41  C   UNL     1      40.973 -17.546   5.230  1.00  0.00     0.210 C 
ENDBRANCH  35  40
ENDBRANCH  31  34
ENDBRANCH   9  30
TORSDOF 8
ENDMDL
MODEL 10
REMARK VINA RESULT:      -8.6      3.472      8.435
REMARK  8 active torsions:
REMARK  status: ('A' for Active; 'I' for Inactive)
REMARK    1  A    between atoms: C_4  and  S_5 
REMARK    2  A    between atoms: S_5  and  C_6 
REMARK    3  A    between atoms: C_6  and  C_7 
REMARK       I    between atoms: C_7  and  N_8 
REMARK    4  A    between atoms: N_8  and  C_9 
REMARK    5  A    between atoms: C_20  and  C_21 
REMARK    6  A    between atoms: C_27  and  C_28 
REMARK       I    between atoms: C_28  and  N_29 
REMARK    7  A    between atoms: N_29  and  C_30 
REMARK    8  A    between atoms: C_31  and  O_32 
ROOT
HETATM    1  C   UNL     1      43.155 -13.663   5.510  1.00  0.00     0.069 C 
HETATM    2  C   UNL     1      41.913 -13.655   4.647  1.00  0.00     0.019 A 
HETATM    3  N   UNL     1      41.763 -14.757   3.827  1.00  0.00    -0.353 N 
HETATM    4  C   UNL     1      40.735 -14.970   2.935  1.00  0.00     0.087 A 
HETATM    5  C   UNL     1      39.734 -14.066   2.863  1.00  0.00     0.055 A 
HETATM    6  C   UNL     1      38.637 -14.133   1.813  1.00  0.00     0.019 C 
HETATM    7  N   UNL     1      37.728 -14.188   0.942  1.00  0.00    -0.096 N 
HETATM    8  C   UNL     1      39.766 -12.770   3.711  1.00  0.00     0.104 A 
HETATM    9  C   UNL     1      40.990 -12.658   4.630  1.00  0.00     0.046 A 
HETATM   10  H   UNL     1      42.403 -15.535   3.956  1.00  0.00     0.166 HD
ENDROOT
BRANCH   4  11
HETATM   11  S   UNL     1      40.776 -16.412   1.950  1.00  0.00    -0.102 SA
BRANCH  11  12
HETATM   12  C   UNL     1      42.380 -16.342   1.100  1.00  0.00     0.184 C 
BRANCH  12  13
HETATM   13  C   UNL     1      43.363 -17.442   1.455  1.00  0.00     0.231 C 
HETATM   14  N   UNL     1      42.793 -18.509   2.126  1.00  0.00    -0.325 N 
HETATM   15  H   UNL     1      41.846 -18.390   2.467  1.00  0.00     0.169 HD
HETATM   16  O   UNL     1      44.547 -17.343   1.145  1.00  0.00    -0.272 OA
BRANCH  14  17
HETATM   17  C   UNL     1      43.445 -19.689   2.569  1.00  0.00     0.056 A 
HETATM   18  C   UNL     1      44.078 -19.677   3.825  1.00  0.00     0.060 A 
HETATM   19 CL   UNL     1      44.029 -18.270   4.833  1.00  0.00    -0.082 Cl
HETATM   20  C   UNL     1      44.771 -20.798   4.293  1.00  0.00     0.026 A 
HETATM   21  C   UNL     1      44.827 -21.955   3.517  1.00  0.00     0.002 A 
HETATM   22  C   UNL     1      44.178 -21.990   2.285  1.00  0.00     0.002 A 
HETATM   23  C   UNL     1      43.488 -20.867   1.818  1.00  0.00     0.031 A 
ENDBRANCH  14  17
ENDBRANCH  12  13
ENDBRANCH  11  12
ENDBRANCH   4  11
BRANCH   8  24
HETATM   24  C   UNL     1      39.566 -11.568   2.783  1.00  0.00    -0.044 A 
HETATM   25  C   UNL     1      38.366 -10.837   2.831  1.00  0.00     0.008 A 
HETATM   26  C   UNL     1      38.143  -9.781   1.946  1.00  0.00     0.001 A 
HETATM   27  C   UNL     1      39.118  -9.434   1.012  1.00  0.00     0.000 A 
HETATM   28  C   UNL     1      40.313 -10.147   0.959  1.00  0.00     0.001 A 
HETATM   29  C   UNL     1      40.534 -11.210   1.832  1.00  0.00     0.008 A 
ENDBRANCH   8  24
BRANCH   9  30
HETATM   30  C   UNL     1      41.145 -11.546   5.634  1.00  0.00     0.255 C 
HETATM   31  N   UNL     1      40.873 -11.852   6.943  1.00  0.00    -0.321 N 
HETATM   32  H   UNL     1      40.846 -12.813   7.258  1.00  0.00     0.169 HD
HETATM   33  O   UNL     1      41.507 -10.432   5.255  1.00  0.00    -0.268 OA
BRANCH  31  34
HETATM   34  C   UNL     1      40.555 -10.949   7.987  1.00  0.00     0.068 A 
HETATM   35  C   UNL     1      41.626 -10.451   8.761  1.00  0.00     0.095 A 
HETATM   36  C   UNL     1      41.365  -9.636   9.866  1.00  0.00     0.039 A 
HETATM   37  C   UNL     1      40.049  -9.319  10.207  1.00  0.00     0.003 A 
HETATM   38  C   UNL     1      38.992  -9.803   9.439  1.00  0.00     0.002 A 
HETATM   39  C   UNL     1      39.243 -10.611   8.329  1.00  0.00     0.032 A 
BRANCH  35  40
HETATM   40  O   UNL     1      42.881 -10.823   8.343  1.00  0.00    -0.354 OA
HETATM   41  C   UNL     1      43.787 -11.282   9.338  1.00  0.00     0.210 C 
ENDBRANCH  35  40
ENDBRANCH  31  34
ENDBRANCH   9  30
TORSDOF 8
ENDMDL
