MODEL 1
REMARK VINA RESULT:      -8.2      0.000      0.000
REMARK  9 active torsions:
REMARK  status: ('A' for Active; 'I' for Inactive)
REMARK    1  A    between atoms: C_5  and  N_6 
REMARK       I    between atoms: N_6  and  C_7 
REMARK    2  A    between atoms: C_7  and  C_8 
REMARK    3  A    between atoms: C_8  and  S_9 
REMARK    4  A    between atoms: S_9  and  C_10 
REMARK    5  A    between atoms: C_11  and  C_12 
REMARK       I    between atoms: C_12  and  N_13 
REMARK    6  A    between atoms: N_13  and  C_14 
REMARK    7  A    between atoms: C_14  and  C_15 
REMARK    8  A    between atoms: C_15  and  N_16 
REMARK    9  A    between atoms: C_15  and  C_22 
ROOT
HETATM    1  C   UNL     1      42.627 -15.574   2.384  1.00  0.00     0.016 A 
HETATM    2  C   UNL     1      41.490 -16.182   1.793  1.00  0.00     0.048 A 
HETATM    3  C   UNL     1      41.510 -17.547   1.445  1.00  0.00     0.018 A 
HETATM    4  C   UNL     1      42.662 -18.307   1.620  1.00  0.00     0.001 A 
HETATM    5  C   UNL     1      43.800 -17.711   2.144  1.00  0.00     0.001 A 
HETATM    6  C   UNL     1      43.781 -16.363   2.523  1.00  0.00     0.019 A 
ENDROOT
BRANCH   2   7
HETATM    7  C   UNL     1      40.249 -15.457   1.381  1.00  0.00     0.253 C 
HETATM    8  N   UNL     1      40.268 -14.922   0.119  1.00  0.00    -0.354 N 
HETATM    9  H   UNL     1      41.159 -14.904  -0.372  1.00  0.00     0.162 HD
HETATM   10  O   UNL     1      39.217 -15.482   2.046  1.00  0.00    -0.268 OA
BRANCH   8  11
HETATM   11  C   UNL     1      39.128 -14.287  -0.505  1.00  0.00     0.161 C 
BRANCH  11  12
HETATM   12  C   UNL     1      39.430 -13.216  -1.599  1.00  0.00     0.245 C 
BRANCH  12  13
HETATM   13  N   UNL     1      39.101 -13.690  -3.014  1.00  0.00    -0.061 N 
HETATM   14  H   UNL     1      39.597 -13.034  -3.638  1.00  0.00     0.280 HD
HETATM   15  C   UNL     1      37.674 -13.625  -3.521  1.00  0.00     0.236 C 
HETATM   16  C   UNL     1      37.266 -15.071  -3.714  1.00  0.00     0.029 C 
HETATM   17  C   UNL     1      38.550 -15.710  -4.201  1.00  0.00     0.029 C 
HETATM   18  C   UNL     1      39.598 -15.097  -3.296  1.00  0.00     0.236 C 
ENDBRANCH  12  13
BRANCH  12  19
HETATM   19  C   UNL     1      40.742 -12.471  -1.417  1.00  0.00     0.015 A 
HETATM   20  S   UNL     1      40.953 -11.225  -0.251  1.00  0.00    -0.104 SA
HETATM   21  C   UNL     1      42.570 -10.949  -0.706  1.00  0.00     0.050 A 
HETATM   22  C   UNL     1      42.953 -11.762  -1.745  1.00  0.00     0.008 A 
HETATM   23  C   UNL     1      41.905 -12.635  -2.156  1.00  0.00     0.017 A 
ENDBRANCH  12  19
ENDBRANCH  11  12
ENDBRANCH   8  11
ENDBRANCH   2   7
BRANCH   1  24
HETATM   24  S   UNL     1      42.583 -13.851   2.932  1.00  0.00    -0.120 SA
BRANCH  24  25
HETATM   25  C   UNL     1      43.640 -13.754   4.427  1.00  0.00     0.182 C 
BRANCH  25  26
HETATM   26  C   UNL     1      42.840 -13.790   5.724  1.00  0.00     0.231 C 
HETATM   27  N   UNL     1      42.377 -14.973   6.227  1.00  0.00    -0.327 N 
HETATM   28  H   UNL     1      41.608 -14.823   6.874  1.00  0.00     0.169 HD
HETATM   29  O   UNL     1      42.435 -12.758   6.265  1.00  0.00    -0.272 OA
BRANCH  27  30
HETATM   30  C   UNL     1      42.802 -16.302   6.090  1.00  0.00     0.034 A 
HETATM   31  C   UNL     1      42.016 -17.320   5.555  1.00  0.00     0.030 A 
HETATM   32  C   UNL     1      42.544 -18.608   5.388  1.00  0.00     0.009 A 
HETATM   33  C   UNL     1      43.865 -18.891   5.752  1.00  0.00    -0.062 A 
HETATM   34  C   UNL     1      44.450 -20.255   5.529  1.00  0.00     0.048 C 
HETATM   35  C   UNL     1      44.662 -17.860   6.255  1.00  0.00     0.009 A 
HETATM   36  C   UNL     1      44.137 -16.575   6.412  1.00  0.00     0.030 A 
ENDBRANCH  27  30
ENDBRANCH  25  26
ENDBRANCH  24  25
ENDBRANCH   1  24
TORSDOF 9
ENDMDL
MODEL 2
REMARK VINA RESULT:      -8.2      4.094      8.581
REMARK  9 active torsions:
REMARK  status: ('A' for Active; 'I' for Inactive)
REMARK    1  A    between atoms: C_5  and  N_6 
REMARK       I    between atoms: N_6  and  C_7 
REMARK    2  A    between atoms: C_7  and  C_8 
REMARK    3  A    between atoms: C_8  and  S_9 
REMARK    4  A    between atoms: S_9  and  C_10 
REMARK    5  A    between atoms: C_11  and  C_12 
REMARK       I    between atoms: C_12  and  N_13 
REMARK    6  A    between atoms: N_13  and  C_14 
REMARK    7  A    between atoms: C_14  and  C_15 
REMARK    8  A    between atoms: C_15  and  N_16 
REMARK    9  A    between atoms: C_15  and  C_22 
ROOT
HETATM    1  C   UNL     1      41.692 -15.827   5.791  1.00  0.00     0.016 A 
HETATM    2  C   UNL     1      42.786 -15.054   6.257  1.00  0.00     0.048 A 
HETATM    3  C   UNL     1      43.773 -15.634   7.076  1.00  0.00     0.018 A 
HETATM    4  C   UNL     1      43.664 -16.958   7.490  1.00  0.00     0.001 A 
HETATM    5  C   UNL     1      42.569 -17.710   7.089  1.00  0.00     0.001 A 
HETATM    6  C   UNL     1      41.598 -17.152   6.249  1.00  0.00     0.019 A 
ENDROOT
BRANCH   2   7
HETATM    7  C   UNL     1      42.946 -13.582   6.045  1.00  0.00     0.253 C 
HETATM    8  N   UNL     1      42.234 -12.780   6.901  1.00  0.00    -0.354 N 
HETATM    9  H   UNL     1      41.534 -13.225   7.490  1.00  0.00     0.162 HD
HETATM   10  O   UNL     1      43.783 -13.111   5.281  1.00  0.00    -0.268 OA
BRANCH   8  11
HETATM   11  C   UNL     1      42.344 -11.339   6.934  1.00  0.00     0.161 C 
BRANCH  11  12
HETATM   12  C   UNL     1      42.340 -10.665   8.342  1.00  0.00     0.245 C 
BRANCH  12  13
HETATM   13  N   UNL     1      43.090 -11.474   9.400  1.00  0.00    -0.061 N 
HETATM   14  H   UNL     1      42.761 -12.444   9.278  1.00  0.00     0.280 HD
HETATM   15  C   UNL     1      42.836 -11.213  10.872  1.00  0.00     0.236 C 
HETATM   16  C   UNL     1      44.146 -10.661  11.398  1.00  0.00     0.029 C 
HETATM   17  C   UNL     1      45.172 -11.447  10.608  1.00  0.00     0.029 C 
HETATM   18  C   UNL     1      44.596 -11.444   9.207  1.00  0.00     0.236 C 
ENDBRANCH  12  13
BRANCH  12  19
HETATM   19  C   UNL     1      41.007 -10.067   8.759  1.00  0.00     0.015 A 
HETATM   20  S   UNL     1      39.559 -10.990   8.852  1.00  0.00    -0.104 SA
HETATM   21  C   UNL     1      38.629  -9.648   9.334  1.00  0.00     0.050 A 
HETATM   22  C   UNL     1      39.383  -8.502   9.402  1.00  0.00     0.008 A 
HETATM   23  C   UNL     1      40.749  -8.739   9.071  1.00  0.00     0.017 A 
ENDBRANCH  12  19
ENDBRANCH  11  12
ENDBRANCH   8  11
ENDBRANCH   2   7
BRANCH   1  24
HETATM   24  S   UNL     1      40.472 -15.125   4.655  1.00  0.00    -0.120 SA
BRANCH  24  25
HETATM   25  C   UNL     1      41.014 -15.583   2.964  1.00  0.00     0.182 C 
BRANCH  25  26
HETATM   26  C   UNL     1      42.383 -15.017   2.605  1.00  0.00     0.231 C 
HETATM   27  N   UNL     1      43.505 -15.793   2.691  1.00  0.00    -0.327 N 
HETATM   28  H   UNL     1      44.344 -15.223   2.753  1.00  0.00     0.169 HD
HETATM   29  O   UNL     1      42.554 -13.813   2.399  1.00  0.00    -0.272 OA
BRANCH  27  30
HETATM   30  C   UNL     1      43.717 -17.177   2.626  1.00  0.00     0.034 A 
HETATM   31  C   UNL     1      43.936 -17.985   3.741  1.00  0.00     0.030 A 
HETATM   32  C   UNL     1      44.069 -19.373   3.593  1.00  0.00     0.009 A 
HETATM   33  C   UNL     1      43.980 -19.969   2.331  1.00  0.00    -0.062 A 
HETATM   34  C   UNL     1      44.071 -21.458   2.174  1.00  0.00     0.048 C 
HETATM   35  C   UNL     1      43.724 -19.161   1.220  1.00  0.00     0.009 A 
HETATM   36  C   UNL     1      43.583 -17.780   1.369  1.00  0.00     0.030 A 
ENDBRANCH  27  30
ENDBRANCH  25  26
ENDBRANCH  24  25
ENDBRANCH   1  24
TORSDOF 9
ENDMDL
MODEL 3
REMARK VINA RESULT:      -7.9      1.413      2.979
REMARK  9 active torsions:
REMARK  status: ('A' for Active; 'I' for Inactive)
REMARK    1  A    between atoms: C_5  and  N_6 
REMARK       I    between atoms: N_6  and  C_7 
REMARK    2  A    between atoms: C_7  and  C_8 
REMARK    3  A    between atoms: C_8  and  S_9 
REMARK    4  A    between atoms: S_9  and  C_10 
REMARK    5  A    between atoms: C_11  and  C_12 
REMARK       I    between atoms: C_12  and  N_13 
REMARK    6  A    between atoms: N_13  and  C_14 
REMARK    7  A    between atoms: C_14  and  C_15 
REMARK    8  A    between atoms: C_15  and  N_16 
REMARK    9  A    between atoms: C_15  and  C_22 
ROOT
HETATM    1  C   UNL     1      43.077 -16.088   2.571  1.00  0.00     0.016 A 
HETATM    2  C   UNL     1      41.894 -16.416   1.861  1.00  0.00     0.048 A 
HETATM    3  C   UNL     1      41.659 -17.739   1.437  1.00  0.00     0.018 A 
HETATM    4  C   UNL     1      42.606 -18.734   1.657  1.00  0.00     0.001 A 
HETATM    5  C   UNL     1      43.793 -18.415   2.302  1.00  0.00     0.001 A 
HETATM    6  C   UNL     1      44.023 -17.110   2.754  1.00  0.00     0.019 A 
ENDROOT
BRANCH   2   7
HETATM    7  C   UNL     1      40.873 -15.427   1.395  1.00  0.00     0.253 C 
HETATM    8  N   UNL     1      41.270 -14.603   0.374  1.00  0.00    -0.354 N 
HETATM    9  H   UNL     1      42.257 -14.601   0.127  1.00  0.00     0.162 HD
HETATM   10  O   UNL     1      39.704 -15.458   1.771  1.00  0.00    -0.268 OA
BRANCH   8  11
HETATM   11  C   UNL     1      40.394 -13.664  -0.290  1.00  0.00     0.161 C 
BRANCH  11  12
HETATM   12  C   UNL     1      40.537 -13.543  -1.839  1.00  0.00     0.245 C 
BRANCH  12  13
HETATM   13  N   UNL     1      40.745 -12.105  -2.316  1.00  0.00    -0.061 N 
HETATM   14  H   UNL     1      39.866 -11.618  -2.086  1.00  0.00     0.280 HD
HETATM   15  C   UNL     1      40.917 -11.816  -3.794  1.00  0.00     0.236 C 
HETATM   16  C   UNL     1      42.337 -11.305  -3.925  1.00  0.00     0.029 C 
HETATM   17  C   UNL     1      42.518 -10.511  -2.648  1.00  0.00     0.029 C 
HETATM   18  C   UNL     1      41.889 -11.407  -1.601  1.00  0.00     0.236 C 
ENDBRANCH  12  13
BRANCH  12  19
HETATM   19  C   UNL     1      39.562 -14.391  -2.639  1.00  0.00     0.015 A 
HETATM   20  S   UNL     1      40.033 -15.821  -3.469  1.00  0.00    -0.104 SA
HETATM   21  C   UNL     1      38.463 -16.101  -4.063  1.00  0.00     0.050 A 
HETATM   22  C   UNL     1      37.586 -15.119  -3.670  1.00  0.00     0.008 A 
HETATM   23  C   UNL     1      38.215 -14.135  -2.854  1.00  0.00     0.017 A 
ENDBRANCH  12  19
ENDBRANCH  11  12
ENDBRANCH   8  11
ENDBRANCH   2   7
BRANCH   1  24
HETATM   24  S   UNL     1      43.346 -14.418   3.212  1.00  0.00    -0.120 SA
BRANCH  24  25
HETATM   25  C   UNL     1      42.025 -14.117   4.447  1.00  0.00     0.182 C 
BRANCH  25  26
HETATM   26  C   UNL     1      42.568 -13.871   5.850  1.00  0.00     0.231 C 
HETATM   27  N   UNL     1      42.824 -14.915   6.693  1.00  0.00    -0.327 N 
HETATM   28  H   UNL     1      42.852 -14.609   7.662  1.00  0.00     0.169 HD
HETATM   29  O   UNL     1      42.629 -12.737   6.333  1.00  0.00    -0.272 OA
BRANCH  27  30
HETATM   30  C   UNL     1      43.129 -16.266   6.477  1.00  0.00     0.034 A 
HETATM   31  C   UNL     1      42.205 -17.214   6.042  1.00  0.00     0.030 A 
HETATM   32  C   UNL     1      42.611 -18.530   5.782  1.00  0.00     0.009 A 
HETATM   33  C   UNL     1      43.945 -18.913   5.951  1.00  0.00    -0.062 A 
HETATM   34  C   UNL     1      44.394 -20.308   5.627  1.00  0.00     0.048 C 
HETATM   35  C   UNL     1      44.877 -17.952   6.354  1.00  0.00     0.009 A 
HETATM   36  C   UNL     1      44.473 -16.639   6.603  1.00  0.00     0.030 A 
ENDBRANCH  27  30
ENDBRANCH  25  26
ENDBRANCH  24  25
ENDBRANCH   1  24
TORSDOF 9
ENDMDL
MODEL 4
REMARK VINA RESULT:      -7.7      5.127      8.025
REMARK  9 active torsions:
REMARK  status: ('A' for Active; 'I' for Inactive)
REMARK    1  A    between atoms: C_5  and  N_6 
REMARK       I    between atoms: N_6  and  C_7 
REMARK    2  A    between atoms: C_7  and  C_8 
REMARK    3  A    between atoms: C_8  and  S_9 
REMARK    4  A    between atoms: S_9  and  C_10 
REMARK    5  A    between atoms: C_11  and  C_12 
REMARK       I    between atoms: C_12  and  N_13 
REMARK    6  A    between atoms: N_13  and  C_14 
REMARK    7  A    between atoms: C_14  and  C_15 
REMARK    8  A    between atoms: C_15  and  N_16 
REMARK    9  A    between atoms: C_15  and  C_22 
ROOT
HETATM    1  C   UNL     1      42.166 -13.512   5.842  1.00  0.00     0.016 A 
HETATM    2  C   UNL     1      41.115 -14.400   5.498  1.00  0.00     0.048 A 
HETATM    3  C   UNL     1      39.785 -13.941   5.434  1.00  0.00     0.018 A 
HETATM    4  C   UNL     1      39.471 -12.626   5.762  1.00  0.00     0.001 A 
HETATM    5  C   UNL     1      40.482 -11.761   6.155  1.00  0.00     0.001 A 
HETATM    6  C   UNL     1      41.812 -12.199   6.192  1.00  0.00     0.019 A 
ENDROOT
BRANCH   2   7
HETATM    7  C   UNL     1      41.270 -15.873   5.295  1.00  0.00     0.253 C 
HETATM    8  N   UNL     1      41.840 -16.250   4.106  1.00  0.00    -0.354 N 
HETATM    9  H   UNL     1      41.955 -15.535   3.392  1.00  0.00     0.162 HD
HETATM   10  O   UNL     1      41.068 -16.689   6.191  1.00  0.00    -0.268 OA
BRANCH   8  11
HETATM   11  C   UNL     1      42.180 -17.615   3.772  1.00  0.00     0.161 C 
BRANCH  11  12
HETATM   12  C   UNL     1      43.634 -18.078   4.099  1.00  0.00     0.245 C 
BRANCH  12  13
HETATM   13  N   UNL     1      44.246 -18.958   3.009  1.00  0.00    -0.061 N 
HETATM   14  H   UNL     1      45.009 -18.393   2.606  1.00  0.00     0.280 HD
HETATM   15  C   UNL     1      43.425 -19.335   1.792  1.00  0.00     0.236 C 
HETATM   16  C   UNL     1      43.243 -20.836   1.898  1.00  0.00     0.029 C 
HETATM   17  C   UNL     1      44.566 -21.285   2.482  1.00  0.00     0.029 C 
HETATM   18  C   UNL     1      44.833 -20.249   3.553  1.00  0.00     0.236 C 
ENDBRANCH  12  13
BRANCH  12  19
HETATM   19  C   UNL     1      43.855 -18.520   5.536  1.00  0.00     0.015 A 
HETATM   20  S   UNL     1      44.969 -17.741   6.590  1.00  0.00    -0.104 SA
HETATM   21  C   UNL     1      44.626 -18.798   7.879  1.00  0.00     0.050 A 
HETATM   22  C   UNL     1      43.702 -19.752   7.525  1.00  0.00     0.008 A 
HETATM   23  C   UNL     1      43.260 -19.595   6.180  1.00  0.00     0.017 A 
ENDBRANCH  12  19
ENDBRANCH  11  12
ENDBRANCH   8  11
ENDBRANCH   2   7
BRANCH   1  24
HETATM   24  S   UNL     1      43.890 -14.060   5.828  1.00  0.00    -0.120 SA
BRANCH  24  25
HETATM   25  C   UNL     1      44.452 -14.052   7.573  1.00  0.00     0.182 C 
BRANCH  25  26
HETATM   26  C   UNL     1      45.481 -12.965   7.860  1.00  0.00     0.231 C 
HETATM   27  N   UNL     1      45.186 -11.925   8.696  1.00  0.00    -0.327 N 
HETATM   28  H   UNL     1      45.804 -11.135   8.536  1.00  0.00     0.169 HD
HETATM   29  O   UNL     1      46.536 -12.886   7.225  1.00  0.00    -0.272 OA
BRANCH  27  30
HETATM   30  C   UNL     1      44.278 -11.778   9.755  1.00  0.00     0.034 A 
HETATM   31  C   UNL     1      44.483 -12.292  11.034  1.00  0.00     0.030 A 
HETATM   32  C   UNL     1      43.556 -12.038  12.054  1.00  0.00     0.009 A 
HETATM   33  C   UNL     1      42.417 -11.266  11.809  1.00  0.00    -0.062 A 
HETATM   34  C   UNL     1      41.448 -10.950  12.910  1.00  0.00     0.048 C 
HETATM   35  C   UNL     1      42.232 -10.722  10.535  1.00  0.00     0.009 A 
HETATM   36  C   UNL     1      43.161 -10.967   9.522  1.00  0.00     0.030 A 
ENDBRANCH  27  30
ENDBRANCH  25  26
ENDBRANCH  24  25
ENDBRANCH   1  24
TORSDOF 9
ENDMDL
MODEL 5
REMARK VINA RESULT:      -7.7      2.633      8.287
REMARK  9 active torsions:
REMARK  status: ('A' for Active; 'I' for Inactive)
REMARK    1  A    between atoms: C_5  and  N_6 
REMARK       I    between atoms: N_6  and  C_7 
REMARK    2  A    between atoms: C_7  and  C_8 
REMARK    3  A    between atoms: C_8  and  S_9 
REMARK    4  A    between atoms: S_9  and  C_10 
REMARK    5  A    between atoms: C_11  and  C_12 
REMARK       I    between atoms: C_12  and  N_13 
REMARK    6  A    between atoms: N_13  and  C_14 
REMARK    7  A    between atoms: C_14  and  C_15 
REMARK    8  A    between atoms: C_15  and  N_16 
REMARK    9  A    between atoms: C_15  and  C_22 
ROOT
HETATM    1  C   UNL     1      41.412 -14.108  -1.105  1.00  0.00     0.016 A 
HETATM    2  C   UNL     1      41.326 -14.333   0.293  1.00  0.00     0.048 A 
HETATM    3  C   UNL     1      41.617 -13.297   1.202  1.00  0.00     0.018 A 
HETATM    4  C   UNL     1      42.049 -12.055   0.748  1.00  0.00     0.001 A 
HETATM    5  C   UNL     1      42.192 -11.838  -0.615  1.00  0.00     0.001 A 
HETATM    6  C   UNL     1      41.876 -12.851  -1.528  1.00  0.00     0.019 A 
ENDROOT
BRANCH   2   7
HETATM    7  C   UNL     1      41.051 -15.656   0.932  1.00  0.00     0.253 C 
HETATM    8  N   UNL     1      42.066 -16.575   0.852  1.00  0.00    -0.354 N 
HETATM    9  H   UNL     1      42.845 -16.362   0.233  1.00  0.00     0.162 HD
HETATM   10  O   UNL     1      40.062 -15.860   1.631  1.00  0.00    -0.268 OA
BRANCH   8  11
HETATM   11  C   UNL     1      42.040 -17.865   1.504  1.00  0.00     0.161 C 
BRANCH  11  12
HETATM   12  C   UNL     1      42.919 -18.025   2.783  1.00  0.00     0.245 C 
BRANCH  12  13
HETATM   13  N   UNL     1      43.183 -19.484   3.155  1.00  0.00    -0.061 N 
HETATM   14  H   UNL     1      42.386 -19.755   3.752  1.00  0.00     0.280 HD
HETATM   15  C   UNL     1      44.383 -19.841   4.010  1.00  0.00     0.236 C 
HETATM   16  C   UNL     1      45.274 -20.661   3.100  1.00  0.00     0.029 C 
HETATM   17  C   UNL     1      44.271 -21.443   2.277  1.00  0.00     0.029 C 
HETATM   18  C   UNL     1      43.221 -20.403   1.947  1.00  0.00     0.236 C 
ENDBRANCH  12  13
BRANCH  12  19
HETATM   19  C   UNL     1      42.566 -17.083   3.923  1.00  0.00     0.015 A 
HETATM   20  S   UNL     1      41.331 -17.428   5.068  1.00  0.00    -0.104 SA
HETATM   21  C   UNL     1      41.571 -15.964   5.902  1.00  0.00     0.050 A 
HETATM   22  C   UNL     1      42.551 -15.199   5.318  1.00  0.00     0.008 A 
HETATM   23  C   UNL     1      43.123 -15.838   4.180  1.00  0.00     0.017 A 
ENDBRANCH  12  19
ENDBRANCH  11  12
ENDBRANCH   8  11
ENDBRANCH   2   7
BRANCH   1  24
HETATM   24  S   UNL     1      40.942 -15.395  -2.286  1.00  0.00    -0.120 SA
BRANCH  24  25
HETATM   25  C   UNL     1      39.955 -14.566  -3.591  1.00  0.00     0.182 C 
BRANCH  25  26
HETATM   26  C   UNL     1      38.463 -14.860  -3.483  1.00  0.00     0.231 C 
HETATM   27  N   UNL     1      37.765 -14.531  -2.355  1.00  0.00    -0.327 N 
HETATM   28  H   UNL     1      36.905 -15.066  -2.285  1.00  0.00     0.169 HD
HETATM   29  O   UNL     1      37.876 -15.550  -4.320  1.00  0.00    -0.272 OA
BRANCH  27  30
HETATM   30  C   UNL     1      37.964 -13.569  -1.355  1.00  0.00     0.034 A 
HETATM   31  C   UNL     1      38.245 -12.228  -1.608  1.00  0.00     0.030 A 
HETATM   32  C   UNL     1      38.359 -11.317  -0.549  1.00  0.00     0.009 A 
HETATM   33  C   UNL     1      38.190 -11.735   0.774  1.00  0.00    -0.062 A 
HETATM   34  C   UNL     1      38.262 -10.755   1.908  1.00  0.00     0.048 C 
HETATM   35  C   UNL     1      37.873 -13.073   1.024  1.00  0.00     0.009 A 
HETATM   36  C   UNL     1      37.750 -13.978  -0.033  1.00  0.00     0.030 A 
ENDBRANCH  27  30
ENDBRANCH  25  26
ENDBRANCH  24  25
ENDBRANCH   1  24
TORSDOF 9
ENDMDL
MODEL 6
REMARK VINA RESULT:      -7.7      4.412      8.022
REMARK  9 active torsions:
REMARK  status: ('A' for Active; 'I' for Inactive)
REMARK    1  A    between atoms: C_5  and  N_6 
REMARK       I    between atoms: N_6  and  C_7 
REMARK    2  A    between atoms: C_7  and  C_8 
REMARK    3  A    between atoms: C_8  and  S_9 
REMARK    4  A    between atoms: S_9  and  C_10 
REMARK    5  A    between atoms: C_11  and  C_12 
REMARK       I    between atoms: C_12  and  N_13 
REMARK    6  A    between atoms: N_13  and  C_14 
REMARK    7  A    between atoms: C_14  and  C_15 
REMARK    8  A    between atoms: C_15  and  N_16 
REMARK    9  A    between atoms: C_15  and  C_22 
ROOT
HETATM    1  C   UNL     1      42.547 -13.683   5.991  1.00  0.00     0.016 A 
HETATM    2  C   UNL     1      41.751 -14.855   5.927  1.00  0.00     0.048 A 
HETATM    3  C   UNL     1      40.364 -14.765   5.696  1.00  0.00     0.018 A 
HETATM    4  C   UNL     1      39.742 -13.526   5.585  1.00  0.00     0.001 A 
HETATM    5  C   UNL     1      40.499 -12.370   5.702  1.00  0.00     0.001 A 
HETATM    6  C   UNL     1      41.883 -12.448   5.900  1.00  0.00     0.019 A 
ENDROOT
BRANCH   2   7
HETATM    7  C   UNL     1      42.242 -16.240   6.204  1.00  0.00     0.253 C 
HETATM    8  N   UNL     1      42.889 -16.858   5.165  1.00  0.00    -0.354 N 
HETATM    9  H   UNL     1      42.840 -16.415   4.250  1.00  0.00     0.162 HD
HETATM   10  O   UNL     1      42.229 -16.733   7.329  1.00  0.00    -0.268 OA
BRANCH   8  11
HETATM   11  C   UNL     1      43.536 -18.146   5.270  1.00  0.00     0.161 C 
BRANCH  11  12
HETATM   12  C   UNL     1      43.495 -19.060   4.005  1.00  0.00     0.245 C 
BRANCH  12  13
HETATM   13  N   UNL     1      44.606 -20.111   3.984  1.00  0.00    -0.061 N 
HETATM   14  H   UNL     1      45.480 -19.573   3.880  1.00  0.00     0.280 HD
HETATM   15  C   UNL     1      44.682 -21.107   2.844  1.00  0.00     0.236 C 
HETATM   16  C   UNL     1      44.406 -22.451   3.486  1.00  0.00     0.029 C 
HETATM   17  C   UNL     1      45.078 -22.312   4.836  1.00  0.00     0.029 C 
HETATM   18  C   UNL     1      44.680 -20.916   5.269  1.00  0.00     0.236 C 
ENDBRANCH  12  13
BRANCH  12  19
HETATM   19  C   UNL     1      43.221 -18.331   2.700  1.00  0.00     0.015 A 
HETATM   20  S   UNL     1      41.633 -17.960   2.155  1.00  0.00    -0.104 SA
HETATM   21  C   UNL     1      42.198 -17.226   0.727  1.00  0.00     0.050 A 
HETATM   22  C   UNL     1      43.568 -17.276   0.635  1.00  0.00     0.008 A 
HETATM   23  C   UNL     1      44.157 -17.912   1.766  1.00  0.00     0.017 A 
ENDBRANCH  12  19
ENDBRANCH  11  12
ENDBRANCH   8  11
ENDBRANCH   2   7
BRANCH   1  24
HETATM   24  S   UNL     1      44.342 -13.786   6.183  1.00  0.00    -0.120 SA
BRANCH  24  25
HETATM   25  C   UNL     1      44.685 -13.589   7.973  1.00  0.00     0.182 C 
BRANCH  25  26
HETATM   26  C   UNL     1      45.800 -12.591   8.258  1.00  0.00     0.231 C 
HETATM   27  N   UNL     1      45.618 -11.575   9.154  1.00  0.00    -0.327 N 
HETATM   28  H   UNL     1      46.282 -10.822   8.999  1.00  0.00     0.169 HD
HETATM   29  O   UNL     1      46.828 -12.553   7.576  1.00  0.00    -0.272 OA
BRANCH  27  30
HETATM   30  C   UNL     1      44.772 -11.418  10.262  1.00  0.00     0.034 A 
HETATM   31  C   UNL     1      44.417 -12.454  11.124  1.00  0.00     0.030 A 
HETATM   32  C   UNL     1      43.623 -12.196  12.250  1.00  0.00     0.009 A 
HETATM   33  C   UNL     1      43.178 -10.900  12.528  1.00  0.00    -0.062 A 
HETATM   34  C   UNL     1      42.369 -10.609  13.758  1.00  0.00     0.048 C 
HETATM   35  C   UNL     1      43.565  -9.857  11.682  1.00  0.00     0.009 A 
HETATM   36  C   UNL     1      44.364 -10.114  10.566  1.00  0.00     0.030 A 
ENDBRANCH  27  30
ENDBRANCH  25  26
ENDBRANCH  24  25
ENDBRANCH   1  24
TORSDOF 9
ENDMDL
MODEL 7
REMARK VINA RESULT:      -7.7      2.165      3.927
REMARK  9 active torsions:
REMARK  status: ('A' for Active; 'I' for Inactive)
REMARK    1  A    between atoms: C_5  and  N_6 
REMARK       I    between atoms: N_6  and  C_7 
REMARK    2  A    between atoms: C_7  and  C_8 
REMARK    3  A    between atoms: C_8  and  S_9 
REMARK    4  A    between atoms: S_9  and  C_10 
REMARK    5  A    between atoms: C_11  and  C_12 
REMARK       I    between atoms: C_12  and  N_13 
REMARK    6  A    between atoms: N_13  and  C_14 
REMARK    7  A    between atoms: C_14  and  C_15 
REMARK    8  A    between atoms: C_15  and  N_16 
REMARK    9  A    between atoms: C_15  and  C_22 
ROOT
HETATM    1  C   UNL     1      41.957 -15.425   4.629  1.00  0.00     0.016 A 
HETATM    2  C   UNL     1      42.585 -14.176   4.387  1.00  0.00     0.048 A 
HETATM    3  C   UNL     1      43.674 -13.759   5.176  1.00  0.00     0.018 A 
HETATM    4  C   UNL     1      44.117 -14.536   6.242  1.00  0.00     0.001 A 
HETATM    5  C   UNL     1      43.476 -15.733   6.526  1.00  0.00     0.001 A 
HETATM    6  C   UNL     1      42.412 -16.172   5.729  1.00  0.00     0.019 A 
ENDROOT
BRANCH   2   7
HETATM    7  C   UNL     1      42.111 -13.157   3.400  1.00  0.00     0.253 C 
HETATM    8  N   UNL     1      42.523 -13.349   2.107  1.00  0.00    -0.354 N 
HETATM    9  H   UNL     1      43.242 -14.051   1.941  1.00  0.00     0.162 HD
HETATM   10  O   UNL     1      41.272 -12.305   3.681  1.00  0.00    -0.268 OA
BRANCH   8  11
HETATM   11  C   UNL     1      42.080 -12.545   0.991  1.00  0.00     0.161 C 
BRANCH  11  12
HETATM   12  C   UNL     1      41.065 -13.204   0.006  1.00  0.00     0.245 C 
BRANCH  12  13
HETATM   13  N   UNL     1      41.737 -14.047  -1.078  1.00  0.00    -0.061 N 
HETATM   14  H   UNL     1      42.615 -14.380  -0.652  1.00  0.00     0.280 HD
HETATM   15  C   UNL     1      42.210 -13.391  -2.361  1.00  0.00     0.236 C 
HETATM   16  C   UNL     1      41.337 -13.989  -3.445  1.00  0.00     0.029 C 
HETATM   17  C   UNL     1      41.159 -15.417  -2.972  1.00  0.00     0.029 C 
HETATM   18  C   UNL     1      40.908 -15.252  -1.487  1.00  0.00     0.236 C 
ENDBRANCH  12  13
BRANCH  12  19
HETATM   19  C   UNL     1      39.928 -12.299  -0.441  1.00  0.00     0.015 A 
HETATM   20  S   UNL     1      40.157 -10.642  -0.836  1.00  0.00    -0.104 SA
HETATM   21  C   UNL     1      38.507 -10.404  -1.180  1.00  0.00     0.050 A 
HETATM   22  C   UNL     1      37.773 -11.547  -0.976  1.00  0.00     0.008 A 
HETATM   23  C   UNL     1      38.587 -12.636  -0.549  1.00  0.00     0.017 A 
ENDBRANCH  12  19
ENDBRANCH  11  12
ENDBRANCH   8  11
ENDBRANCH   2   7
BRANCH   1  24
HETATM   24  S   UNL     1      40.626 -16.021   3.561  1.00  0.00    -0.120 SA
BRANCH  24  25
HETATM   25  C   UNL     1      41.342 -17.366   2.540  1.00  0.00     0.182 C 
BRANCH  25  26
HETATM   26  C   UNL     1      42.700 -17.005   1.952  1.00  0.00     0.231 C 
HETATM   27  N   UNL     1      43.842 -17.601   2.411  1.00  0.00    -0.327 N 
HETATM   28  H   UNL     1      44.663 -17.048   2.185  1.00  0.00     0.169 HD
HETATM   29  O   UNL     1      42.842 -16.054   1.178  1.00  0.00    -0.272 OA
BRANCH  27  30
HETATM   30  C   UNL     1      44.093 -18.830   3.037  1.00  0.00     0.034 A 
HETATM   31  C   UNL     1      44.179 -20.046   2.362  1.00  0.00     0.030 A 
HETATM   32  C   UNL     1      44.504 -21.219   3.057  1.00  0.00     0.009 A 
HETATM   33  C   UNL     1      44.749 -21.190   4.434  1.00  0.00    -0.062 A 
HETATM   34  C   UNL     1      45.145 -22.434   5.173  1.00  0.00     0.048 C 
HETATM   35  C   UNL     1      44.697 -19.964   5.102  1.00  0.00     0.009 A 
HETATM   36  C   UNL     1      44.382 -18.794   4.407  1.00  0.00     0.030 A 
ENDBRANCH  27  30
ENDBRANCH  25  26
ENDBRANCH  24  25
ENDBRANCH   1  24
TORSDOF 9
ENDMDL
MODEL 8
REMARK VINA RESULT:      -7.7      2.402      4.482
REMARK  9 active torsions:
REMARK  status: ('A' for Active; 'I' for Inactive)
REMARK    1  A    between atoms: C_5  and  N_6 
REMARK       I    between atoms: N_6  and  C_7 
REMARK    2  A    between atoms: C_7  and  C_8 
REMARK    3  A    between atoms: C_8  and  S_9 
REMARK    4  A    between atoms: S_9  and  C_10 
REMARK    5  A    between atoms: C_11  and  C_12 
REMARK       I    between atoms: C_12  and  N_13 
REMARK    6  A    between atoms: N_13  and  C_14 
REMARK    7  A    between atoms: C_14  and  C_15 
REMARK    8  A    between atoms: C_15  and  N_16 
REMARK    9  A    between atoms: C_15  and  C_22 
ROOT
HETATM    1  C   UNL     1      42.860 -17.857   3.644  1.00  0.00     0.016 A 
HETATM    2  C   UNL     1      42.581 -18.226   2.303  1.00  0.00     0.048 A 
HETATM    3  C   UNL     1      43.216 -19.341   1.723  1.00  0.00     0.018 A 
HETATM    4  C   UNL     1      44.169 -20.065   2.432  1.00  0.00     0.001 A 
HETATM    5  C   UNL     1      44.493 -19.681   3.725  1.00  0.00     0.001 A 
HETATM    6  C   UNL     1      43.845 -18.592   4.323  1.00  0.00     0.019 A 
ENDROOT
BRANCH   2   7
HETATM    7  C   UNL     1      41.721 -17.445   1.362  1.00  0.00     0.253 C 
HETATM    8  N   UNL     1      42.338 -16.400   0.724  1.00  0.00    -0.354 N 
HETATM    9  H   UNL     1      43.261 -16.127   1.054  1.00  0.00     0.162 HD
HETATM   10  O   UNL     1      40.592 -17.809   1.041  1.00  0.00    -0.268 OA
BRANCH   8  11
HETATM   11  C   UNL     1      41.713 -15.601  -0.306  1.00  0.00     0.161 C 
BRANCH  11  12
HETATM   12  C   UNL     1      41.652 -14.061  -0.062  1.00  0.00     0.245 C 
BRANCH  12  13
HETATM   13  N   UNL     1      40.431 -13.626   0.748  1.00  0.00    -0.061 N 
HETATM   14  H   UNL     1      40.454 -12.595   0.733  1.00  0.00     0.280 HD
HETATM   15  C   UNL     1      40.355 -13.941   2.229  1.00  0.00     0.236 C 
HETATM   16  C   UNL     1      39.200 -14.912   2.358  1.00  0.00     0.029 C 
HETATM   17  C   UNL     1      38.225 -14.401   1.318  1.00  0.00     0.029 C 
HETATM   18  C   UNL     1      39.121 -14.092   0.137  1.00  0.00     0.236 C 
ENDBRANCH  12  13
BRANCH  12  19
HETATM   19  C   UNL     1      42.008 -13.209  -1.270  1.00  0.00     0.015 A 
HETATM   20  S   UNL     1      42.603 -11.602  -1.134  1.00  0.00    -0.104 SA
HETATM   21  C   UNL     1      42.708 -11.403  -2.822  1.00  0.00     0.050 A 
HETATM   22  C   UNL     1      42.277 -12.520  -3.495  1.00  0.00     0.008 A 
HETATM   23  C   UNL     1      41.872 -13.558  -2.606  1.00  0.00     0.017 A 
ENDBRANCH  12  19
ENDBRANCH  11  12
ENDBRANCH   8  11
ENDBRANCH   2   7
BRANCH   1  24
HETATM   24  S   UNL     1      41.977 -16.493   4.437  1.00  0.00    -0.120 SA
BRANCH  24  25
HETATM   25  C   UNL     1      43.190 -15.131   4.629  1.00  0.00     0.182 C 
BRANCH  25  26
HETATM   26  C   UNL     1      43.206 -14.543   6.035  1.00  0.00     0.231 C 
HETATM   27  N   UNL     1      42.536 -13.386   6.317  1.00  0.00    -0.327 N 
HETATM   28  H   UNL     1      42.895 -12.947   7.160  1.00  0.00     0.169 HD
HETATM   29  O   UNL     1      43.953 -14.982   6.914  1.00  0.00    -0.272 OA
BRANCH  27  30
HETATM   30  C   UNL     1      41.429 -12.756   5.732  1.00  0.00     0.034 A 
HETATM   31  C   UNL     1      40.107 -13.141   5.950  1.00  0.00     0.030 A 
HETATM   32  C   UNL     1      39.055 -12.411   5.381  1.00  0.00     0.009 A 
HETATM   33  C   UNL     1      39.311 -11.287   4.589  1.00  0.00    -0.062 A 
HETATM   34  C   UNL     1      38.186 -10.474   4.018  1.00  0.00     0.048 C 
HETATM   35  C   UNL     1      40.635 -10.883   4.401  1.00  0.00     0.009 A 
HETATM   36  C   UNL     1      41.682 -11.605   4.976  1.00  0.00     0.030 A 
ENDBRANCH  27  30
ENDBRANCH  25  26
ENDBRANCH  24  25
ENDBRANCH   1  24
TORSDOF 9
ENDMDL
MODEL 9
REMARK VINA RESULT:      -7.6      2.438      7.889
REMARK  9 active torsions:
REMARK  status: ('A' for Active; 'I' for Inactive)
REMARK    1  A    between atoms: C_5  and  N_6 
REMARK       I    between atoms: N_6  and  C_7 
REMARK    2  A    between atoms: C_7  and  C_8 
REMARK    3  A    between atoms: C_8  and  S_9 
REMARK    4  A    between atoms: S_9  and  C_10 
REMARK    5  A    between atoms: C_11  and  C_12 
REMARK       I    between atoms: C_12  and  N_13 
REMARK    6  A    between atoms: N_13  and  C_14 
REMARK    7  A    between atoms: C_14  and  C_15 
REMARK    8  A    between atoms: C_15  and  N_16 
REMARK    9  A    between atoms: C_15  and  C_22 
ROOT
HETATM    1  C   UNL     1      39.716 -12.269   1.437  1.00  0.00     0.016 A 
HETATM    2  C   UNL     1      40.323 -13.473   1.878  1.00  0.00     0.048 A 
HETATM    3  C   UNL     1      39.631 -14.696   1.787  1.00  0.00     0.018 A 
HETATM    4  C   UNL     1      38.322 -14.739   1.317  1.00  0.00     0.001 A 
HETATM    5  C   UNL     1      37.696 -13.561   0.935  1.00  0.00     0.001 A 
HETATM    6  C   UNL     1      38.385 -12.343   0.993  1.00  0.00     0.019 A 
ENDROOT
BRANCH   2   7
HETATM    7  C   UNL     1      41.647 -13.561   2.567  1.00  0.00     0.253 C 
HETATM    8  N   UNL     1      41.660 -14.279   3.735  1.00  0.00    -0.354 N 
HETATM    9  H   UNL     1      40.762 -14.549   4.132  1.00  0.00     0.162 HD
HETATM   10  O   UNL     1      42.690 -13.173   2.048  1.00  0.00    -0.268 OA
BRANCH   8  11
HETATM   11  C   UNL     1      42.859 -14.578   4.486  1.00  0.00     0.161 C 
BRANCH  11  12
HETATM   12  C   UNL     1      43.453 -16.011   4.323  1.00  0.00     0.245 C 
BRANCH  12  13
HETATM   13  N   UNL     1      42.892 -16.764   3.116  1.00  0.00    -0.061 N 
HETATM   14  H   UNL     1      41.986 -16.313   2.918  1.00  0.00     0.280 HD
HETATM   15  C   UNL     1      42.522 -18.228   3.244  1.00  0.00     0.236 C 
HETATM   16  C   UNL     1      43.496 -18.953   2.338  1.00  0.00     0.029 C 
HETATM   17  C   UNL     1      43.656 -17.982   1.186  1.00  0.00     0.029 C 
HETATM   18  C   UNL     1      43.774 -16.644   1.886  1.00  0.00     0.236 C 
ENDBRANCH  12  13
BRANCH  12  19
HETATM   19  C   UNL     1      43.582 -16.799   5.617  1.00  0.00     0.015 A 
HETATM   20  S   UNL     1      42.374 -16.786   6.841  1.00  0.00    -0.104 SA
HETATM   21  C   UNL     1      43.264 -17.825   7.855  1.00  0.00     0.050 A 
HETATM   22  C   UNL     1      44.475 -18.165   7.301  1.00  0.00     0.008 A 
HETATM   23  C   UNL     1      44.660 -17.575   6.017  1.00  0.00     0.017 A 
ENDBRANCH  12  19
ENDBRANCH  11  12
ENDBRANCH   8  11
ENDBRANCH   2   7
BRANCH   1  24
HETATM   24  S   UNL     1      40.627 -10.707   1.451  1.00  0.00    -0.120 SA
BRANCH  24  25
HETATM   25  C   UNL     1      41.141 -10.391  -0.280  1.00  0.00     0.182 C 
BRANCH  25  26
HETATM   26  C   UNL     1      42.513 -10.968  -0.608  1.00  0.00     0.231 C 
HETATM   27  N   UNL     1      42.641 -12.247  -1.071  1.00  0.00    -0.327 N 
HETATM   28  H   UNL     1      43.583 -12.599  -0.927  1.00  0.00     0.169 HD
HETATM   29  O   UNL     1      43.555 -10.378  -0.307  1.00  0.00    -0.272 OA
BRANCH  27  30
HETATM   30  C   UNL     1      41.773 -13.106  -1.759  1.00  0.00     0.034 A 
HETATM   31  C   UNL     1      41.154 -12.785  -2.966  1.00  0.00     0.030 A 
HETATM   32  C   UNL     1      40.355 -13.730  -3.624  1.00  0.00     0.009 A 
HETATM   33  C   UNL     1      40.168 -15.007  -3.086  1.00  0.00    -0.062 A 
HETATM   34  C   UNL     1      39.354 -16.038  -3.811  1.00  0.00     0.048 C 
HETATM   35  C   UNL     1      40.817 -15.338  -1.894  1.00  0.00     0.009 A 
HETATM   36  C   UNL     1      41.621 -14.399  -1.244  1.00  0.00     0.030 A 
ENDBRANCH  27  30
ENDBRANCH  25  26
ENDBRANCH  24  25
ENDBRANCH   1  24
TORSDOF 9
ENDMDL
MODEL 10
REMARK VINA RESULT:      -7.6      2.320      4.051
REMARK  9 active torsions:
REMARK  status: ('A' for Active; 'I' for Inactive)
REMARK    1  A    between atoms: C_5  and  N_6 
REMARK       I    between atoms: N_6  and  C_7 
REMARK    2  A    between atoms: C_7  and  C_8 
REMARK    3  A    between atoms: C_8  and  S_9 
REMARK    4  A    between atoms: S_9  and  C_10 
REMARK    5  A    between atoms: C_11  and  C_12 
REMARK       I    between atoms: C_12  and  N_13 
REMARK    6  A    between atoms: N_13  and  C_14 
REMARK    7  A    between atoms: C_14  and  C_15 
REMARK    8  A    between atoms: C_15  and  N_16 
REMARK    9  A    between atoms: C_15  and  C_22 
ROOT
HETATM    1  C   UNL     1      41.319 -16.217   4.187  1.00  0.00     0.016 A 
HETATM    2  C   UNL     1      42.214 -15.123   4.307  1.00  0.00     0.048 A 
HETATM    3  C   UNL     1      43.039 -14.996   5.441  1.00  0.00     0.018 A 
HETATM    4  C   UNL     1      42.951 -15.907   6.489  1.00  0.00     0.001 A 
HETATM    5  C   UNL     1      42.040 -16.951   6.410  1.00  0.00     0.001 A 
HETATM    6  C   UNL     1      41.237 -17.104   5.273  1.00  0.00     0.019 A 
ENDROOT
BRANCH   2   7
HETATM    7  C   UNL     1      42.293 -13.973   3.354  1.00  0.00     0.253 C 
HETATM    8  N   UNL     1      41.287 -13.047   3.458  1.00  0.00    -0.354 N 
HETATM    9  H   UNL     1      40.487 -13.285   4.039  1.00  0.00     0.162 HD
HETATM   10  O   UNL     1      43.274 -13.770   2.644  1.00  0.00    -0.268 OA
BRANCH   8  11
HETATM   11  C   UNL     1      41.248 -11.811   2.709  1.00  0.00     0.161 C 
BRANCH  11  12
HETATM   12  C   UNL     1      40.442 -11.823   1.373  1.00  0.00     0.245 C 
BRANCH  12  13
HETATM   13  N   UNL     1      39.601 -13.086   1.186  1.00  0.00    -0.061 N 
HETATM   14  H   UNL     1      39.967 -13.755   1.880  1.00  0.00     0.280 HD
HETATM   15  C   UNL     1      39.684 -13.864  -0.112  1.00  0.00     0.236 C 
HETATM   16  C   UNL     1      38.311 -13.723  -0.736  1.00  0.00     0.029 C 
HETATM   17  C   UNL     1      37.399 -13.745   0.473  1.00  0.00     0.029 C 
HETATM   18  C   UNL     1      38.126 -12.857   1.462  1.00  0.00     0.236 C 
ENDBRANCH  12  13
BRANCH  12  19
HETATM   19  C   UNL     1      41.214 -11.331   0.158  1.00  0.00     0.015 A 
HETATM   20  S   UNL     1      40.503 -10.353  -1.064  1.00  0.00    -0.104 SA
HETATM   21  C   UNL     1      41.940 -10.289  -1.974  1.00  0.00     0.050 A 
HETATM   22  C   UNL     1      42.947 -11.017  -1.389  1.00  0.00     0.008 A 
HETATM   23  C   UNL     1      42.532 -11.618  -0.165  1.00  0.00     0.017 A 
ENDBRANCH  12  19
ENDBRANCH  11  12
ENDBRANCH   8  11
ENDBRANCH   2   7
BRANCH   1  24
HETATM   24  S   UNL     1      40.329 -16.450   2.692  1.00  0.00    -0.120 SA
BRANCH  24  25
HETATM   25  C   UNL     1      41.203 -17.706   1.681  1.00  0.00     0.182 C 
BRANCH  25  26
HETATM   26  C   UNL     1      42.599 -17.262   1.259  1.00  0.00     0.231 C 
HETATM   27  N   UNL     1      43.708 -17.752   1.889  1.00  0.00    -0.327 N 
HETATM   28  H   UNL     1      44.511 -17.146   1.748  1.00  0.00     0.169 HD
HETATM   29  O   UNL     1      42.773 -16.329   0.471  1.00  0.00    -0.272 OA
BRANCH  27  30
HETATM   30  C   UNL     1      43.961 -18.937   2.595  1.00  0.00     0.034 A 
HETATM   31  C   UNL     1      44.074 -20.191   1.999  1.00  0.00     0.030 A 
HETATM   32  C   UNL     1      44.399 -21.315   2.771  1.00  0.00     0.009 A 
HETATM   33  C   UNL     1      44.618 -21.197   4.147  1.00  0.00    -0.062 A 
HETATM   34  C   UNL     1      45.015 -22.388   4.970  1.00  0.00     0.048 C 
HETATM   35  C   UNL     1      44.540 -19.933   4.737  1.00  0.00     0.009 A 
HETATM   36  C   UNL     1      44.225 -18.812   3.965  1.00  0.00     0.030 A 
ENDBRANCH  27  30
ENDBRANCH  25  26
ENDBRANCH  24  25
ENDBRANCH   1  24
TORSDOF 9
ENDMDL
