MODEL 1
REMARK VINA RESULT:      -7.9      0.000      0.000
REMARK  12 active torsions:
REMARK  status: ('A' for Active; 'I' for Inactive)
REMARK    1  A    between atoms: C_2  and  N_3 
REMARK    2  A    between atoms: N_3  and  C_5 
REMARK    3  A    between atoms: N_3  and  C_37 
REMARK    4  A    between atoms: C_5  and  C_6 
REMARK    5  A    between atoms: C_6  and  N_7 
REMARK    6  A    between atoms: N_7  and  C_8 
REMARK    7  A    between atoms: N_7  and  C_21 
REMARK    8  A    between atoms: C_8  and  N_9 
REMARK    9  A    between atoms: N_9  and  C_10 
REMARK   10  A    between atoms: C_11  and  C_12 
REMARK   11  A    between atoms: C_12  and  O_13 
REMARK   12  A    between atoms: C_21  and  C_22 
ROOT
HETATM    1  N   UNL     1      41.327 -13.930   3.144  1.00  0.00    -0.352 N 
ENDROOT
BRANCH   1   2
HETATM    2  C   UNL     1      40.163 -14.593   2.526  1.00  0.00     0.153 C 
BRANCH   2   3
HETATM    3  C   UNL     1      39.420 -13.709   1.501  1.00  0.00     0.254 C 
BRANCH   3   4
HETATM    4  N   UNL     1      40.171 -13.617   0.166  1.00  0.00    -0.070 N 
HETATM    5  H   UNL     1      40.917 -14.324   0.178  1.00  0.00     0.279 HD
BRANCH   4   6
HETATM    6  C   UNL     1      40.829 -12.256  -0.013  1.00  0.00     0.230 C 
HETATM    7  C   UNL     1      42.118 -12.371  -0.809  1.00  0.00     0.034 C 
ENDBRANCH   4   6
BRANCH   4   8
HETATM    8  C   UNL     1      39.248 -13.946  -1.006  1.00  0.00     0.230 C 
HETATM    9  C   UNL     1      37.826 -13.491  -0.719  1.00  0.00     0.034 C 
ENDBRANCH   4   8
ENDBRANCH   3   4
ENDBRANCH   2   3
ENDBRANCH   1   2
BRANCH   1  10
HETATM   10  C   UNL     1      41.239 -13.301   4.418  1.00  0.00     0.174 C 
HETATM   11  S   UNL     1      40.158 -12.061   4.783  1.00  0.00    -0.041 SA
BRANCH  10  12
HETATM   12  N   UNL     1      42.222 -13.732   5.287  1.00  0.00    -0.332 N 
HETATM   13  H   UNL     1      42.988 -13.070   5.425  1.00  0.00     0.168 HD
BRANCH  12  14
HETATM   14  C   UNL     1      42.349 -14.920   6.053  1.00  0.00     0.050 A 
HETATM   15  C   UNL     1      43.534 -15.145   6.800  1.00  0.00     0.066 A 
HETATM   16  C   UNL     1      43.685 -16.340   7.526  1.00  0.00     0.020 A 
HETATM   17  C   UNL     1      42.691 -17.315   7.501  1.00  0.00     0.001 A 
HETATM   18  C   UNL     1      41.545 -17.113   6.740  1.00  0.00     0.002 A 
HETATM   19  C   UNL     1      41.381 -15.931   6.014  1.00  0.00     0.030 A 
BRANCH  15  20
HETATM   20  C   UNL     1      44.646 -14.142   6.772  1.00  0.00     0.295 C 
HETATM   21  O   UNL     1      45.125 -13.698   5.736  1.00  0.00    -0.259 OA
BRANCH  20  22
HETATM   22  O   UNL     1      45.058 -13.827   8.025  1.00  0.00    -0.322 OA
HETATM   23  C   UNL     1      44.602 -12.558   8.498  1.00  0.00     0.213 C 
ENDBRANCH  20  22
ENDBRANCH  15  20
ENDBRANCH  12  14
ENDBRANCH  10  12
ENDBRANCH   1  10
BRANCH   1  24
HETATM   24  C   UNL     1      42.651 -14.212   2.542  1.00  0.00     0.169 C 
BRANCH  24  25
HETATM   25  C   UNL     1      42.954 -15.677   2.387  1.00  0.00     0.029 A 
HETATM   26  C   UNL     1      42.570 -16.361   1.112  1.00  0.00     0.253 A 
HETATM   27  O   UNL     1      42.059 -15.760   0.174  1.00  0.00    -0.268 OA
HETATM   28  N   UNL     1      42.839 -17.700   1.017  1.00  0.00    -0.322 N 
HETATM   29  C   UNL     1      43.378 -18.465   2.056  1.00  0.00     0.048 A 
HETATM   30  H   UNL     1      42.565 -18.145   0.149  1.00  0.00     0.169 HD
HETATM   31  C   UNL     1      43.703 -17.835   3.264  1.00  0.00    -0.006 A 
HETATM   32  C   UNL     1      43.568 -19.835   1.890  1.00  0.00     0.070 A 
HETATM   33  C   UNL     1      44.195 -18.594   4.328  1.00  0.00     0.053 A 
HETATM   34  C   UNL     1      43.489 -16.395   3.391  1.00  0.00     0.028 A 
HETATM   35  C   UNL     1      44.355 -19.971   4.176  1.00  0.00     0.103 A 
HETATM   36  C   UNL     1      44.070 -20.585   2.952  1.00  0.00     0.104 A 
HETATM   37  O   UNL     1      44.798 -20.661   5.275  1.00  0.00    -0.346 OA
HETATM   38  O   UNL     1      44.241 -21.928   2.727  1.00  0.00    -0.346 OA
HETATM   39  C   UNL     1      45.014 -22.545   3.764  1.00  0.00     0.202 C 
HETATM   40  C   UNL     1      44.559 -22.067   5.133  1.00  0.00     0.202 C 
ENDBRANCH  24  25
ENDBRANCH   1  24
TORSDOF 12
ENDMDL
MODEL 2
REMARK VINA RESULT:      -7.8      2.207      6.408
REMARK  12 active torsions:
REMARK  status: ('A' for Active; 'I' for Inactive)
REMARK    1  A    between atoms: C_2  and  N_3 
REMARK    2  A    between atoms: N_3  and  C_5 
REMARK    3  A    between atoms: N_3  and  C_37 
REMARK    4  A    between atoms: C_5  and  C_6 
REMARK    5  A    between atoms: C_6  and  N_7 
REMARK    6  A    between atoms: N_7  and  C_8 
REMARK    7  A    between atoms: N_7  and  C_21 
REMARK    8  A    between atoms: C_8  and  N_9 
REMARK    9  A    between atoms: N_9  and  C_10 
REMARK   10  A    between atoms: C_11  and  C_12 
REMARK   11  A    between atoms: C_12  and  O_13 
REMARK   12  A    between atoms: C_21  and  C_22 
ROOT
HETATM    1  N   UNL     1      42.284 -16.127   2.748  1.00  0.00    -0.352 N 
ENDROOT
BRANCH   1   2
HETATM    2  C   UNL     1      41.509 -16.339   1.512  1.00  0.00     0.153 C 
BRANCH   2   3
HETATM    3  C   UNL     1      40.180 -15.554   1.473  1.00  0.00     0.254 C 
BRANCH   3   4
HETATM    4  N   UNL     1      39.850 -15.048   0.062  1.00  0.00    -0.070 N 
HETATM    5  H   UNL     1      39.280 -15.766  -0.403  1.00  0.00     0.279 HD
BRANCH   4   6
HETATM    6  C   UNL     1      41.110 -14.850  -0.769  1.00  0.00     0.230 C 
HETATM    7  C   UNL     1      40.970 -15.495  -2.137  1.00  0.00     0.034 C 
ENDBRANCH   4   6
BRANCH   4   8
HETATM    8  C   UNL     1      39.017 -13.769   0.120  1.00  0.00     0.230 C 
HETATM    9  C   UNL     1      37.677 -14.026   0.789  1.00  0.00     0.034 C 
ENDBRANCH   4   8
ENDBRANCH   3   4
ENDBRANCH   2   3
ENDBRANCH   1   2
BRANCH   1  10
HETATM   10  C   UNL     1      42.460 -17.163   3.707  1.00  0.00     0.174 C 
HETATM   11  S   UNL     1      41.432 -17.418   5.017  1.00  0.00    -0.041 SA
BRANCH  10  12
HETATM   12  N   UNL     1      43.637 -17.861   3.519  1.00  0.00    -0.332 N 
HETATM   13  H   UNL     1      44.480 -17.283   3.520  1.00  0.00     0.168 HD
BRANCH  12  14
HETATM   14  C   UNL     1      43.896 -19.247   3.355  1.00  0.00     0.050 A 
HETATM   15  C   UNL     1      44.410 -19.993   4.446  1.00  0.00     0.066 A 
HETATM   16  C   UNL     1      44.711 -21.358   4.279  1.00  0.00     0.020 A 
HETATM   17  C   UNL     1      44.527 -21.978   3.045  1.00  0.00     0.001 A 
HETATM   18  C   UNL     1      44.058 -21.239   1.965  1.00  0.00     0.002 A 
HETATM   19  C   UNL     1      43.756 -19.883   2.116  1.00  0.00     0.030 A 
BRANCH  15  20
HETATM   20  C   UNL     1      44.689 -19.323   5.756  1.00  0.00     0.295 C 
HETATM   21  O   UNL     1      45.480 -18.395   5.882  1.00  0.00    -0.259 OA
BRANCH  20  22
HETATM   22  O   UNL     1      43.983 -19.894   6.763  1.00  0.00    -0.322 OA
HETATM   23  C   UNL     1      43.971 -19.142   7.979  1.00  0.00     0.213 C 
ENDBRANCH  20  22
ENDBRANCH  15  20
ENDBRANCH  12  14
ENDBRANCH  10  12
ENDBRANCH   1  10
BRANCH   1  24
HETATM   24  C   UNL     1      43.126 -14.908   2.804  1.00  0.00     0.169 C 
BRANCH  24  25
HETATM   25  C   UNL     1      42.972 -14.115   4.073  1.00  0.00     0.029 A 
HETATM   26  C   UNL     1      41.918 -13.055   4.137  1.00  0.00     0.253 A 
HETATM   27  O   UNL     1      41.145 -12.842   3.209  1.00  0.00    -0.268 OA
HETATM   28  N   UNL     1      41.824 -12.338   5.300  1.00  0.00    -0.322 N 
HETATM   29  C   UNL     1      42.692 -12.491   6.385  1.00  0.00     0.048 A 
HETATM   30  H   UNL     1      41.108 -11.621   5.319  1.00  0.00     0.169 HD
HETATM   31  C   UNL     1      43.705 -13.455   6.313  1.00  0.00    -0.006 A 
HETATM   32  C   UNL     1      42.556 -11.678   7.508  1.00  0.00     0.070 A 
HETATM   33  C   UNL     1      44.611 -13.584   7.367  1.00  0.00     0.053 A 
HETATM   34  C   UNL     1      43.807 -14.286   5.115  1.00  0.00     0.028 A 
HETATM   35  C   UNL     1      44.499 -12.750   8.479  1.00  0.00     0.103 A 
HETATM   36  C   UNL     1      43.457 -11.820   8.562  1.00  0.00     0.104 A 
HETATM   37  O   UNL     1      45.449 -12.900   9.456  1.00  0.00    -0.346 OA
HETATM   38  O   UNL     1      43.270 -10.996   9.643  1.00  0.00    -0.346 OA
HETATM   39  C   UNL     1      44.057 -11.410  10.768  1.00  0.00     0.202 C 
HETATM   40  C   UNL     1      45.469 -11.768  10.335  1.00  0.00     0.202 C 
ENDBRANCH  24  25
ENDBRANCH   1  24
TORSDOF 12
ENDMDL
MODEL 3
REMARK VINA RESULT:      -7.6      2.967      7.191
REMARK  12 active torsions:
REMARK  status: ('A' for Active; 'I' for Inactive)
REMARK    1  A    between atoms: C_2  and  N_3 
REMARK    2  A    between atoms: N_3  and  C_5 
REMARK    3  A    between atoms: N_3  and  C_37 
REMARK    4  A    between atoms: C_5  and  C_6 
REMARK    5  A    between atoms: C_6  and  N_7 
REMARK    6  A    between atoms: N_7  and  C_8 
REMARK    7  A    between atoms: N_7  and  C_21 
REMARK    8  A    between atoms: C_8  and  N_9 
REMARK    9  A    between atoms: N_9  and  C_10 
REMARK   10  A    between atoms: C_11  and  C_12 
REMARK   11  A    between atoms: C_12  and  O_13 
REMARK   12  A    between atoms: C_21  and  C_22 
ROOT
HETATM    1  N   UNL     1      42.896 -15.992   2.699  1.00  0.00    -0.352 N 
ENDROOT
BRANCH   1   2
HETATM    2  C   UNL     1      42.565 -16.066   1.264  1.00  0.00     0.153 C 
BRANCH   2   3
HETATM    3  C   UNL     1      41.056 -16.241   0.986  1.00  0.00     0.254 C 
BRANCH   3   4
HETATM    4  N   UNL     1      40.504 -15.133   0.079  1.00  0.00    -0.070 N 
HETATM    5  H   UNL     1      40.112 -15.582  -0.760  1.00  0.00     0.279 HD
BRANCH   4   6
HETATM    6  C   UNL     1      41.605 -14.186  -0.379  1.00  0.00     0.230 C 
HETATM    7  C   UNL     1      41.161 -12.737  -0.268  1.00  0.00     0.034 C 
ENDBRANCH   4   6
BRANCH   4   8
HETATM    8  C   UNL     1      39.370 -14.375   0.766  1.00  0.00     0.230 C 
HETATM    9  C   UNL     1      39.165 -14.879   2.185  1.00  0.00     0.034 C 
ENDBRANCH   4   8
ENDBRANCH   3   4
ENDBRANCH   2   3
ENDBRANCH   1   2
BRANCH   1  10
HETATM   10  C   UNL     1      42.775 -17.123   3.553  1.00  0.00     0.174 C 
HETATM   11  S   UNL     1      41.426 -17.437   4.513  1.00  0.00    -0.041 SA
BRANCH  10  12
HETATM   12  N   UNL     1      43.936 -17.870   3.607  1.00  0.00    -0.332 N 
HETATM   13  H   UNL     1      44.797 -17.323   3.546  1.00  0.00     0.168 HD
BRANCH  12  14
HETATM   14  C   UNL     1      44.153 -19.263   3.763  1.00  0.00     0.050 A 
HETATM   15  C   UNL     1      44.498 -19.776   5.040  1.00  0.00     0.066 A 
HETATM   16  C   UNL     1      44.758 -21.150   5.195  1.00  0.00     0.020 A 
HETATM   17  C   UNL     1      44.701 -22.009   4.099  1.00  0.00     0.001 A 
HETATM   18  C   UNL     1      44.400 -21.503   2.840  1.00  0.00     0.002 A 
HETATM   19  C   UNL     1      44.139 -20.141   2.673  1.00  0.00     0.030 A 
BRANCH  15  20
HETATM   20  C   UNL     1      44.642 -18.853   6.211  1.00  0.00     0.295 C 
HETATM   21  O   UNL     1      45.574 -18.068   6.337  1.00  0.00    -0.259 OA
BRANCH  20  22
HETATM   22  O   UNL     1      43.637 -19.027   7.105  1.00  0.00    -0.322 OA
HETATM   23  C   UNL     1      43.266 -17.846   7.818  1.00  0.00     0.213 C 
ENDBRANCH  20  22
ENDBRANCH  15  20
ENDBRANCH  12  14
ENDBRANCH  10  12
ENDBRANCH   1  10
BRANCH   1  24
HETATM   24  C   UNL     1      43.651 -14.796   3.147  1.00  0.00     0.169 C 
BRANCH  24  25
HETATM   25  C   UNL     1      42.828 -13.810   3.929  1.00  0.00     0.029 A 
HETATM   26  C   UNL     1      42.800 -13.918   5.422  1.00  0.00     0.253 A 
HETATM   27  O   UNL     1      43.460 -14.753   6.031  1.00  0.00    -0.268 OA
HETATM   28  N   UNL     1      42.021 -13.019   6.098  1.00  0.00    -0.322 N 
HETATM   29  C   UNL     1      41.207 -12.067   5.477  1.00  0.00     0.048 A 
HETATM   30  H   UNL     1      42.012 -13.114   7.107  1.00  0.00     0.169 HD
HETATM   31  C   UNL     1      41.200 -11.989   4.079  1.00  0.00    -0.006 A 
HETATM   32  C   UNL     1      40.403 -11.227   6.244  1.00  0.00     0.070 A 
HETATM   33  C   UNL     1      40.354 -11.078   3.442  1.00  0.00     0.053 A 
HETATM   34  C   UNL     1      42.062 -12.890   3.315  1.00  0.00     0.028 A 
HETATM   35  C   UNL     1      39.524 -10.258   4.206  1.00  0.00     0.103 A 
HETATM   36  C   UNL     1      39.569 -10.312   5.603  1.00  0.00     0.104 A 
HETATM   37  O   UNL     1      38.686  -9.422   3.515  1.00  0.00    -0.346 OA
HETATM   38  O   UNL     1      38.806  -9.508   6.411  1.00  0.00    -0.346 OA
HETATM   39  C   UNL     1      38.210  -8.430   5.676  1.00  0.00     0.202 C 
HETATM   40  C   UNL     1      37.638  -8.928   4.359  1.00  0.00     0.202 C 
ENDBRANCH  24  25
ENDBRANCH   1  24
TORSDOF 12
ENDMDL
MODEL 4
REMARK VINA RESULT:      -7.6      2.923      7.052
REMARK  12 active torsions:
REMARK  status: ('A' for Active; 'I' for Inactive)
REMARK    1  A    between atoms: C_2  and  N_3 
REMARK    2  A    between atoms: N_3  and  C_5 
REMARK    3  A    between atoms: N_3  and  C_37 
REMARK    4  A    between atoms: C_5  and  C_6 
REMARK    5  A    between atoms: C_6  and  N_7 
REMARK    6  A    between atoms: N_7  and  C_8 
REMARK    7  A    between atoms: N_7  and  C_21 
REMARK    8  A    between atoms: C_8  and  N_9 
REMARK    9  A    between atoms: N_9  and  C_10 
REMARK   10  A    between atoms: C_11  and  C_12 
REMARK   11  A    between atoms: C_12  and  O_13 
REMARK   12  A    between atoms: C_21  and  C_22 
ROOT
HETATM    1  N   UNL     1      41.889 -16.382   2.877  1.00  0.00    -0.352 N 
ENDROOT
BRANCH   1   2
HETATM    2  C   UNL     1      40.912 -16.598   1.794  1.00  0.00     0.153 C 
BRANCH   2   3
HETATM    3  C   UNL     1      41.452 -16.236   0.393  1.00  0.00     0.254 C 
BRANCH   3   4
HETATM    4  N   UNL     1      40.420 -15.465  -0.441  1.00  0.00    -0.070 N 
HETATM    5  H   UNL     1      39.732 -16.144  -0.793  1.00  0.00     0.279 HD
BRANCH   4   6
HETATM    6  C   UNL     1      41.065 -14.796  -1.646  1.00  0.00     0.230 C 
HETATM    7  C   UNL     1      40.833 -15.605  -2.912  1.00  0.00     0.034 C 
ENDBRANCH   4   6
BRANCH   4   8
HETATM    8  C   UNL     1      39.665 -14.453   0.418  1.00  0.00     0.230 C 
HETATM    9  C   UNL     1      38.445 -13.923  -0.316  1.00  0.00     0.034 C 
ENDBRANCH   4   8
ENDBRANCH   3   4
ENDBRANCH   2   3
ENDBRANCH   1   2
BRANCH   1  10
HETATM   10  C   UNL     1      42.200 -17.403   3.818  1.00  0.00     0.174 C 
HETATM   11  S   UNL     1      41.298 -17.710   5.207  1.00  0.00    -0.041 SA
BRANCH  10  12
HETATM   12  N   UNL     1      43.396 -18.034   3.534  1.00  0.00    -0.332 N 
HETATM   13  H   UNL     1      44.218 -17.430   3.580  1.00  0.00     0.168 HD
BRANCH  12  14
HETATM   14  C   UNL     1      43.696 -19.385   3.219  1.00  0.00     0.050 A 
HETATM   15  C   UNL     1      44.230 -20.233   4.223  1.00  0.00     0.066 A 
HETATM   16  C   UNL     1      44.572 -21.561   3.907  1.00  0.00     0.020 A 
HETATM   17  C   UNL     1      44.411 -22.044   2.611  1.00  0.00     0.001 A 
HETATM   18  C   UNL     1      43.923 -21.205   1.617  1.00  0.00     0.002 A 
HETATM   19  C   UNL     1      43.579 -19.884   1.916  1.00  0.00     0.030 A 
BRANCH  15  20
HETATM   20  C   UNL     1      44.484 -19.704   5.601  1.00  0.00     0.295 C 
HETATM   21  O   UNL     1      43.977 -20.182   6.609  1.00  0.00    -0.259 OA
BRANCH  20  22
HETATM   22  O   UNL     1      45.312 -18.630   5.573  1.00  0.00    -0.322 OA
HETATM   23  C   UNL     1      45.177 -17.749   6.690  1.00  0.00     0.213 C 
ENDBRANCH  20  22
ENDBRANCH  15  20
ENDBRANCH  12  14
ENDBRANCH  10  12
ENDBRANCH   1  10
BRANCH   1  24
HETATM   24  C   UNL     1      42.756 -15.184   2.762  1.00  0.00     0.169 C 
BRANCH  24  25
HETATM   25  C   UNL     1      42.115 -13.915   3.252  1.00  0.00     0.029 A 
HETATM   26  C   UNL     1      42.146 -12.706   2.370  1.00  0.00     0.253 A 
HETATM   27  O   UNL     1      42.634 -12.727   1.245  1.00  0.00    -0.268 OA
HETATM   28  N   UNL     1      41.574 -11.562   2.859  1.00  0.00    -0.322 N 
HETATM   29  C   UNL     1      41.037 -11.444   4.144  1.00  0.00     0.048 A 
HETATM   30  H   UNL     1      41.612 -10.755   2.248  1.00  0.00     0.169 HD
HETATM   31  C   UNL     1      41.042 -12.563   4.987  1.00  0.00    -0.006 A 
HETATM   32  C   UNL     1      40.525 -10.224   4.579  1.00  0.00     0.070 A 
HETATM   33  C   UNL     1      40.556 -12.447   6.290  1.00  0.00     0.053 A 
HETATM   34  C   UNL     1      41.588 -13.823   4.486  1.00  0.00     0.028 A 
HETATM   35  C   UNL     1      40.073 -11.219   6.740  1.00  0.00     0.103 A 
HETATM   36  C   UNL     1      40.030 -10.118   5.877  1.00  0.00     0.104 A 
HETATM   37  O   UNL     1      39.654 -11.166   8.044  1.00  0.00    -0.346 OA
HETATM   38  O   UNL     1      39.534  -8.894   6.246  1.00  0.00    -0.346 OA
HETATM   39  C   UNL     1      38.804  -8.966   7.478  1.00  0.00     0.202 C 
HETATM   40  C   UNL     1      39.551  -9.810   8.499  1.00  0.00     0.202 C 
ENDBRANCH  24  25
ENDBRANCH   1  24
TORSDOF 12
ENDMDL
MODEL 5
REMARK VINA RESULT:      -7.5      2.234      6.742
REMARK  12 active torsions:
REMARK  status: ('A' for Active; 'I' for Inactive)
REMARK    1  A    between atoms: C_2  and  N_3 
REMARK    2  A    between atoms: N_3  and  C_5 
REMARK    3  A    between atoms: N_3  and  C_37 
REMARK    4  A    between atoms: C_5  and  C_6 
REMARK    5  A    between atoms: C_6  and  N_7 
REMARK    6  A    between atoms: N_7  and  C_8 
REMARK    7  A    between atoms: N_7  and  C_21 
REMARK    8  A    between atoms: C_8  and  N_9 
REMARK    9  A    between atoms: N_9  and  C_10 
REMARK   10  A    between atoms: C_11  and  C_12 
REMARK   11  A    between atoms: C_12  and  O_13 
REMARK   12  A    between atoms: C_21  and  C_22 
ROOT
HETATM    1  N   UNL     1      40.918 -14.135   1.535  1.00  0.00    -0.352 N 
ENDROOT
BRANCH   1   2
HETATM    2  C   UNL     1      39.998 -14.172   2.687  1.00  0.00     0.153 C 
BRANCH   2   3
HETATM    3  C   UNL     1      40.144 -12.960   3.634  1.00  0.00     0.254 C 
BRANCH   3   4
HETATM    4  N   UNL     1      40.619 -13.375   5.032  1.00  0.00    -0.070 N 
HETATM    5  H   UNL     1      41.574 -13.748   4.941  1.00  0.00     0.279 HD
BRANCH   4   6
HETATM    6  C   UNL     1      39.748 -14.479   5.614  1.00  0.00     0.230 C 
HETATM    7  C   UNL     1      40.590 -15.655   6.078  1.00  0.00     0.034 C 
ENDBRANCH   4   6
BRANCH   4   8
HETATM    8  C   UNL     1      40.687 -12.170   5.968  1.00  0.00     0.230 C 
HETATM    9  C   UNL     1      39.465 -11.283   5.798  1.00  0.00     0.034 C 
ENDBRANCH   4   8
ENDBRANCH   3   4
ENDBRANCH   2   3
ENDBRANCH   1   2
BRANCH   1  10
HETATM   10  C   UNL     1      40.473 -13.764   0.235  1.00  0.00     0.174 C 
HETATM   11  S   UNL     1      38.851 -13.608  -0.196  1.00  0.00    -0.041 SA
BRANCH  10  12
HETATM   12  N   UNL     1      41.511 -13.668  -0.670  1.00  0.00    -0.332 N 
HETATM   13  H   UNL     1      42.141 -14.472  -0.683  1.00  0.00     0.168 HD
BRANCH  12  14
HETATM   14  C   UNL     1      41.849 -12.663  -1.614  1.00  0.00     0.050 A 
HETATM   15  C   UNL     1      41.591 -12.886  -2.991  1.00  0.00     0.066 A 
HETATM   16  C   UNL     1      41.963 -11.913  -3.938  1.00  0.00     0.020 A 
HETATM   17  C   UNL     1      42.602 -10.742  -3.536  1.00  0.00     0.001 A 
HETATM   18  C   UNL     1      42.888 -10.538  -2.192  1.00  0.00     0.002 A 
HETATM   19  C   UNL     1      42.525 -11.495  -1.241  1.00  0.00     0.030 A 
BRANCH  15  20
HETATM   20  C   UNL     1      40.979 -14.174  -3.447  1.00  0.00     0.295 C 
HETATM   21  O   UNL     1      41.612 -15.217  -3.559  1.00  0.00    -0.259 OA
BRANCH  20  22
HETATM   22  O   UNL     1      39.663 -14.020  -3.738  1.00  0.00    -0.322 OA
HETATM   23  C   UNL     1      38.925 -15.241  -3.811  1.00  0.00     0.213 C 
ENDBRANCH  20  22
ENDBRANCH  15  20
ENDBRANCH  12  14
ENDBRANCH  10  12
ENDBRANCH   1  10
BRANCH   1  24
HETATM   24  C   UNL     1      42.368 -14.191   1.838  1.00  0.00     0.169 C 
BRANCH  24  25
HETATM   25  C   UNL     1      42.805 -15.467   2.505  1.00  0.00     0.029 A 
HETATM   26  C   UNL     1      43.355 -15.401   3.895  1.00  0.00     0.253 A 
HETATM   27  O   UNL     1      43.419 -14.352   4.526  1.00  0.00    -0.268 OA
HETATM   28  N   UNL     1      43.765 -16.579   4.460  1.00  0.00    -0.322 N 
HETATM   29  C   UNL     1      43.765 -17.808   3.793  1.00  0.00     0.048 A 
HETATM   30  H   UNL     1      44.140 -16.511   5.399  1.00  0.00     0.169 HD
HETATM   31  C   UNL     1      43.287 -17.866   2.478  1.00  0.00    -0.006 A 
HETATM   32  C   UNL     1      44.253 -18.948   4.428  1.00  0.00     0.070 A 
HETATM   33  C   UNL     1      43.328 -19.075   1.782  1.00  0.00     0.053 A 
HETATM   34  C   UNL     1      42.783 -16.644   1.854  1.00  0.00     0.028 A 
HETATM   35  C   UNL     1      43.846 -20.211   2.402  1.00  0.00     0.103 A 
HETATM   36  C   UNL     1      44.280 -20.155   3.731  1.00  0.00     0.104 A 
HETATM   37  O   UNL     1      43.899 -21.353   1.645  1.00  0.00    -0.346 OA
HETATM   38  O   UNL     1      44.766 -21.243   4.410  1.00  0.00    -0.346 OA
HETATM   39  C   UNL     1      44.490 -22.467   3.716  1.00  0.00     0.202 C 
HETATM   40  C   UNL     1      44.779 -22.321   2.231  1.00  0.00     0.202 C 
ENDBRANCH  24  25
ENDBRANCH   1  24
TORSDOF 12
ENDMDL
MODEL 6
REMARK VINA RESULT:      -7.5      3.388      7.414
REMARK  12 active torsions:
REMARK  status: ('A' for Active; 'I' for Inactive)
REMARK    1  A    between atoms: C_2  and  N_3 
REMARK    2  A    between atoms: N_3  and  C_5 
REMARK    3  A    between atoms: N_3  and  C_37 
REMARK    4  A    between atoms: C_5  and  C_6 
REMARK    5  A    between atoms: C_6  and  N_7 
REMARK    6  A    between atoms: N_7  and  C_8 
REMARK    7  A    between atoms: N_7  and  C_21 
REMARK    8  A    between atoms: C_8  and  N_9 
REMARK    9  A    between atoms: N_9  and  C_10 
REMARK   10  A    between atoms: C_11  and  C_12 
REMARK   11  A    between atoms: C_12  and  O_13 
REMARK   12  A    between atoms: C_21  and  C_22 
ROOT
HETATM    1  N   UNL     1      41.511 -15.209   2.524  1.00  0.00    -0.352 N 
ENDROOT
BRANCH   1   2
HETATM    2  C   UNL     1      41.697 -14.819   1.114  1.00  0.00     0.153 C 
BRANCH   2   3
HETATM    3  C   UNL     1      41.312 -15.928   0.110  1.00  0.00     0.254 C 
BRANCH   3   4
HETATM    4  N   UNL     1      40.353 -15.417  -0.974  1.00  0.00    -0.070 N 
HETATM    5  H   UNL     1      39.500 -15.989  -0.931  1.00  0.00     0.279 HD
BRANCH   4   6
HETATM    6  C   UNL     1      40.948 -15.579  -2.365  1.00  0.00     0.230 C 
HETATM    7  C   UNL     1      39.859 -15.612  -3.425  1.00  0.00     0.034 C 
ENDBRANCH   4   6
BRANCH   4   8
HETATM    8  C   UNL     1      39.947 -13.969  -0.709  1.00  0.00     0.230 C 
HETATM    9  C   UNL     1      38.474 -13.878  -0.345  1.00  0.00     0.034 C 
ENDBRANCH   4   8
ENDBRANCH   3   4
ENDBRANCH   2   3
ENDBRANCH   1   2
BRANCH   1  10
HETATM   10  C   UNL     1      42.617 -15.429   3.391  1.00  0.00     0.174 C 
HETATM   11  S   UNL     1      43.904 -14.355   3.566  1.00  0.00    -0.041 SA
BRANCH  10  12
HETATM   12  N   UNL     1      42.585 -16.677   3.980  1.00  0.00    -0.332 N 
HETATM   13  H   UNL     1      42.043 -16.727   4.845  1.00  0.00     0.168 HD
BRANCH  12  14
HETATM   14  C   UNL     1      43.146 -17.920   3.586  1.00  0.00     0.050 A 
HETATM   15  C   UNL     1      43.919 -18.662   4.516  1.00  0.00     0.066 A 
HETATM   16  C   UNL     1      44.515 -19.874   4.120  1.00  0.00     0.020 A 
HETATM   17  C   UNL     1      44.370 -20.341   2.815  1.00  0.00     0.001 A 
HETATM   18  C   UNL     1      43.643 -19.598   1.893  1.00  0.00     0.002 A 
HETATM   19  C   UNL     1      43.046 -18.393   2.273  1.00  0.00     0.030 A 
BRANCH  15  20
HETATM   20  C   UNL     1      44.152 -18.133   5.898  1.00  0.00     0.295 C 
HETATM   21  O   UNL     1      45.260 -17.829   6.323  1.00  0.00    -0.259 OA
BRANCH  20  22
HETATM   22  O   UNL     1      42.996 -18.068   6.603  1.00  0.00    -0.322 OA
HETATM   23  C   UNL     1      43.024 -17.159   7.705  1.00  0.00     0.213 C 
ENDBRANCH  20  22
ENDBRANCH  15  20
ENDBRANCH  12  14
ENDBRANCH  10  12
ENDBRANCH   1  10
BRANCH   1  24
HETATM   24  C   UNL     1      40.145 -15.057   3.082  1.00  0.00     0.169 C 
BRANCH  24  25
HETATM   25  C   UNL     1      40.057 -14.089   4.230  1.00  0.00     0.029 A 
HETATM   26  C   UNL     1      40.102 -14.623   5.627  1.00  0.00     0.253 A 
HETATM   27  O   UNL     1      40.256 -15.816   5.869  1.00  0.00    -0.268 OA
HETATM   28  N   UNL     1      39.994 -13.715   6.646  1.00  0.00    -0.322 N 
HETATM   29  C   UNL     1      39.774 -12.348   6.455  1.00  0.00     0.048 A 
HETATM   30  H   UNL     1      40.021 -14.099   7.583  1.00  0.00     0.169 HD
HETATM   31  C   UNL     1      39.692 -11.851   5.148  1.00  0.00    -0.006 A 
HETATM   32  C   UNL     1      39.621 -11.504   7.553  1.00  0.00     0.070 A 
HETATM   33  C   UNL     1      39.422 -10.496   4.941  1.00  0.00     0.053 A 
HETATM   34  C   UNL     1      39.861 -12.774   4.027  1.00  0.00     0.028 A 
HETATM   35  C   UNL     1      39.236  -9.655   6.037  1.00  0.00     0.103 A 
HETATM   36  C   UNL     1      39.364 -10.151   7.339  1.00  0.00     0.104 A 
HETATM   37  O   UNL     1      38.928  -8.348   5.760  1.00  0.00    -0.346 OA
HETATM   38  O   UNL     1      39.228  -9.369   8.458  1.00  0.00    -0.346 OA
HETATM   39  C   UNL     1      39.250  -7.972   8.134  1.00  0.00     0.202 C 
HETATM   40  C   UNL     1      38.389  -7.688   6.914  1.00  0.00     0.202 C 
ENDBRANCH  24  25
ENDBRANCH   1  24
TORSDOF 12
ENDMDL
MODEL 7
REMARK VINA RESULT:      -7.4      2.133      6.607
REMARK  12 active torsions:
REMARK  status: ('A' for Active; 'I' for Inactive)
REMARK    1  A    between atoms: C_2  and  N_3 
REMARK    2  A    between atoms: N_3  and  C_5 
REMARK    3  A    between atoms: N_3  and  C_37 
REMARK    4  A    between atoms: C_5  and  C_6 
REMARK    5  A    between atoms: C_6  and  N_7 
REMARK    6  A    between atoms: N_7  and  C_8 
REMARK    7  A    between atoms: N_7  and  C_21 
REMARK    8  A    between atoms: C_8  and  N_9 
REMARK    9  A    between atoms: N_9  and  C_10 
REMARK   10  A    between atoms: C_11  and  C_12 
REMARK   11  A    between atoms: C_12  and  O_13 
REMARK   12  A    between atoms: C_21  and  C_22 
ROOT
HETATM    1  N   UNL     1      40.731 -14.402   1.711  1.00  0.00    -0.352 N 
ENDROOT
BRANCH   1   2
HETATM    2  C   UNL     1      39.909 -14.728   2.890  1.00  0.00     0.153 C 
BRANCH   2   3
HETATM    3  C   UNL     1      40.175 -13.811   4.103  1.00  0.00     0.254 C 
BRANCH   3   4
HETATM    4  N   UNL     1      41.179 -14.430   5.085  1.00  0.00    -0.070 N 
HETATM    5  H   UNL     1      41.781 -15.073   4.554  1.00  0.00     0.279 HD
BRANCH   4   6
HETATM    6  C   UNL     1      40.476 -15.243   6.163  1.00  0.00     0.230 C 
HETATM    7  C   UNL     1      40.841 -16.714   6.065  1.00  0.00     0.034 C 
ENDBRANCH   4   6
BRANCH   4   8
HETATM    8  C   UNL     1      42.080 -13.359   5.696  1.00  0.00     0.230 C 
HETATM    9  C   UNL     1      43.447 -13.931   6.035  1.00  0.00     0.034 C 
ENDBRANCH   4   8
ENDBRANCH   3   4
ENDBRANCH   2   3
ENDBRANCH   1   2
BRANCH   1  10
HETATM   10  C   UNL     1      40.190 -13.713   0.589  1.00  0.00     0.174 C 
HETATM   11  S   UNL     1      38.730 -12.872   0.616  1.00  0.00    -0.041 SA
BRANCH  10  12
HETATM   12  N   UNL     1      40.930 -13.914  -0.560  1.00  0.00    -0.332 N 
HETATM   13  H   UNL     1      41.170 -14.889  -0.747  1.00  0.00     0.168 HD
BRANCH  12  14
HETATM   14  C   UNL     1      41.394 -13.011  -1.552  1.00  0.00     0.050 A 
HETATM   15  C   UNL     1      41.029 -13.217  -2.907  1.00  0.00     0.066 A 
HETATM   16  C   UNL     1      41.521 -12.352  -3.902  1.00  0.00     0.020 A 
HETATM   17  C   UNL     1      42.380 -11.306  -3.570  1.00  0.00     0.001 A 
HETATM   18  C   UNL     1      42.768 -11.125  -2.248  1.00  0.00     0.002 A 
HETATM   19  C   UNL     1      42.287 -11.976  -1.250  1.00  0.00     0.030 A 
BRANCH  15  20
HETATM   20  C   UNL     1      40.172 -14.383  -3.290  1.00  0.00     0.295 C 
HETATM   21  O   UNL     1      40.554 -15.286  -4.025  1.00  0.00    -0.259 OA
BRANCH  20  22
HETATM   22  O   UNL     1      38.933 -14.286  -2.747  1.00  0.00    -0.322 OA
HETATM   23  C   UNL     1      37.874 -14.714  -3.604  1.00  0.00     0.213 C 
ENDBRANCH  20  22
ENDBRANCH  15  20
ENDBRANCH  12  14
ENDBRANCH  10  12
ENDBRANCH   1  10
BRANCH   1  24
HETATM   24  C   UNL     1      42.200 -14.535   1.866  1.00  0.00     0.169 C 
BRANCH  24  25
HETATM   25  C   UNL     1      42.675 -15.956   2.004  1.00  0.00     0.029 A 
HETATM   26  C   UNL     1      42.566 -16.870   0.824  1.00  0.00     0.253 A 
HETATM   27  O   UNL     1      42.147 -16.489  -0.264  1.00  0.00    -0.268 OA
HETATM   28  N   UNL     1      42.985 -18.161   0.994  1.00  0.00    -0.322 N 
HETATM   29  C   UNL     1      43.434 -18.684   2.211  1.00  0.00     0.048 A 
HETATM   30  H   UNL     1      42.897 -18.764   0.185  1.00  0.00     0.169 HD
HETATM   31  C   UNL     1      43.500 -17.841   3.328  1.00  0.00    -0.006 A 
HETATM   32  C   UNL     1      43.789 -20.027   2.307  1.00  0.00     0.070 A 
HETATM   33  C   UNL     1      43.897 -18.360   4.561  1.00  0.00     0.053 A 
HETATM   34  C   UNL     1      43.119 -16.438   3.179  1.00  0.00     0.028 A 
HETATM   35  C   UNL     1      44.223 -19.712   4.669  1.00  0.00     0.103 A 
HETATM   36  C   UNL     1      44.197 -20.537   3.538  1.00  0.00     0.104 A 
HETATM   37  O   UNL     1      44.559 -20.164   5.918  1.00  0.00    -0.346 OA
HETATM   38  O   UNL     1      44.539 -21.864   3.570  1.00  0.00    -0.346 OA
HETATM   39  C   UNL     1      45.203 -22.213   4.792  1.00  0.00     0.202 C 
HETATM   40  C   UNL     1      44.493 -21.594   5.986  1.00  0.00     0.202 C 
ENDBRANCH  24  25
ENDBRANCH   1  24
TORSDOF 12
ENDMDL
MODEL 8
REMARK VINA RESULT:      -7.3      2.180      3.080
REMARK  12 active torsions:
REMARK  status: ('A' for Active; 'I' for Inactive)
REMARK    1  A    between atoms: C_2  and  N_3 
REMARK    2  A    between atoms: N_3  and  C_5 
REMARK    3  A    between atoms: N_3  and  C_37 
REMARK    4  A    between atoms: C_5  and  C_6 
REMARK    5  A    between atoms: C_6  and  N_7 
REMARK    6  A    between atoms: N_7  and  C_8 
REMARK    7  A    between atoms: N_7  and  C_21 
REMARK    8  A    between atoms: C_8  and  N_9 
REMARK    9  A    between atoms: N_9  and  C_10 
REMARK   10  A    between atoms: C_11  and  C_12 
REMARK   11  A    between atoms: C_12  and  O_13 
REMARK   12  A    between atoms: C_21  and  C_22 
ROOT
HETATM    1  N   UNL     1      40.034 -13.331   1.339  1.00  0.00    -0.352 N 
ENDROOT
BRANCH   1   2
HETATM    2  C   UNL     1      40.653 -12.920   0.064  1.00  0.00     0.153 C 
BRANCH   2   3
HETATM    3  C   UNL     1      39.629 -12.616  -1.050  1.00  0.00     0.254 C 
BRANCH   3   4
HETATM    4  N   UNL     1      39.496 -13.776  -2.045  1.00  0.00    -0.070 N 
HETATM    5  H   UNL     1      39.977 -14.591  -1.641  1.00  0.00     0.279 HD
BRANCH   4   6
HETATM    6  C   UNL     1      40.170 -13.455  -3.371  1.00  0.00     0.230 C 
HETATM    7  C   UNL     1      41.570 -14.042  -3.431  1.00  0.00     0.034 C 
ENDBRANCH   4   6
BRANCH   4   8
HETATM    8  C   UNL     1      38.032 -14.162  -2.245  1.00  0.00     0.230 C 
HETATM    9  C   UNL     1      37.819 -14.783  -3.616  1.00  0.00     0.034 C 
ENDBRANCH   4   8
ENDBRANCH   3   4
ENDBRANCH   2   3
ENDBRANCH   1   2
BRANCH   1  10
HETATM   10  C   UNL     1      39.649 -12.380   2.323  1.00  0.00     0.174 C 
HETATM   11  S   UNL     1      38.142 -11.625   2.365  1.00  0.00    -0.041 SA
BRANCH  10  12
HETATM   12  N   UNL     1      40.688 -12.047   3.170  1.00  0.00    -0.332 N 
HETATM   13  H   UNL     1      40.737 -11.056   3.414  1.00  0.00     0.168 HD
BRANCH  12  14
HETATM   14  C   UNL     1      41.688 -12.839   3.792  1.00  0.00     0.050 A 
HETATM   15  C   UNL     1      41.569 -13.155   5.170  1.00  0.00     0.066 A 
HETATM   16  C   UNL     1      42.578 -13.903   5.805  1.00  0.00     0.020 A 
HETATM   17  C   UNL     1      43.704 -14.318   5.096  1.00  0.00     0.001 A 
HETATM   18  C   UNL     1      43.840 -13.978   3.756  1.00  0.00     0.002 A 
HETATM   19  C   UNL     1      42.846 -13.236   3.113  1.00  0.00     0.030 A 
BRANCH  15  20
HETATM   20  C   UNL     1      40.405 -12.648   5.964  1.00  0.00     0.295 C 
HETATM   21  O   UNL     1      39.264 -13.074   5.832  1.00  0.00    -0.259 OA
BRANCH  20  22
HETATM   22  O   UNL     1      40.778 -11.653   6.807  1.00  0.00    -0.322 OA
HETATM   23  C   UNL     1      40.220 -10.374   6.500  1.00  0.00     0.213 C 
ENDBRANCH  20  22
ENDBRANCH  15  20
ENDBRANCH  12  14
ENDBRANCH  10  12
ENDBRANCH   1  10
BRANCH   1  24
HETATM   24  C   UNL     1      39.547 -14.729   1.421  1.00  0.00     0.169 C 
BRANCH  24  25
HETATM   25  C   UNL     1      40.630 -15.742   1.675  1.00  0.00     0.029 A 
HETATM   26  C   UNL     1      41.322 -16.365   0.504  1.00  0.00     0.253 A 
HETATM   27  O   UNL     1      41.070 -16.046  -0.653  1.00  0.00    -0.268 OA
HETATM   28  N   UNL     1      42.285 -17.300   0.773  1.00  0.00    -0.322 N 
HETATM   29  C   UNL     1      42.601 -17.749   2.059  1.00  0.00     0.048 A 
HETATM   30  H   UNL     1      42.736 -17.714  -0.034  1.00  0.00     0.169 HD
HETATM   31  C   UNL     1      41.927 -17.196   3.155  1.00  0.00    -0.006 A 
HETATM   32  C   UNL     1      43.558 -18.746   2.236  1.00  0.00     0.070 A 
HETATM   33  C   UNL     1      42.195 -17.670   4.440  1.00  0.00     0.053 A 
HETATM   34  C   UNL     1      40.932 -16.151   2.920  1.00  0.00     0.028 A 
HETATM   35  C   UNL     1      43.129 -18.690   4.619  1.00  0.00     0.103 A 
HETATM   36  C   UNL     1      43.830 -19.206   3.523  1.00  0.00     0.104 A 
HETATM   37  O   UNL     1      43.308 -19.139   5.902  1.00  0.00    -0.346 OA
HETATM   38  O   UNL     1      44.785 -20.184   3.635  1.00  0.00    -0.346 OA
HETATM   39  C   UNL     1      45.185 -20.381   4.998  1.00  0.00     0.202 C 
HETATM   40  C   UNL     1      43.974 -20.409   5.916  1.00  0.00     0.202 C 
ENDBRANCH  24  25
ENDBRANCH   1  24
TORSDOF 12
ENDMDL
MODEL 9
REMARK VINA RESULT:      -7.2      2.530      3.755
REMARK  12 active torsions:
REMARK  status: ('A' for Active; 'I' for Inactive)
REMARK    1  A    between atoms: C_2  and  N_3 
REMARK    2  A    between atoms: N_3  and  C_5 
REMARK    3  A    between atoms: N_3  and  C_37 
REMARK    4  A    between atoms: C_5  and  C_6 
REMARK    5  A    between atoms: C_6  and  N_7 
REMARK    6  A    between atoms: N_7  and  C_8 
REMARK    7  A    between atoms: N_7  and  C_21 
REMARK    8  A    between atoms: C_8  and  N_9 
REMARK    9  A    between atoms: N_9  and  C_10 
REMARK   10  A    between atoms: C_11  and  C_12 
REMARK   11  A    between atoms: C_12  and  O_13 
REMARK   12  A    between atoms: C_21  and  C_22 
ROOT
HETATM    1  N   UNL     1      40.909 -13.741   0.749  1.00  0.00    -0.352 N 
ENDROOT
BRANCH   1   2
HETATM    2  C   UNL     1      41.650 -13.913  -0.514  1.00  0.00     0.153 C 
BRANCH   2   3
HETATM    3  C   UNL     1      41.015 -14.949  -1.467  1.00  0.00     0.254 C 
BRANCH   3   4
HETATM    4  N   UNL     1      40.003 -14.308  -2.425  1.00  0.00    -0.070 N 
HETATM    5  H   UNL     1      39.071 -14.391  -1.998  1.00  0.00     0.279 HD
BRANCH   4   6
HETATM    6  C   UNL     1      39.962 -15.035  -3.762  1.00  0.00     0.230 C 
HETATM    7  C   UNL     1      38.696 -15.864  -3.897  1.00  0.00     0.034 C 
ENDBRANCH   4   6
BRANCH   4   8
HETATM    8  C   UNL     1      40.290 -12.820  -2.611  1.00  0.00     0.230 C 
HETATM    9  C   UNL     1      39.250 -12.176  -3.514  1.00  0.00     0.034 C 
ENDBRANCH   4   8
ENDBRANCH   3   4
ENDBRANCH   2   3
ENDBRANCH   1   2
BRANCH   1  10
HETATM   10  C   UNL     1      40.820 -12.478   1.398  1.00  0.00     0.174 C 
HETATM   11  S   UNL     1      39.595 -11.357   1.112  1.00  0.00    -0.041 SA
BRANCH  10  12
HETATM   12  N   UNL     1      41.918 -12.216   2.195  1.00  0.00    -0.332 N 
HETATM   13  H   UNL     1      42.492 -11.431   1.884  1.00  0.00     0.168 HD
BRANCH  12  14
HETATM   14  C   UNL     1      42.379 -12.822   3.392  1.00  0.00     0.050 A 
HETATM   15  C   UNL     1      41.880 -12.369   4.640  1.00  0.00     0.066 A 
HETATM   16  C   UNL     1      42.364 -12.934   5.834  1.00  0.00     0.020 A 
HETATM   17  C   UNL     1      43.347 -13.922   5.802  1.00  0.00     0.001 A 
HETATM   18  C   UNL     1      43.864 -14.342   4.582  1.00  0.00     0.002 A 
HETATM   19  C   UNL     1      43.392 -13.789   3.389  1.00  0.00     0.030 A 
BRANCH  15  20
HETATM   20  C   UNL     1      40.883 -11.252   4.694  1.00  0.00     0.295 C 
HETATM   21  O   UNL     1      39.721 -11.405   5.050  1.00  0.00    -0.259 OA
BRANCH  20  22
HETATM   22  O   UNL     1      41.428 -10.083   4.275  1.00  0.00    -0.322 OA
HETATM   23  C   UNL     1      41.433  -9.045   5.257  1.00  0.00     0.213 C 
ENDBRANCH  20  22
ENDBRANCH  15  20
ENDBRANCH  12  14
ENDBRANCH  10  12
ENDBRANCH   1  10
BRANCH   1  24
HETATM   24  C   UNL     1      40.008 -14.849   1.149  1.00  0.00     0.169 C 
BRANCH  24  25
HETATM   25  C   UNL     1      40.574 -15.743   2.218  1.00  0.00     0.029 A 
HETATM   26  C   UNL     1      40.221 -15.471   3.646  1.00  0.00     0.253 A 
HETATM   27  O   UNL     1      39.452 -14.573   3.972  1.00  0.00    -0.268 OA
HETATM   28  N   UNL     1      40.774 -16.291   4.593  1.00  0.00    -0.322 N 
HETATM   29  C   UNL     1      41.692 -17.306   4.308  1.00  0.00     0.048 A 
HETATM   30  H   UNL     1      40.528 -16.084   5.553  1.00  0.00     0.169 HD
HETATM   31  C   UNL     1      42.054 -17.538   2.975  1.00  0.00    -0.006 A 
HETATM   32  C   UNL     1      42.247 -18.057   5.342  1.00  0.00     0.070 A 
HETATM   33  C   UNL     1      43.008 -18.515   2.679  1.00  0.00     0.053 A 
HETATM   34  C   UNL     1      41.444 -16.727   1.924  1.00  0.00     0.028 A 
HETATM   35  C   UNL     1      43.590 -19.246   3.714  1.00  0.00     0.103 A 
HETATM   36  C   UNL     1      43.190 -19.038   5.039  1.00  0.00     0.104 A 
HETATM   37  O   UNL     1      44.552 -20.155   3.356  1.00  0.00    -0.346 OA
HETATM   38  O   UNL     1      43.697 -19.748   6.097  1.00  0.00    -0.346 OA
HETATM   39  C   UNL     1      44.429 -20.901   5.660  1.00  0.00     0.202 C 
HETATM   40  C   UNL     1      45.334 -20.553   4.489  1.00  0.00     0.202 C 
ENDBRANCH  24  25
ENDBRANCH   1  24
TORSDOF 12
ENDMDL
MODEL 10
REMARK VINA RESULT:      -7.2      2.373      5.819
REMARK  12 active torsions:
REMARK  status: ('A' for Active; 'I' for Inactive)
REMARK    1  A    between atoms: C_2  and  N_3 
REMARK    2  A    between atoms: N_3  and  C_5 
REMARK    3  A    between atoms: N_3  and  C_37 
REMARK    4  A    between atoms: C_5  and  C_6 
REMARK    5  A    between atoms: C_6  and  N_7 
REMARK    6  A    between atoms: N_7  and  C_8 
REMARK    7  A    between atoms: N_7  and  C_21 
REMARK    8  A    between atoms: C_8  and  N_9 
REMARK    9  A    between atoms: N_9  and  C_10 
REMARK   10  A    between atoms: C_11  and  C_12 
REMARK   11  A    between atoms: C_12  and  O_13 
REMARK   12  A    between atoms: C_21  and  C_22 
ROOT
HETATM    1  N   UNL     1      40.889 -12.747   4.628  1.00  0.00    -0.352 N 
ENDROOT
BRANCH   1   2
HETATM    2  C   UNL     1      40.144 -13.030   5.869  1.00  0.00     0.153 C 
BRANCH   2   3
HETATM    3  C   UNL     1      39.711 -11.760   6.633  1.00  0.00     0.254 C 
BRANCH   3   4
HETATM    4  N   UNL     1      40.482 -11.586   7.948  1.00  0.00    -0.070 N 
HETATM    5  H   UNL     1      40.798 -12.517   8.251  1.00  0.00     0.279 HD
BRANCH   4   6
HETATM    6  C   UNL     1      39.593 -11.021   9.046  1.00  0.00     0.230 C 
HETATM    7  C   UNL     1      38.947  -9.717   8.611  1.00  0.00     0.034 C 
ENDBRANCH   4   6
BRANCH   4   8
HETATM    8  C   UNL     1      41.727 -10.725   7.744  1.00  0.00     0.230 C 
HETATM    9  C   UNL     1      42.553 -10.656   9.018  1.00  0.00     0.034 C 
ENDBRANCH   4   8
ENDBRANCH   3   4
ENDBRANCH   2   3
ENDBRANCH   1   2
BRANCH   1  10
HETATM   10  C   UNL     1      40.263 -12.144   3.502  1.00  0.00     0.174 C 
HETATM   11  S   UNL     1      40.114 -10.479   3.287  1.00  0.00    -0.041 SA
BRANCH  10  12
HETATM   12  N   UNL     1      39.678 -13.072   2.663  1.00  0.00    -0.332 N 
HETATM   13  H   UNL     1      38.697 -12.888   2.443  1.00  0.00     0.168 HD
BRANCH  12  14
HETATM   14  C   UNL     1      40.201 -14.225   2.022  1.00  0.00     0.050 A 
HETATM   15  C   UNL     1      41.139 -14.072   0.970  1.00  0.00     0.066 A 
HETATM   16  C   UNL     1      41.630 -15.208   0.300  1.00  0.00     0.020 A 
HETATM   17  C   UNL     1      41.186 -16.482   0.648  1.00  0.00     0.001 A 
HETATM   18  C   UNL     1      40.239 -16.632   1.654  1.00  0.00     0.002 A 
HETATM   19  C   UNL     1      39.743 -15.513   2.328  1.00  0.00     0.030 A 
BRANCH  15  20
HETATM   20  C   UNL     1      41.565 -12.705   0.530  1.00  0.00     0.295 C 
HETATM   21  O   UNL     1      42.638 -12.202   0.842  1.00  0.00    -0.259 OA
BRANCH  20  22
HETATM   22  O   UNL     1      40.607 -12.106  -0.219  1.00  0.00    -0.322 OA
HETATM   23  C   UNL     1      40.929 -10.781  -0.646  1.00  0.00     0.213 C 
ENDBRANCH  20  22
ENDBRANCH  15  20
ENDBRANCH  12  14
ENDBRANCH  10  12
ENDBRANCH   1  10
BRANCH   1  24
HETATM   24  C   UNL     1      42.367 -12.824   4.707  1.00  0.00     0.169 C 
BRANCH  24  25
HETATM   25  C   UNL     1      42.893 -14.198   5.022  1.00  0.00     0.029 A 
HETATM   26  C   UNL     1      43.651 -14.405   6.296  1.00  0.00     0.253 A 
HETATM   27  O   UNL     1      43.819 -13.505   7.112  1.00  0.00    -0.268 OA
HETATM   28  N   UNL     1      44.135 -15.662   6.537  1.00  0.00    -0.322 N 
HETATM   29  C   UNL     1      44.024 -16.728   5.639  1.00  0.00     0.048 A 
HETATM   30  H   UNL     1      44.651 -15.778   7.401  1.00  0.00     0.169 HD
HETATM   31  C   UNL     1      43.349 -16.528   4.429  1.00  0.00    -0.006 A 
HETATM   32  C   UNL     1      44.597 -17.961   5.944  1.00  0.00     0.070 A 
HETATM   33  C   UNL     1      43.274 -17.568   3.500  1.00  0.00     0.053 A 
HETATM   34  C   UNL     1      42.763 -15.217   4.153  1.00  0.00     0.028 A 
HETATM   35  C   UNL     1      43.874 -18.793   3.787  1.00  0.00     0.103 A 
HETATM   36  C   UNL     1      44.508 -18.999   5.018  1.00  0.00     0.104 A 
HETATM   37  O   UNL     1      43.802 -19.754   2.812  1.00  0.00    -0.346 OA
HETATM   38  O   UNL     1      45.085 -20.191   5.375  1.00  0.00    -0.346 OA
HETATM   39  C   UNL     1      44.698 -21.254   4.494  1.00  0.00     0.202 C 
HETATM   40  C   UNL     1      44.755 -20.799   3.045  1.00  0.00     0.202 C 
ENDBRANCH  24  25
ENDBRANCH   1  24
TORSDOF 12
ENDMDL
