MODEL 1
REMARK VINA RESULT:      -8.4      0.000      0.000
REMARK  4 active torsions:
REMARK  status: ('A' for Active; 'I' for Inactive)
REMARK    1  A    between atoms: C_5  and  C_6 
REMARK    2  A    between atoms: C_6  and  N_7 
REMARK    3  A    between atoms: C_6  and  C_18 
REMARK    4  A    between atoms: N_7  and  C_8 
ROOT
HETATM    1  C   UNL     1      42.695 -17.743   3.984  1.00  0.00     0.288 C 
ENDROOT
BRANCH   1   2
HETATM    2  C   UNL     1      42.050 -16.921   2.882  1.00  0.00    -0.003 A 
HETATM    3  C   UNL     1      42.838 -16.186   1.998  1.00  0.00     0.126 A 
HETATM    4  N   UNL     1      42.353 -15.455   0.971  1.00  0.00    -0.272 NA
HETATM    5  C   UNL     1      41.012 -15.418   0.828  1.00  0.00     0.116 A 
HETATM    6  C   UNL     1      40.135 -16.095   1.655  1.00  0.00     0.020 A 
HETATM    7  C   UNL     1      40.663 -16.860   2.691  1.00  0.00     0.012 A 
ENDBRANCH   1   2
BRANCH   1   8
HETATM    8  N   UNL     1      43.616 -16.887   4.771  1.00  0.00     0.101 N 
HETATM    9  H   UNL     1      43.820 -16.062   4.212  1.00  0.00     0.317 HD
BRANCH   8  10
HETATM   10  C   UNL     1      43.191 -16.577   6.142  1.00  0.00     0.225 C 
HETATM   11  C   UNL     1      41.718 -16.136   6.284  1.00  0.00     0.069 C 
HETATM   12  C   UNL     1      41.494 -14.760   5.686  1.00  0.00     0.190 C 
HETATM   13  N   UNL     1      42.409 -13.781   6.371  1.00  0.00    -0.067 N 
HETATM   14  C   UNL     1      40.144 -14.114   5.925  1.00  0.00     0.035 C 
HETATM   15  H   UNL     1      42.242 -13.841   7.387  1.00  0.00     0.280 HD
HETATM   16  C   UNL     1      43.857 -14.089   6.146  1.00  0.00     0.237 C 
HETATM   17  C   UNL     1      41.916 -12.421   5.951  1.00  0.00     0.235 C 
HETATM   18  C   UNL     1      44.132 -15.484   6.701  1.00  0.00     0.063 C 
HETATM   19  C   UNL     1      40.426 -12.632   5.674  1.00  0.00     0.030 C 
ENDBRANCH   8  10
ENDBRANCH   1   8
BRANCH   1  20
HETATM   20  C   UNL     1      43.327 -19.022   3.448  1.00  0.00    -0.021 A 
HETATM   21  C   UNL     1      44.271 -19.710   4.235  1.00  0.00     0.012 A 
HETATM   22  C   UNL     1      44.856 -20.890   3.775  1.00  0.00     0.043 A 
HETATM   23  C   UNL     1      44.497 -21.397   2.534  1.00  0.00     0.116 A 
HETATM   24  F   UNL     1      45.062 -22.528   2.093  1.00  0.00    -0.206 F 
HETATM   25  C   UNL     1      43.559 -20.746   1.743  1.00  0.00     0.043 A 
HETATM   26  C   UNL     1      42.971 -19.564   2.199  1.00  0.00     0.012 A 
ENDBRANCH   1  20
TORSDOF 4
ENDMDL
MODEL 2
REMARK VINA RESULT:      -8.0      1.625      3.781
REMARK  4 active torsions:
REMARK  status: ('A' for Active; 'I' for Inactive)
REMARK    1  A    between atoms: C_5  and  C_6 
REMARK    2  A    between atoms: C_6  and  N_7 
REMARK    3  A    between atoms: C_6  and  C_18 
REMARK    4  A    between atoms: N_7  and  C_8 
ROOT
HETATM    1  C   UNL     1      43.227 -17.664   3.501  1.00  0.00     0.288 C 
ENDROOT
BRANCH   1   2
HETATM    2  C   UNL     1      43.186 -17.376   4.991  1.00  0.00    -0.003 A 
HETATM    3  C   UNL     1      42.002 -17.537   5.708  1.00  0.00     0.126 A 
HETATM    4  N   UNL     1      41.882 -17.335   7.038  1.00  0.00    -0.272 NA
HETATM    5  C   UNL     1      42.984 -16.916   7.694  1.00  0.00     0.116 A 
HETATM    6  C   UNL     1      44.207 -16.709   7.082  1.00  0.00     0.020 A 
HETATM    7  C   UNL     1      44.308 -16.948   5.713  1.00  0.00     0.012 A 
ENDBRANCH   1   2
BRANCH   1   8
HETATM    8  N   UNL     1      41.938 -17.272   2.881  1.00  0.00     0.101 N 
HETATM    9  H   UNL     1      41.270 -17.122   3.633  1.00  0.00     0.317 HD
BRANCH   8  10
HETATM   10  C   UNL     1      41.999 -16.164   1.919  1.00  0.00     0.225 C 
HETATM   11  C   UNL     1      42.694 -14.887   2.437  1.00  0.00     0.069 C 
HETATM   12  C   UNL     1      41.856 -14.193   3.494  1.00  0.00     0.190 C 
HETATM   13  N   UNL     1      40.512 -13.862   2.903  1.00  0.00    -0.067 N 
HETATM   14  C   UNL     1      42.318 -12.825   3.953  1.00  0.00     0.035 C 
HETATM   15  H   UNL     1      40.665 -13.312   2.045  1.00  0.00     0.280 HD
HETATM   16  C   UNL     1      39.738 -15.082   2.510  1.00  0.00     0.237 C 
HETATM   17  C   UNL     1      39.869 -12.921   3.889  1.00  0.00     0.235 C 
HETATM   18  C   UNL     1      40.555 -15.841   1.468  1.00  0.00     0.063 C 
HETATM   19  C   UNL     1      41.052 -12.227   4.568  1.00  0.00     0.030 C 
ENDBRANCH   8  10
ENDBRANCH   1   8
BRANCH   1  20
HETATM   20  C   UNL     1      43.657 -19.097   3.208  1.00  0.00    -0.021 A 
HETATM   21  C   UNL     1      44.441 -19.790   4.151  1.00  0.00     0.012 A 
HETATM   22  C   UNL     1      44.840 -21.106   3.915  1.00  0.00     0.043 A 
HETATM   23  C   UNL     1      44.451 -21.743   2.745  1.00  0.00     0.116 A 
HETATM   24  F   UNL     1      44.836 -23.005   2.519  1.00  0.00    -0.206 F 
HETATM   25  C   UNL     1      43.666 -21.088   1.804  1.00  0.00     0.043 A 
HETATM   26  C   UNL     1      43.266 -19.770   2.036  1.00  0.00     0.012 A 
ENDBRANCH   1  20
TORSDOF 4
ENDMDL
MODEL 3
REMARK VINA RESULT:      -8.0      1.937      4.315
REMARK  4 active torsions:
REMARK  status: ('A' for Active; 'I' for Inactive)
REMARK    1  A    between atoms: C_5  and  C_6 
REMARK    2  A    between atoms: C_6  and  N_7 
REMARK    3  A    between atoms: C_6  and  C_18 
REMARK    4  A    between atoms: N_7  and  C_8 
ROOT
HETATM    1  C   UNL     1      43.102 -17.060   3.685  1.00  0.00     0.288 C 
ENDROOT
BRANCH   1   2
HETATM    2  C   UNL     1      43.192 -16.896   5.192  1.00  0.00    -0.003 A 
HETATM    3  C   UNL     1      42.416 -17.689   6.035  1.00  0.00     0.126 A 
HETATM    4  N   UNL     1      42.455 -17.635   7.384  1.00  0.00    -0.272 NA
HETATM    5  C   UNL     1      43.282 -16.721   7.934  1.00  0.00     0.116 A 
HETATM    6  C   UNL     1      44.085 -15.873   7.195  1.00  0.00     0.020 A 
HETATM    7  C   UNL     1      44.042 -15.967   5.806  1.00  0.00     0.012 A 
ENDBRANCH   1   2
BRANCH   1   8
HETATM    8  N   UNL     1      41.764 -16.626   3.215  1.00  0.00     0.101 N 
HETATM    9  H   UNL     1      41.080 -17.273   3.600  1.00  0.00     0.317 HD
BRANCH   8  10
HETATM   10  C   UNL     1      41.430 -15.215   3.442  1.00  0.00     0.225 C 
HETATM   11  C   UNL     1      39.950 -14.846   3.198  1.00  0.00     0.069 C 
HETATM   12  C   UNL     1      39.605 -14.901   1.722  1.00  0.00     0.190 C 
HETATM   13  N   UNL     1      40.515 -13.961   0.979  1.00  0.00    -0.067 N 
HETATM   14  C   UNL     1      38.244 -14.377   1.312  1.00  0.00     0.035 C 
HETATM   15  H   UNL     1      40.430 -13.027   1.406  1.00  0.00     0.280 HD
HETATM   16  C   UNL     1      41.955 -14.358   1.071  1.00  0.00     0.237 C 
HETATM   17  C   UNL     1      39.916 -13.842  -0.399  1.00  0.00     0.235 C 
HETATM   18  C   UNL     1      42.350 -14.353   2.546  1.00  0.00     0.063 C 
HETATM   19  C   UNL     1      38.423 -14.097  -0.181  1.00  0.00     0.030 C 
ENDBRANCH   8  10
ENDBRANCH   1   8
BRANCH   1  20
HETATM   20  C   UNL     1      43.504 -18.460   3.238  1.00  0.00    -0.021 A 
HETATM   21  C   UNL     1      44.481 -19.165   3.967  1.00  0.00     0.012 A 
HETATM   22  C   UNL     1      44.860 -20.454   3.588  1.00  0.00     0.043 A 
HETATM   23  C   UNL     1      44.261 -21.050   2.487  1.00  0.00     0.116 A 
HETATM   24  F   UNL     1      44.627 -22.285   2.123  1.00  0.00    -0.206 F 
HETATM   25  C   UNL     1      43.285 -20.383   1.758  1.00  0.00     0.043 A 
HETATM   26  C   UNL     1      42.903 -19.093   2.134  1.00  0.00     0.012 A 
ENDBRANCH   1  20
TORSDOF 4
ENDMDL
MODEL 4
REMARK VINA RESULT:      -7.9      2.736      6.474
REMARK  4 active torsions:
REMARK  status: ('A' for Active; 'I' for Inactive)
REMARK    1  A    between atoms: C_5  and  C_6 
REMARK    2  A    between atoms: C_6  and  N_7 
REMARK    3  A    between atoms: C_6  and  C_18 
REMARK    4  A    between atoms: N_7  and  C_8 
ROOT
HETATM    1  C   UNL     1      41.879 -16.808   5.452  1.00  0.00     0.288 C 
ENDROOT
BRANCH   1   2
HETATM    2  C   UNL     1      42.921 -15.810   5.924  1.00  0.00    -0.003 A 
HETATM    3  C   UNL     1      43.424 -15.877   7.222  1.00  0.00     0.126 A 
HETATM    4  N   UNL     1      44.374 -15.053   7.716  1.00  0.00    -0.272 NA
HETATM    5  C   UNL     1      44.830 -14.085   6.894  1.00  0.00     0.116 A 
HETATM    6  C   UNL     1      44.392 -13.917   5.593  1.00  0.00     0.020 A 
HETATM    7  C   UNL     1      43.430 -14.795   5.102  1.00  0.00     0.012 A 
ENDBRANCH   1   2
BRANCH   1   8
HETATM    8  N   UNL     1      42.518 -18.125   5.216  1.00  0.00     0.101 N 
HETATM    9  H   UNL     1      41.872 -18.685   4.666  1.00  0.00     0.317 HD
BRANCH   8  10
HETATM   10  C   UNL     1      43.879 -18.088   4.665  1.00  0.00     0.225 C 
HETATM   11  C   UNL     1      43.990 -18.472   3.174  1.00  0.00     0.069 C 
HETATM   12  C   UNL     1      43.726 -19.951   2.965  1.00  0.00     0.190 C 
HETATM   13  N   UNL     1      44.709 -20.738   3.789  1.00  0.00    -0.067 N 
HETATM   14  C   UNL     1      43.991 -20.511   1.581  1.00  0.00     0.035 C 
HETATM   15  H   UNL     1      45.659 -20.431   3.536  1.00  0.00     0.280 HD
HETATM   16  C   UNL     1      44.547 -20.503   5.259  1.00  0.00     0.237 C 
HETATM   17  C   UNL     1      44.588 -22.157   3.297  1.00  0.00     0.235 C 
HETATM   18  C   UNL     1      44.769 -19.017   5.524  1.00  0.00     0.063 C 
HETATM   19  C   UNL     1      44.134 -22.011   1.843  1.00  0.00     0.030 C 
ENDBRANCH   8  10
ENDBRANCH   1   8
BRANCH   1  20
HETATM   20  C   UNL     1      41.074 -16.278   4.271  1.00  0.00    -0.021 A 
HETATM   21  C   UNL     1      40.451 -15.018   4.368  1.00  0.00     0.012 A 
HETATM   22  C   UNL     1      39.719 -14.502   3.298  1.00  0.00     0.043 A 
HETATM   23  C   UNL     1      39.612 -15.232   2.123  1.00  0.00     0.116 A 
HETATM   24  F   UNL     1      38.907 -14.737   1.098  1.00  0.00    -0.206 F 
HETATM   25  C   UNL     1      40.228 -16.471   1.994  1.00  0.00     0.043 A 
HETATM   26  C   UNL     1      40.961 -16.991   3.063  1.00  0.00     0.012 A 
ENDBRANCH   1  20
TORSDOF 4
ENDMDL
MODEL 5
REMARK VINA RESULT:      -7.6      1.725      4.525
REMARK  4 active torsions:
REMARK  status: ('A' for Active; 'I' for Inactive)
REMARK    1  A    between atoms: C_5  and  C_6 
REMARK    2  A    between atoms: C_6  and  N_7 
REMARK    3  A    between atoms: C_6  and  C_18 
REMARK    4  A    between atoms: N_7  and  C_8 
ROOT
HETATM    1  C   UNL     1      43.691 -17.203   3.275  1.00  0.00     0.288 C 
ENDROOT
BRANCH   1   2
HETATM    2  C   UNL     1      42.719 -16.934   4.410  1.00  0.00    -0.003 A 
HETATM    3  C   UNL     1      42.941 -15.879   5.293  1.00  0.00     0.126 A 
HETATM    4  N   UNL     1      42.115 -15.547   6.309  1.00  0.00    -0.272 NA
HETATM    5  C   UNL     1      41.024 -16.322   6.487  1.00  0.00     0.116 A 
HETATM    6  C   UNL     1      40.713 -17.402   5.681  1.00  0.00     0.020 A 
HETATM    7  C   UNL     1      41.570 -17.707   4.626  1.00  0.00     0.012 A 
ENDBRANCH   1   2
BRANCH   1   8
HETATM    8  N   UNL     1      43.249 -16.481   2.058  1.00  0.00     0.101 N 
HETATM    9  H   UNL     1      43.621 -16.980   1.253  1.00  0.00     0.317 HD
BRANCH   8  10
HETATM   10  C   UNL     1      41.810 -16.204   1.962  1.00  0.00     0.225 C 
HETATM   11  C   UNL     1      41.159 -16.592   0.616  1.00  0.00     0.069 C 
HETATM   12  C   UNL     1      41.616 -15.675  -0.502  1.00  0.00     0.190 C 
HETATM   13  N   UNL     1      41.271 -14.257  -0.135  1.00  0.00    -0.067 N 
HETATM   14  C   UNL     1      40.913 -15.811  -1.837  1.00  0.00     0.035 C 
HETATM   15  H   UNL     1      40.262 -14.215   0.070  1.00  0.00     0.280 HD
HETATM   16  C   UNL     1      41.989 -13.787   1.092  1.00  0.00     0.237 C 
HETATM   17  C   UNL     1      41.470 -13.464  -1.401  1.00  0.00     0.235 C 
HETATM   18  C   UNL     1      41.591 -14.700   2.248  1.00  0.00     0.063 C 
HETATM   19  C   UNL     1      41.218 -14.477  -2.520  1.00  0.00     0.030 C 
ENDBRANCH   8  10
ENDBRANCH   1   8
BRANCH   1  20
HETATM   20  C   UNL     1      43.932 -18.694   3.070  1.00  0.00    -0.021 A 
HETATM   21  C   UNL     1      44.614 -19.427   4.061  1.00  0.00     0.012 A 
HETATM   22  C   UNL     1      44.837 -20.796   3.907  1.00  0.00     0.043 A 
HETATM   23  C   UNL     1      44.375 -21.443   2.770  1.00  0.00     0.116 A 
HETATM   24  F   UNL     1      44.592 -22.756   2.622  1.00  0.00    -0.206 F 
HETATM   25  C   UNL     1      43.687 -20.748   1.783  1.00  0.00     0.043 A 
HETATM   26  C   UNL     1      43.462 -19.378   1.934  1.00  0.00     0.012 A 
ENDBRANCH   1  20
TORSDOF 4
ENDMDL
MODEL 6
REMARK VINA RESULT:      -7.6      1.999      4.286
REMARK  4 active torsions:
REMARK  status: ('A' for Active; 'I' for Inactive)
REMARK    1  A    between atoms: C_5  and  C_6 
REMARK    2  A    between atoms: C_6  and  N_7 
REMARK    3  A    between atoms: C_6  and  C_18 
REMARK    4  A    between atoms: N_7  and  C_8 
ROOT
HETATM    1  C   UNL     1      44.312 -18.374   4.715  1.00  0.00     0.288 C 
ENDROOT
BRANCH   1   2
HETATM    2  C   UNL     1      44.214 -18.883   6.143  1.00  0.00    -0.003 A 
HETATM    3  C   UNL     1      44.600 -18.072   7.208  1.00  0.00     0.126 A 
HETATM    4  N   UNL     1      44.517 -18.429   8.508  1.00  0.00    -0.272 NA
HETATM    5  C   UNL     1      44.060 -19.670   8.772  1.00  0.00     0.116 A 
HETATM    6  C   UNL     1      43.663 -20.564   7.794  1.00  0.00     0.020 A 
HETATM    7  C   UNL     1      43.737 -20.161   6.463  1.00  0.00     0.012 A 
ENDBRANCH   1   2
BRANCH   1   8
HETATM    8  N   UNL     1      43.341 -17.272   4.510  1.00  0.00     0.101 N 
HETATM    9  H   UNL     1      43.538 -16.855   3.604  1.00  0.00     0.317 HD
BRANCH   8  10
HETATM   10  C   UNL     1      41.927 -17.617   4.702  1.00  0.00     0.225 C 
HETATM   11  C   UNL     1      41.022 -17.370   3.476  1.00  0.00     0.069 C 
HETATM   12  C   UNL     1      40.836 -15.886   3.219  1.00  0.00     0.190 C 
HETATM   13  N   UNL     1      40.244 -15.255   4.451  1.00  0.00    -0.067 N 
HETATM   14  C   UNL     1      39.817 -15.490   2.170  1.00  0.00     0.035 C 
HETATM   15  H   UNL     1      39.379 -15.762   4.689  1.00  0.00     0.280 HD
HETATM   16  C   UNL     1      41.150 -15.348   5.639  1.00  0.00     0.237 C 
HETATM   17  C   UNL     1      39.810 -13.878   4.017  1.00  0.00     0.235 C 
HETATM   18  C   UNL     1      41.401 -16.827   5.923  1.00  0.00     0.063 C 
HETATM   19  C   UNL     1      39.512 -14.034   2.524  1.00  0.00     0.030 C 
ENDBRANCH   8  10
ENDBRANCH   1   8
BRANCH   1  20
HETATM   20  C   UNL     1      44.207 -19.504   3.698  1.00  0.00    -0.021 A 
HETATM   21  C   UNL     1      43.586 -19.261   2.457  1.00  0.00     0.012 A 
HETATM   22  C   UNL     1      43.487 -20.273   1.501  1.00  0.00     0.043 A 
HETATM   23  C   UNL     1      44.013 -21.529   1.772  1.00  0.00     0.116 A 
HETATM   24  F   UNL     1      43.914 -22.499   0.855  1.00  0.00    -0.206 F 
HETATM   25  C   UNL     1      44.642 -21.792   2.982  1.00  0.00     0.043 A 
HETATM   26  C   UNL     1      44.743 -20.782   3.941  1.00  0.00     0.012 A 
ENDBRANCH   1  20
TORSDOF 4
ENDMDL
MODEL 7
REMARK VINA RESULT:      -7.6      2.859      5.460
REMARK  4 active torsions:
REMARK  status: ('A' for Active; 'I' for Inactive)
REMARK    1  A    between atoms: C_5  and  C_6 
REMARK    2  A    between atoms: C_6  and  N_7 
REMARK    3  A    between atoms: C_6  and  C_18 
REMARK    4  A    between atoms: N_7  and  C_8 
ROOT
HETATM    1  C   UNL     1      42.441 -18.114   3.171  1.00  0.00     0.288 C 
ENDROOT
BRANCH   1   2
HETATM    2  C   UNL     1      43.252 -19.374   2.926  1.00  0.00    -0.003 A 
HETATM    3  C   UNL     1      44.345 -19.677   3.737  1.00  0.00     0.126 A 
HETATM    4  N   UNL     1      45.102 -20.789   3.613  1.00  0.00    -0.272 NA
HETATM    5  C   UNL     1      44.785 -21.634   2.610  1.00  0.00     0.116 A 
HETATM    6  C   UNL     1      43.733 -21.426   1.737  1.00  0.00     0.020 A 
HETATM    7  C   UNL     1      42.954 -20.284   1.903  1.00  0.00     0.012 A 
ENDBRANCH   1   2
BRANCH   1   8
HETATM    8  N   UNL     1      42.570 -17.204   2.007  1.00  0.00     0.101 N 
HETATM    9  H   UNL     1      43.393 -17.491   1.483  1.00  0.00     0.317 HD
BRANCH   8  10
HETATM   10  C   UNL     1      41.370 -17.050   1.176  1.00  0.00     0.225 C 
HETATM   11  C   UNL     1      41.536 -16.121  -0.046  1.00  0.00     0.069 C 
HETATM   12  C   UNL     1      41.676 -14.671   0.378  1.00  0.00     0.190 C 
HETATM   13  N   UNL     1      40.461 -14.283   1.177  1.00  0.00    -0.067 N 
HETATM   14  C   UNL     1      41.651 -13.625  -0.718  1.00  0.00     0.035 C 
HETATM   15  H   UNL     1      39.625 -14.487   0.610  1.00  0.00     0.280 HD
HETATM   16  C   UNL     1      40.331 -15.065   2.447  1.00  0.00     0.237 C 
HETATM   17  C   UNL     1      40.528 -12.782   1.291  1.00  0.00     0.235 C 
HETATM   18  C   UNL     1      40.221 -16.543   2.080  1.00  0.00     0.063 C 
HETATM   19  C   UNL     1      41.293 -12.346   0.040  1.00  0.00     0.030 C 
ENDBRANCH   8  10
ENDBRANCH   1   8
BRANCH   1  20
HETATM   20  C   UNL     1      42.772 -17.472   4.513  1.00  0.00    -0.021 A 
HETATM   21  C   UNL     1      42.465 -18.160   5.703  1.00  0.00     0.012 A 
HETATM   22  C   UNL     1      42.769 -17.603   6.946  1.00  0.00     0.043 A 
HETATM   23  C   UNL     1      43.388 -16.363   7.010  1.00  0.00     0.116 A 
HETATM   24  F   UNL     1      43.676 -15.828   8.203  1.00  0.00    -0.206 F 
HETATM   25  C   UNL     1      43.715 -15.668   5.852  1.00  0.00     0.043 A 
HETATM   26  C   UNL     1      43.412 -16.223   4.606  1.00  0.00     0.012 A 
ENDBRANCH   1  20
TORSDOF 4
ENDMDL
MODEL 8
REMARK VINA RESULT:      -7.3      2.167      5.701
REMARK  4 active torsions:
REMARK  status: ('A' for Active; 'I' for Inactive)
REMARK    1  A    between atoms: C_5  and  C_6 
REMARK    2  A    between atoms: C_6  and  N_7 
REMARK    3  A    between atoms: C_6  and  C_18 
REMARK    4  A    between atoms: N_7  and  C_8 
ROOT
HETATM    1  C   UNL     1      43.088 -14.886   2.479  1.00  0.00     0.288 C 
ENDROOT
BRANCH   1   2
HETATM    2  C   UNL     1      42.795 -14.164   3.783  1.00  0.00    -0.003 A 
HETATM    3  C   UNL     1      41.603 -13.461   3.946  1.00  0.00     0.126 A 
HETATM    4  N   UNL     1      41.245 -12.818   5.079  1.00  0.00    -0.272 NA
HETATM    5  C   UNL     1      42.130 -12.840   6.098  1.00  0.00     0.116 A 
HETATM    6  C   UNL     1      43.348 -13.493   6.042  1.00  0.00     0.020 A 
HETATM    7  C   UNL     1      43.680 -14.167   4.869  1.00  0.00     0.012 A 
ENDBRANCH   1   2
BRANCH   1   8
HETATM    8  N   UNL     1      42.084 -14.501   1.459  1.00  0.00     0.101 N 
HETATM    9  H   UNL     1      42.587 -14.100   0.670  1.00  0.00     0.317 HD
BRANCH   8  10
HETATM   10  C   UNL     1      41.127 -15.546   1.074  1.00  0.00     0.225 C 
HETATM   11  C   UNL     1      41.327 -16.125  -0.344  1.00  0.00     0.069 C 
HETATM   12  C   UNL     1      40.960 -15.110  -1.410  1.00  0.00     0.190 C 
HETATM   13  N   UNL     1      39.528 -14.692  -1.205  1.00  0.00    -0.067 N 
HETATM   14  C   UNL     1      40.919 -15.599  -2.844  1.00  0.00     0.035 C 
HETATM   15  H   UNL     1      38.943 -15.540  -1.199  1.00  0.00     0.280 HD
HETATM   16  C   UNL     1      39.311 -13.998   0.104  1.00  0.00     0.237 C 
HETATM   17  C   UNL     1      39.155 -13.941  -2.458  1.00  0.00     0.235 C 
HETATM   18  C   UNL     1      39.700 -14.966   1.218  1.00  0.00     0.063 C 
HETATM   19  C   UNL     1      40.053 -14.547  -3.538  1.00  0.00     0.030 C 
ENDBRANCH   8  10
ENDBRANCH   1   8
BRANCH   1  20
HETATM   20  C   UNL     1      43.239 -16.389   2.681  1.00  0.00    -0.021 A 
HETATM   21  C   UNL     1      44.079 -17.122   1.820  1.00  0.00     0.012 A 
HETATM   22  C   UNL     1      44.245 -18.497   1.988  1.00  0.00     0.043 A 
HETATM   23  C   UNL     1      43.584 -19.148   3.020  1.00  0.00     0.116 A 
HETATM   24  F   UNL     1      43.743 -20.468   3.179  1.00  0.00    -0.206 F 
HETATM   25  C   UNL     1      42.761 -18.448   3.893  1.00  0.00     0.043 A 
HETATM   26  C   UNL     1      42.591 -17.072   3.727  1.00  0.00     0.012 A 
ENDBRANCH   1  20
TORSDOF 4
ENDMDL
MODEL 9
REMARK VINA RESULT:      -7.2      2.260      4.288
REMARK  4 active torsions:
REMARK  status: ('A' for Active; 'I' for Inactive)
REMARK    1  A    between atoms: C_5  and  C_6 
REMARK    2  A    between atoms: C_6  and  N_7 
REMARK    3  A    between atoms: C_6  and  C_18 
REMARK    4  A    between atoms: N_7  and  C_8 
ROOT
HETATM    1  C   UNL     1      42.873 -18.021   3.680  1.00  0.00     0.288 C 
ENDROOT
BRANCH   1   2
HETATM    2  C   UNL     1      43.468 -19.363   3.292  1.00  0.00    -0.003 A 
HETATM    3  C   UNL     1      44.375 -20.002   4.135  1.00  0.00     0.126 A 
HETATM    4  N   UNL     1      44.928 -21.210   3.887  1.00  0.00    -0.272 NA
HETATM    5  C   UNL     1      44.594 -21.806   2.723  1.00  0.00     0.116 A 
HETATM    6  C   UNL     1      43.717 -21.257   1.806  1.00  0.00     0.020 A 
HETATM    7  C   UNL     1      43.143 -20.022   2.099  1.00  0.00     0.012 A 
ENDBRANCH   1   2
BRANCH   1   8
HETATM    8  N   UNL     1      41.936 -18.200   4.815  1.00  0.00     0.101 N 
HETATM    9  H   UNL     1      41.842 -19.199   4.980  1.00  0.00     0.317 HD
BRANCH   8  10
HETATM   10  C   UNL     1      42.243 -17.431   6.028  1.00  0.00     0.225 C 
HETATM   11  C   UNL     1      41.133 -16.460   6.485  1.00  0.00     0.069 C 
HETATM   12  C   UNL     1      41.000 -15.288   5.531  1.00  0.00     0.190 C 
HETATM   13  N   UNL     1      42.325 -14.579   5.450  1.00  0.00    -0.067 N 
HETATM   14  C   UNL     1      40.087 -14.155   5.952  1.00  0.00     0.035 C 
HETATM   15  H   UNL     1      42.612 -14.324   6.406  1.00  0.00     0.280 HD
HETATM   16  C   UNL     1      43.408 -15.442   4.881  1.00  0.00     0.237 C 
HETATM   17  C   UNL     1      42.032 -13.279   4.746  1.00  0.00     0.235 C 
HETATM   18  C   UNL     1      43.562 -16.660   5.787  1.00  0.00     0.063 C 
HETATM   19  C   UNL     1      40.570 -12.989   5.088  1.00  0.00     0.030 C 
ENDBRANCH   8  10
ENDBRANCH   1   8
BRANCH   1  20
HETATM   20  C   UNL     1      42.278 -17.292   2.481  1.00  0.00    -0.021 A 
HETATM   21  C   UNL     1      40.904 -16.982   2.472  1.00  0.00     0.012 A 
HETATM   22  C   UNL     1      40.335 -16.304   1.393  1.00  0.00     0.043 A 
HETATM   23  C   UNL     1      41.132 -15.923   0.323  1.00  0.00     0.116 A 
HETATM   24  F   UNL     1      40.584 -15.275  -0.713  1.00  0.00    -0.206 F 
HETATM   25  C   UNL     1      42.492 -16.204   0.312  1.00  0.00     0.043 A 
HETATM   26  C   UNL     1      43.066 -16.883   1.389  1.00  0.00     0.012 A 
ENDBRANCH   1  20
TORSDOF 4
ENDMDL
MODEL 10
REMARK VINA RESULT:      -7.1      1.878      4.295
REMARK  4 active torsions:
REMARK  status: ('A' for Active; 'I' for Inactive)
REMARK    1  A    between atoms: C_5  and  C_6 
REMARK    2  A    between atoms: C_6  and  N_7 
REMARK    3  A    between atoms: C_6  and  C_18 
REMARK    4  A    between atoms: N_7  and  C_8 
ROOT
HETATM    1  C   UNL     1      42.462 -16.570   2.946  1.00  0.00     0.288 C 
ENDROOT
BRANCH   1   2
HETATM    2  C   UNL     1      42.979 -15.683   4.065  1.00  0.00    -0.003 A 
HETATM    3  C   UNL     1      43.737 -14.551   3.774  1.00  0.00     0.126 A 
HETATM    4  N   UNL     1      44.209 -13.690   4.701  1.00  0.00    -0.272 NA
HETATM    5  C   UNL     1      43.949 -13.980   5.993  1.00  0.00     0.116 A 
HETATM    6  C   UNL     1      43.220 -15.084   6.397  1.00  0.00     0.020 A 
HETATM    7  C   UNL     1      42.725 -15.942   5.418  1.00  0.00     0.012 A 
ENDBRANCH   1   2
BRANCH   1   8
HETATM    8  N   UNL     1      40.979 -16.571   2.954  1.00  0.00     0.101 N 
HETATM    9  H   UNL     1      40.677 -15.968   3.715  1.00  0.00     0.317 HD
BRANCH   8  10
HETATM   10  C   UNL     1      40.329 -16.268   1.672  1.00  0.00     0.225 C 
HETATM   11  C   UNL     1      41.195 -15.469   0.674  1.00  0.00     0.069 C 
HETATM   12  C   UNL     1      41.398 -14.041   1.142  1.00  0.00     0.190 C 
HETATM   13  N   UNL     1      40.051 -13.392   1.312  1.00  0.00    -0.067 N 
HETATM   14  C   UNL     1      42.062 -13.084   0.171  1.00  0.00     0.035 C 
HETATM   15  H   UNL     1      39.535 -13.485   0.424  1.00  0.00     0.280 HD
HETATM   16  C   UNL     1      39.223 -14.050   2.372  1.00  0.00     0.237 C 
HETATM   17  C   UNL     1      40.339 -11.922   1.470  1.00  0.00     0.235 C 
HETATM   18  C   UNL     1      39.016 -15.508   1.969  1.00  0.00     0.063 C 
HETATM   19  C   UNL     1      41.649 -11.713   0.708  1.00  0.00     0.030 C 
ENDBRANCH   8  10
ENDBRANCH   1   8
BRANCH   1  20
HETATM   20  C   UNL     1      43.093 -17.957   2.978  1.00  0.00    -0.021 A 
HETATM   21  C   UNL     1      42.885 -18.837   1.898  1.00  0.00     0.012 A 
HETATM   22  C   UNL     1      43.461 -20.109   1.895  1.00  0.00     0.043 A 
HETATM   23  C   UNL     1      44.255 -20.506   2.961  1.00  0.00     0.116 A 
HETATM   24  F   UNL     1      44.805 -21.726   2.958  1.00  0.00    -0.206 F 
HETATM   25  C   UNL     1      44.489 -19.653   4.033  1.00  0.00     0.043 A 
HETATM   26  C   UNL     1      43.914 -18.380   4.040  1.00  0.00     0.012 A 
ENDBRANCH   1  20
TORSDOF 4
ENDMDL
