MODEL 1
REMARK VINA RESULT:     -10.3      0.000      0.000
REMARK  6 active torsions:
REMARK  status: ('A' for Active; 'I' for Inactive)
REMARK    1  A    between atoms: C_2  and  O_3 
REMARK    2  A    between atoms: C_2  and  C_4 
REMARK    3  A    between atoms: C_6  and  N_7 
REMARK       I    between atoms: N_7  and  C_8 
REMARK    4  A    between atoms: C_8  and  C_9 
REMARK    5  A    between atoms: C_12  and  C_13 
REMARK    6  A    between atoms: C_18  and  C_19 
ROOT
HETATM    1  C   UNL     1      42.844 -14.839   4.002  1.00  0.00     0.096 A 
HETATM    2  C   UNL     1      43.337 -16.088   4.332  1.00  0.00     0.138 A 
HETATM    3  N   UNL     1      43.493 -16.082   5.701  1.00  0.00    -0.240 N 
HETATM    4  C   UNL     1      43.929 -17.227   6.483  1.00  0.00     0.221 C 
HETATM    5  C   UNL     1      43.731 -18.523   5.672  1.00  0.00     0.066 C 
HETATM    6  C   UNL     1      44.277 -18.341   4.252  1.00  0.00     0.118 C 
HETATM    7  N   UNL     1      43.615 -17.205   3.606  1.00  0.00    -0.365 N 
HETATM    8  N   UNL     1      43.230 -14.896   6.266  1.00  0.00    -0.181 NA
HETATM    9  C   UNL     1      42.790 -14.158   5.243  1.00  0.00     0.160 A 
HETATM   10  H   UNL     1      43.047 -17.445   2.792  1.00  0.00     0.161 HD
ENDROOT
BRANCH   1  11
HETATM   11  C   UNL     1      42.468 -14.292   2.708  1.00  0.00     0.261 C 
HETATM   12  N   UNL     1      41.534 -15.057   2.035  1.00  0.00    -0.323 N 
HETATM   13  H   UNL     1      41.323 -15.954   2.460  1.00  0.00     0.169 HD
HETATM   14  O   UNL     1      42.987 -13.261   2.297  1.00  0.00    -0.267 OA
BRANCH  12  15
HETATM   15  C   UNL     1      40.892 -14.768   0.816  1.00  0.00     0.035 A 
HETATM   16  C   UNL     1      41.213 -15.384  -0.397  1.00  0.00     0.039 A 
HETATM   17  C   UNL     1      40.548 -15.037  -1.589  1.00  0.00    -0.028 A 
HETATM   18  C   UNL     1      39.543 -14.063  -1.541  1.00  0.00     0.010 A 
HETATM   19  C   UNL     1      39.219 -13.440  -0.337  1.00  0.00     0.003 A 
HETATM   20  C   UNL     1      39.892 -13.791   0.835  1.00  0.00     0.029 A 
BRANCH  17  21
HETATM   21  C   UNL     1      40.910 -15.747  -2.876  1.00  0.00     0.147 C 
HETATM   22  C   UNL     1      39.728 -15.791  -3.839  1.00  0.00     0.044 C 
BRANCH  21  23
HETATM   23  O   UNL     1      42.005 -15.092  -3.513  1.00  0.00    -0.391 OA
HETATM   24  H   UNL     1      41.978 -14.163  -3.233  1.00  0.00     0.210 HD
ENDBRANCH  21  23
ENDBRANCH  17  21
ENDBRANCH  12  15
ENDBRANCH   1  11
BRANCH   4  25
HETATM   25  C   UNL     1      43.192 -17.342   7.802  1.00  0.00     0.409 C 
HETATM   26  F   UNL     1      41.849 -17.316   7.649  1.00  0.00    -0.169 F 
HETATM   27  F   UNL     1      43.490 -18.540   8.379  1.00  0.00    -0.169 F 
HETATM   28  F   UNL     1      43.542 -16.401   8.701  1.00  0.00    -0.169 F 
ENDBRANCH   4  25
BRANCH   6  29
HETATM   29  C   UNL     1      44.121 -19.584   3.399  1.00  0.00    -0.035 A 
HETATM   30  C   UNL     1      43.361 -19.579   2.217  1.00  0.00     0.009 A 
HETATM   31  C   UNL     1      43.231 -20.736   1.448  1.00  0.00     0.001 A 
HETATM   32  C   UNL     1      43.857 -21.915   1.848  1.00  0.00     0.000 A 
HETATM   33  C   UNL     1      44.618 -21.936   3.014  1.00  0.00     0.001 A 
HETATM   34  C   UNL     1      44.751 -20.778   3.785  1.00  0.00     0.009 A 
ENDBRANCH   6  29
TORSDOF 6
ENDMDL
MODEL 2
REMARK VINA RESULT:     -10.1      1.417      1.552
REMARK  6 active torsions:
REMARK  status: ('A' for Active; 'I' for Inactive)
REMARK    1  A    between atoms: C_2  and  O_3 
REMARK    2  A    between atoms: C_2  and  C_4 
REMARK    3  A    between atoms: C_6  and  N_7 
REMARK       I    between atoms: N_7  and  C_8 
REMARK    4  A    between atoms: C_8  and  C_9 
REMARK    5  A    between atoms: C_12  and  C_13 
REMARK    6  A    between atoms: C_18  and  C_19 
ROOT
HETATM    1  C   UNL     1      41.600 -15.898   3.531  1.00  0.00     0.096 A 
HETATM    2  C   UNL     1      42.548 -16.794   3.992  1.00  0.00     0.138 A 
HETATM    3  N   UNL     1      42.925 -16.336   5.235  1.00  0.00    -0.240 N 
HETATM    4  C   UNL     1      43.863 -17.020   6.111  1.00  0.00     0.221 C 
HETATM    5  C   UNL     1      43.993 -18.497   5.692  1.00  0.00     0.066 C 
HETATM    6  C   UNL     1      44.187 -18.595   4.175  1.00  0.00     0.118 C 
HETATM    7  N   UNL     1      43.069 -17.945   3.487  1.00  0.00    -0.365 N 
HETATM    8  N   UNL     1      42.366 -15.166   5.569  1.00  0.00    -0.181 NA
HETATM    9  C   UNL     1      41.526 -14.925   4.559  1.00  0.00     0.160 A 
HETATM   10  H   UNL     1      42.489 -18.570   2.925  1.00  0.00     0.161 HD
ENDROOT
BRANCH   1  11
HETATM   11  C   UNL     1      40.838 -15.894   2.292  1.00  0.00     0.261 C 
HETATM   12  N   UNL     1      40.869 -14.682   1.628  1.00  0.00    -0.323 N 
HETATM   13  H   UNL     1      41.305 -13.922   2.139  1.00  0.00     0.169 HD
HETATM   14  O   UNL     1      40.225 -16.895   1.939  1.00  0.00    -0.267 OA
BRANCH  12  15
HETATM   15  C   UNL     1      40.324 -14.369   0.369  1.00  0.00     0.035 A 
HETATM   16  C   UNL     1      41.080 -14.255  -0.800  1.00  0.00     0.039 A 
HETATM   17  C   UNL     1      40.479 -13.919  -2.028  1.00  0.00    -0.028 A 
HETATM   18  C   UNL     1      39.095 -13.708  -2.065  1.00  0.00     0.010 A 
HETATM   19  C   UNL     1      38.332 -13.815  -0.904  1.00  0.00     0.003 A 
HETATM   20  C   UNL     1      38.945 -14.142   0.308  1.00  0.00     0.029 A 
BRANCH  17  21
HETATM   21  C   UNL     1      41.333 -13.831  -3.275  1.00  0.00     0.147 C 
HETATM   22  C   UNL     1      42.374 -12.722  -3.160  1.00  0.00     0.044 C 
BRANCH  21  23
HETATM   23  O   UNL     1      41.998 -15.071  -3.509  1.00  0.00    -0.391 OA
HETATM   24  H   UNL     1      42.807 -15.062  -2.973  1.00  0.00     0.210 HD
ENDBRANCH  21  23
ENDBRANCH  17  21
ENDBRANCH  12  15
ENDBRANCH   1  11
BRANCH   4  25
HETATM   25  C   UNL     1      43.452 -16.946   7.568  1.00  0.00     0.409 C 
HETATM   26  F   UNL     1      42.140 -17.217   7.752  1.00  0.00    -0.169 F 
HETATM   27  F   UNL     1      44.141 -17.884   8.276  1.00  0.00    -0.169 F 
HETATM   28  F   UNL     1      43.733 -15.763   8.151  1.00  0.00    -0.169 F 
ENDBRANCH   4  25
BRANCH   6  29
HETATM   29  C   UNL     1      44.331 -20.024   3.693  1.00  0.00    -0.035 A 
HETATM   30  C   UNL     1      44.081 -20.382   2.357  1.00  0.00     0.009 A 
HETATM   31  C   UNL     1      44.220 -21.706   1.936  1.00  0.00     0.001 A 
HETATM   32  C   UNL     1      44.609 -22.690   2.841  1.00  0.00     0.000 A 
HETATM   33  C   UNL     1      44.865 -22.352   4.168  1.00  0.00     0.001 A 
HETATM   34  C   UNL     1      44.729 -21.027   4.591  1.00  0.00     0.009 A 
ENDBRANCH   6  29
TORSDOF 6
ENDMDL
MODEL 3
REMARK VINA RESULT:      -9.3      1.161      2.123
REMARK  6 active torsions:
REMARK  status: ('A' for Active; 'I' for Inactive)
REMARK    1  A    between atoms: C_2  and  O_3 
REMARK    2  A    between atoms: C_2  and  C_4 
REMARK    3  A    between atoms: C_6  and  N_7 
REMARK       I    between atoms: N_7  and  C_8 
REMARK    4  A    between atoms: C_8  and  C_9 
REMARK    5  A    between atoms: C_12  and  C_13 
REMARK    6  A    between atoms: C_18  and  C_19 
ROOT
HETATM    1  C   UNL     1      42.833 -14.857   4.015  1.00  0.00     0.096 A 
HETATM    2  C   UNL     1      43.331 -16.105   4.343  1.00  0.00     0.138 A 
HETATM    3  N   UNL     1      43.499 -16.096   5.710  1.00  0.00    -0.240 N 
HETATM    4  C   UNL     1      43.943 -17.240   6.489  1.00  0.00     0.221 C 
HETATM    5  C   UNL     1      43.739 -18.538   5.683  1.00  0.00     0.066 C 
HETATM    6  C   UNL     1      44.271 -18.357   4.258  1.00  0.00     0.118 C 
HETATM    7  N   UNL     1      43.603 -17.222   3.616  1.00  0.00    -0.365 N 
HETATM    8  N   UNL     1      43.240 -14.910   6.275  1.00  0.00    -0.181 NA
HETATM    9  C   UNL     1      42.790 -14.174   5.255  1.00  0.00     0.160 A 
HETATM   10  H   UNL     1      43.027 -17.465   2.808  1.00  0.00     0.161 HD
ENDROOT
BRANCH   1  11
HETATM   11  C   UNL     1      42.444 -14.313   2.723  1.00  0.00     0.261 C 
HETATM   12  N   UNL     1      41.478 -15.060   2.077  1.00  0.00    -0.323 N 
HETATM   13  H   UNL     1      41.254 -15.947   2.514  1.00  0.00     0.169 HD
HETATM   14  O   UNL     1      42.981 -13.299   2.292  1.00  0.00    -0.267 OA
BRANCH  12  15
HETATM   15  C   UNL     1      40.819 -14.766   0.868  1.00  0.00     0.035 A 
HETATM   16  C   UNL     1      39.589 -14.107   0.793  1.00  0.00     0.039 A 
HETATM   17  C   UNL     1      38.969 -13.859  -0.447  1.00  0.00    -0.028 A 
HETATM   18  C   UNL     1      39.614 -14.277  -1.617  1.00  0.00     0.010 A 
HETATM   19  C   UNL     1      40.839 -14.938  -1.554  1.00  0.00     0.003 A 
HETATM   20  C   UNL     1      41.437 -15.183  -0.315  1.00  0.00     0.029 A 
BRANCH  17  21
HETATM   21  C   UNL     1      37.649 -13.120  -0.484  1.00  0.00     0.147 C 
HETATM   22  C   UNL     1      37.388 -12.381   0.824  1.00  0.00     0.044 C 
BRANCH  21  23
HETATM   23  O   UNL     1      37.636 -12.181  -1.558  1.00  0.00    -0.391 OA
HETATM   24  H   UNL     1      36.727 -12.158  -1.900  1.00  0.00     0.210 HD
ENDBRANCH  21  23
ENDBRANCH  17  21
ENDBRANCH  12  15
ENDBRANCH   1  11
BRANCH   4  25
HETATM   25  C   UNL     1      43.219 -17.354   7.815  1.00  0.00     0.409 C 
HETATM   26  F   UNL     1      41.874 -17.336   7.674  1.00  0.00    -0.169 F 
HETATM   27  F   UNL     1      43.528 -18.547   8.395  1.00  0.00    -0.169 F 
HETATM   28  F   UNL     1      43.571 -16.407   8.708  1.00  0.00    -0.169 F 
ENDBRANCH   4  25
BRANCH   6  29
HETATM   29  C   UNL     1      44.109 -19.602   3.408  1.00  0.00    -0.035 A 
HETATM   30  C   UNL     1      44.787 -20.795   3.709  1.00  0.00     0.009 A 
HETATM   31  C   UNL     1      44.621 -21.929   2.912  1.00  0.00     0.001 A 
HETATM   32  C   UNL     1      43.779 -21.887   1.803  1.00  0.00     0.000 A 
HETATM   33  C   UNL     1      43.096 -20.713   1.493  1.00  0.00     0.001 A 
HETATM   34  C   UNL     1      43.258 -19.578   2.291  1.00  0.00     0.009 A 
ENDBRANCH   6  29
TORSDOF 6
ENDMDL
MODEL 4
REMARK VINA RESULT:      -9.2      4.558      8.171
REMARK  6 active torsions:
REMARK  status: ('A' for Active; 'I' for Inactive)
REMARK    1  A    between atoms: C_2  and  O_3 
REMARK    2  A    between atoms: C_2  and  C_4 
REMARK    3  A    between atoms: C_6  and  N_7 
REMARK       I    between atoms: N_7  and  C_8 
REMARK    4  A    between atoms: C_8  and  C_9 
REMARK    5  A    between atoms: C_12  and  C_13 
REMARK    6  A    between atoms: C_18  and  C_19 
ROOT
HETATM    1  C   UNL     1      42.898 -14.078   5.661  1.00  0.00     0.096 A 
HETATM    2  C   UNL     1      42.614 -15.242   4.971  1.00  0.00     0.138 A 
HETATM    3  N   UNL     1      41.707 -14.890   3.996  1.00  0.00    -0.240 N 
HETATM    4  C   UNL     1      41.185 -15.804   2.993  1.00  0.00     0.221 C 
HETATM    5  C   UNL     1      42.110 -17.031   2.867  1.00  0.00     0.066 C 
HETATM    6  C   UNL     1      42.451 -17.572   4.259  1.00  0.00     0.118 C 
HETATM    7  N   UNL     1      43.074 -16.519   5.064  1.00  0.00    -0.365 N 
HETATM    8  N   UNL     1      41.312 -13.612   4.066  1.00  0.00    -0.181 NA
HETATM    9  C   UNL     1      42.070 -13.108   5.044  1.00  0.00     0.160 A 
HETATM   10  H   UNL     1      44.043 -16.700   5.332  1.00  0.00     0.161 HD
ENDROOT
BRANCH   1  11
HETATM   11  C   UNL     1      43.806 -13.845   6.773  1.00  0.00     0.261 C 
HETATM   12  N   UNL     1      43.590 -12.644   7.422  1.00  0.00    -0.323 N 
HETATM   13  H   UNL     1      42.922 -12.026   6.974  1.00  0.00     0.169 HD
HETATM   14  O   UNL     1      44.679 -14.663   7.041  1.00  0.00    -0.267 OA
BRANCH  12  15
HETATM   15  C   UNL     1      44.222 -12.159   8.582  1.00  0.00     0.035 A 
HETATM   16  C   UNL     1      43.559 -11.924   9.789  1.00  0.00     0.039 A 
HETATM   17  C   UNL     1      44.243 -11.418  10.911  1.00  0.00    -0.028 A 
HETATM   18  C   UNL     1      45.614 -11.160  10.803  1.00  0.00     0.010 A 
HETATM   19  C   UNL     1      46.285 -11.386   9.603  1.00  0.00     0.003 A 
HETATM   20  C   UNL     1      45.591 -11.882   8.497  1.00  0.00     0.029 A 
BRANCH  17  21
HETATM   21  C   UNL     1      43.490 -11.203  12.206  1.00  0.00     0.147 C 
HETATM   22  C   UNL     1      43.282  -9.719  12.490  1.00  0.00     0.044 C 
BRANCH  21  23
HETATM   23  O   UNL     1      42.218 -11.848  12.154  1.00  0.00    -0.391 OA
HETATM   24  H   UNL     1      41.856 -11.830  13.054  1.00  0.00     0.210 HD
ENDBRANCH  21  23
ENDBRANCH  17  21
ENDBRANCH  12  15
ENDBRANCH   1  11
BRANCH   4  25
HETATM   25  C   UNL     1      41.036 -15.147   1.635  1.00  0.00     0.409 C 
HETATM   26  F   UNL     1      42.091 -14.364   1.319  1.00  0.00    -0.169 F 
HETATM   27  F   UNL     1      40.972 -16.112   0.675  1.00  0.00    -0.169 F 
HETATM   28  F   UNL     1      39.907 -14.422   1.506  1.00  0.00    -0.169 F 
ENDBRANCH   4  25
BRANCH   6  29
HETATM   29  C   UNL     1      43.354 -18.789   4.210  1.00  0.00    -0.035 A 
HETATM   30  C   UNL     1      43.757 -19.361   2.992  1.00  0.00     0.009 A 
HETATM   31  C   UNL     1      44.589 -20.482   2.972  1.00  0.00     0.001 A 
HETATM   32  C   UNL     1      45.029 -21.048   4.167  1.00  0.00     0.000 A 
HETATM   33  C   UNL     1      44.642 -20.491   5.383  1.00  0.00     0.001 A 
HETATM   34  C   UNL     1      43.811 -19.367   5.405  1.00  0.00     0.009 A 
ENDBRANCH   6  29
TORSDOF 6
ENDMDL
MODEL 5
REMARK VINA RESULT:      -8.6      4.131      8.520
REMARK  6 active torsions:
REMARK  status: ('A' for Active; 'I' for Inactive)
REMARK    1  A    between atoms: C_2  and  O_3 
REMARK    2  A    between atoms: C_2  and  C_4 
REMARK    3  A    between atoms: C_6  and  N_7 
REMARK       I    between atoms: N_7  and  C_8 
REMARK    4  A    between atoms: C_8  and  C_9 
REMARK    5  A    between atoms: C_12  and  C_13 
REMARK    6  A    between atoms: C_18  and  C_19 
ROOT
HETATM    1  C   UNL     1      42.000 -14.653   1.881  1.00  0.00     0.096 A 
HETATM    2  C   UNL     1      41.306 -14.084   0.829  1.00  0.00     0.138 A 
HETATM    3  N   UNL     1      41.655 -12.752   0.824  1.00  0.00    -0.240 N 
HETATM    4  C   UNL     1      41.202 -11.789  -0.167  1.00  0.00     0.221 C 
HETATM    5  C   UNL     1      40.703 -12.525  -1.426  1.00  0.00     0.066 C 
HETATM    6  C   UNL     1      39.771 -13.674  -1.026  1.00  0.00     0.118 C 
HETATM    7  N   UNL     1      40.469 -14.588  -0.118  1.00  0.00    -0.365 N 
HETATM    8  N   UNL     1      42.443 -12.399   1.848  1.00  0.00    -0.181 NA
HETATM    9  C   UNL     1      42.691 -13.560   2.460  1.00  0.00     0.160 A 
HETATM   10  H   UNL     1      40.613 -15.530  -0.485  1.00  0.00     0.161 HD
ENDROOT
BRANCH   1  11
HETATM   11  C   UNL     1      42.040 -16.032   2.343  1.00  0.00     0.261 C 
HETATM   12  N   UNL     1      43.317 -16.491   2.603  1.00  0.00    -0.323 N 
HETATM   13  H   UNL     1      44.065 -15.866   2.326  1.00  0.00     0.169 HD
HETATM   14  O   UNL     1      41.005 -16.681   2.442  1.00  0.00    -0.267 OA
BRANCH  12  15
HETATM   15  C   UNL     1      43.698 -17.732   3.147  1.00  0.00     0.035 A 
HETATM   16  C   UNL     1      43.783 -17.987   4.519  1.00  0.00     0.039 A 
HETATM   17  C   UNL     1      44.190 -19.245   5.003  1.00  0.00    -0.028 A 
HETATM   18  C   UNL     1      44.502 -20.252   4.081  1.00  0.00     0.010 A 
HETATM   19  C   UNL     1      44.424 -20.007   2.712  1.00  0.00     0.003 A 
HETATM   20  C   UNL     1      44.025 -18.752   2.248  1.00  0.00     0.029 A 
BRANCH  17  21
HETATM   21  C   UNL     1      44.244 -19.486   6.496  1.00  0.00     0.147 C 
HETATM   22  C   UNL     1      43.485 -18.407   7.262  1.00  0.00     0.044 C 
BRANCH  21  23
HETATM   23  O   UNL     1      43.687 -20.760   6.814  1.00  0.00    -0.391 OA
HETATM   24  H   UNL     1      43.564 -20.782   7.776  1.00  0.00     0.210 HD
ENDBRANCH  21  23
ENDBRANCH  17  21
ENDBRANCH  12  15
ENDBRANCH   1  11
BRANCH   4  25
HETATM   25  C   UNL     1      42.288 -10.806  -0.557  1.00  0.00     0.409 C 
HETATM   26  F   UNL     1      43.436 -11.420  -0.921  1.00  0.00    -0.169 F 
HETATM   27  F   UNL     1      41.875 -10.089  -1.640  1.00  0.00    -0.169 F 
HETATM   28  F   UNL     1      42.568  -9.900   0.401  1.00  0.00    -0.169 F 
ENDBRANCH   4  25
BRANCH   6  29
HETATM   29  C   UNL     1      39.235 -14.438  -2.220  1.00  0.00    -0.035 A 
HETATM   30  C   UNL     1      40.038 -15.339  -2.941  1.00  0.00     0.009 A 
HETATM   31  C   UNL     1      39.522 -16.032  -4.038  1.00  0.00     0.001 A 
HETATM   32  C   UNL     1      38.200 -15.835  -4.430  1.00  0.00     0.000 A 
HETATM   33  C   UNL     1      37.390 -14.949  -3.724  1.00  0.00     0.001 A 
HETATM   34  C   UNL     1      37.903 -14.256  -2.625  1.00  0.00     0.009 A 
ENDBRANCH   6  29
TORSDOF 6
ENDMDL
MODEL 6
REMARK VINA RESULT:      -8.6      4.275      7.574
REMARK  6 active torsions:
REMARK  status: ('A' for Active; 'I' for Inactive)
REMARK    1  A    between atoms: C_2  and  O_3 
REMARK    2  A    between atoms: C_2  and  C_4 
REMARK    3  A    between atoms: C_6  and  N_7 
REMARK       I    between atoms: N_7  and  C_8 
REMARK    4  A    between atoms: C_8  and  C_9 
REMARK    5  A    between atoms: C_12  and  C_13 
REMARK    6  A    between atoms: C_18  and  C_19 
ROOT
HETATM    1  C   UNL     1      40.748 -14.021   3.947  1.00  0.00     0.096 A 
HETATM    2  C   UNL     1      41.033 -15.179   3.246  1.00  0.00     0.138 A 
HETATM    3  N   UNL     1      40.562 -14.970   1.968  1.00  0.00    -0.240 N 
HETATM    4  C   UNL     1      40.713 -15.915   0.874  1.00  0.00     0.221 C 
HETATM    5  C   UNL     1      41.843 -16.913   1.193  1.00  0.00     0.066 C 
HETATM    6  C   UNL     1      41.680 -17.448   2.620  1.00  0.00     0.118 C 
HETATM    7  N   UNL     1      41.671 -16.335   3.571  1.00  0.00    -0.365 N 
HETATM    8  N   UNL     1      39.912 -13.809   1.818  1.00  0.00    -0.181 NA
HETATM    9  C   UNL     1      40.067 -13.213   3.004  1.00  0.00     0.160 A 
HETATM   10  H   UNL     1      42.455 -16.325   4.227  1.00  0.00     0.161 HD
ENDROOT
BRANCH   1  11
HETATM   11  C   UNL     1      41.038 -13.666   5.327  1.00  0.00     0.261 C 
HETATM   12  N   UNL     1      41.600 -12.411   5.469  1.00  0.00    -0.323 N 
HETATM   13  H   UNL     1      41.853 -11.952   4.601  1.00  0.00     0.169 HD
HETATM   14  O   UNL     1      40.809 -14.461   6.232  1.00  0.00    -0.267 OA
BRANCH  12  15
HETATM   15  C   UNL     1      41.911 -11.730   6.661  1.00  0.00     0.035 A 
HETATM   16  C   UNL     1      42.963 -12.087   7.509  1.00  0.00     0.039 A 
HETATM   17  C   UNL     1      43.212 -11.378   8.700  1.00  0.00    -0.028 A 
HETATM   18  C   UNL     1      42.389 -10.292   9.022  1.00  0.00     0.010 A 
HETATM   19  C   UNL     1      41.334  -9.931   8.186  1.00  0.00     0.003 A 
HETATM   20  C   UNL     1      41.096 -10.649   7.011  1.00  0.00     0.029 A 
BRANCH  17  21
HETATM   21  C   UNL     1      44.378 -11.782   9.576  1.00  0.00     0.147 C 
HETATM   22  C   UNL     1      44.629 -10.758  10.678  1.00  0.00     0.044 C 
BRANCH  21  23
HETATM   23  O   UNL     1      44.132 -13.055  10.172  1.00  0.00    -0.391 OA
HETATM   24  H   UNL     1      44.676 -13.700   9.691  1.00  0.00     0.210 HD
ENDBRANCH  21  23
ENDBRANCH  17  21
ENDBRANCH  12  15
ENDBRANCH   1  11
BRANCH   4  25
HETATM   25  C   UNL     1      41.007 -15.230  -0.446  1.00  0.00     0.409 C 
HETATM   26  F   UNL     1      42.044 -14.367  -0.362  1.00  0.00    -0.169 F 
HETATM   27  F   UNL     1      41.361 -16.167  -1.369  1.00  0.00    -0.169 F 
HETATM   28  F   UNL     1      39.947 -14.580  -0.966  1.00  0.00    -0.169 F 
ENDBRANCH   4  25
BRANCH   6  29
HETATM   29  C   UNL     1      42.757 -18.445   2.999  1.00  0.00    -0.035 A 
HETATM   30  C   UNL     1      43.387 -18.410   4.254  1.00  0.00     0.009 A 
HETATM   31  C   UNL     1      44.377 -19.339   4.581  1.00  0.00     0.001 A 
HETATM   32  C   UNL     1      44.751 -20.314   3.660  1.00  0.00     0.000 A 
HETATM   33  C   UNL     1      44.134 -20.366   2.413  1.00  0.00     0.001 A 
HETATM   34  C   UNL     1      43.142 -19.439   2.085  1.00  0.00     0.009 A 
ENDBRANCH   6  29
TORSDOF 6
ENDMDL
MODEL 7
REMARK VINA RESULT:      -8.5      2.550      5.005
REMARK  6 active torsions:
REMARK  status: ('A' for Active; 'I' for Inactive)
REMARK    1  A    between atoms: C_2  and  O_3 
REMARK    2  A    between atoms: C_2  and  C_4 
REMARK    3  A    between atoms: C_6  and  N_7 
REMARK       I    between atoms: N_7  and  C_8 
REMARK    4  A    between atoms: C_8  and  C_9 
REMARK    5  A    between atoms: C_12  and  C_13 
REMARK    6  A    between atoms: C_18  and  C_19 
ROOT
HETATM    1  C   UNL     1      42.673 -15.392   3.352  1.00  0.00     0.096 A 
HETATM    2  C   UNL     1      43.161 -15.386   4.646  1.00  0.00     0.138 A 
HETATM    3  N   UNL     1      43.120 -16.697   5.069  1.00  0.00    -0.240 N 
HETATM    4  C   UNL     1      43.607 -17.157   6.359  1.00  0.00     0.221 C 
HETATM    5  C   UNL     1      44.575 -16.118   6.958  1.00  0.00     0.066 C 
HETATM    6  C   UNL     1      43.967 -14.715   6.851  1.00  0.00     0.118 C 
HETATM    7  N   UNL     1      43.661 -14.411   5.451  1.00  0.00    -0.365 N 
HETATM    8  N   UNL     1      42.554 -17.529   4.185  1.00  0.00    -0.181 NA
HETATM    9  C   UNL     1      42.328 -16.747   3.126  1.00  0.00     0.160 A 
HETATM   10  H   UNL     1      44.196 -13.637   5.054  1.00  0.00     0.161 HD
ENDROOT
BRANCH   1  11
HETATM   11  C   UNL     1      42.512 -14.298   2.406  1.00  0.00     0.261 C 
HETATM   12  N   UNL     1      41.651 -14.590   1.365  1.00  0.00    -0.323 N 
HETATM   13  H   UNL     1      41.341 -15.555   1.318  1.00  0.00     0.169 HD
HETATM   14  O   UNL     1      43.131 -13.252   2.558  1.00  0.00    -0.267 OA
BRANCH  12  15
HETATM   15  C   UNL     1      41.205 -13.733   0.341  1.00  0.00     0.035 A 
HETATM   16  C   UNL     1      41.565 -13.872  -1.002  1.00  0.00     0.039 A 
HETATM   17  C   UNL     1      41.103 -12.968  -1.978  1.00  0.00    -0.028 A 
HETATM   18  C   UNL     1      40.260 -11.923  -1.582  1.00  0.00     0.010 A 
HETATM   19  C   UNL     1      39.899 -11.772  -0.244  1.00  0.00     0.003 A 
HETATM   20  C   UNL     1      40.372 -12.673   0.713  1.00  0.00     0.029 A 
BRANCH  17  21
HETATM   21  C   UNL     1      41.496 -13.172  -3.425  1.00  0.00     0.147 C 
HETATM   22  C   UNL     1      42.289 -11.984  -3.959  1.00  0.00     0.044 C 
BRANCH  21  23
HETATM   23  O   UNL     1      42.281 -14.355  -3.564  1.00  0.00    -0.391 OA
HETATM   24  H   UNL     1      41.846 -15.044  -3.037  1.00  0.00     0.210 HD
ENDBRANCH  21  23
ENDBRANCH  17  21
ENDBRANCH  12  15
ENDBRANCH   1  11
BRANCH   4  25
HETATM   25  C   UNL     1      44.306 -18.499   6.267  1.00  0.00     0.409 C 
HETATM   26  F   UNL     1      45.105 -18.594   5.181  1.00  0.00    -0.169 F 
HETATM   27  F   UNL     1      45.113 -18.659   7.353  1.00  0.00    -0.169 F 
HETATM   28  F   UNL     1      43.462 -19.551   6.275  1.00  0.00    -0.169 F 
ENDBRANCH   4  25
BRANCH   6  29
HETATM   29  C   UNL     1      44.865 -13.641   7.431  1.00  0.00    -0.035 A 
HETATM   30  C   UNL     1      46.140 -13.378   6.901  1.00  0.00     0.009 A 
HETATM   31  C   UNL     1      46.949 -12.383   7.452  1.00  0.00     0.001 A 
HETATM   32  C   UNL     1      46.498 -11.638   8.538  1.00  0.00     0.000 A 
HETATM   33  C   UNL     1      45.236 -11.882   9.073  1.00  0.00     0.001 A 
HETATM   34  C   UNL     1      44.423 -12.876   8.522  1.00  0.00     0.009 A 
ENDBRANCH   6  29
TORSDOF 6
ENDMDL
MODEL 8
REMARK VINA RESULT:      -8.4      3.536      7.538
REMARK  6 active torsions:
REMARK  status: ('A' for Active; 'I' for Inactive)
REMARK    1  A    between atoms: C_2  and  O_3 
REMARK    2  A    between atoms: C_2  and  C_4 
REMARK    3  A    between atoms: C_6  and  N_7 
REMARK       I    between atoms: N_7  and  C_8 
REMARK    4  A    between atoms: C_8  and  C_9 
REMARK    5  A    between atoms: C_12  and  C_13 
REMARK    6  A    between atoms: C_18  and  C_19 
ROOT
HETATM    1  C   UNL     1      41.058 -15.837   4.701  1.00  0.00     0.096 A 
HETATM    2  C   UNL     1      40.477 -14.947   3.816  1.00  0.00     0.138 A 
HETATM    3  N   UNL     1      40.406 -13.744   4.483  1.00  0.00    -0.240 N 
HETATM    4  C   UNL     1      39.918 -12.507   3.895  1.00  0.00     0.221 C 
HETATM    5  C   UNL     1      39.952 -12.607   2.357  1.00  0.00     0.066 C 
HETATM    6  C   UNL     1      39.339 -13.936   1.906  1.00  0.00     0.118 C 
HETATM    7  N   UNL     1      40.058 -15.052   2.526  1.00  0.00    -0.365 N 
HETATM    8  N   UNL     1      40.806 -13.813   5.759  1.00  0.00    -0.181 NA
HETATM    9  C   UNL     1      41.247 -15.069   5.877  1.00  0.00     0.160 A 
HETATM   10  H   UNL     1      40.552 -15.661   1.871  1.00  0.00     0.161 HD
ENDROOT
BRANCH   1  11
HETATM   11  C   UNL     1      41.402 -17.240   4.530  1.00  0.00     0.261 C 
HETATM   12  N   UNL     1      42.483 -17.446   3.693  1.00  0.00    -0.323 N 
HETATM   13  H   UNL     1      42.818 -16.619   3.211  1.00  0.00     0.169 HD
HETATM   14  O   UNL     1      40.738 -18.111   5.080  1.00  0.00    -0.267 OA
BRANCH  12  15
HETATM   15  C   UNL     1      43.127 -18.660   3.393  1.00  0.00     0.035 A 
HETATM   16  C   UNL     1      43.737 -19.476   4.350  1.00  0.00     0.039 A 
HETATM   17  C   UNL     1      44.384 -20.671   3.984  1.00  0.00    -0.028 A 
HETATM   18  C   UNL     1      44.401 -21.042   2.634  1.00  0.00     0.010 A 
HETATM   19  C   UNL     1      43.799 -20.234   1.671  1.00  0.00     0.003 A 
HETATM   20  C   UNL     1      43.167 -19.048   2.050  1.00  0.00     0.029 A 
BRANCH  17  21
HETATM   21  C   UNL     1      45.010 -21.536   5.057  1.00  0.00     0.147 C 
HETATM   22  C   UNL     1      44.210 -21.480   6.354  1.00  0.00     0.044 C 
BRANCH  21  23
HETATM   23  O   UNL     1      45.088 -22.892   4.618  1.00  0.00    -0.391 OA
HETATM   24  H   UNL     1      44.996 -22.880   3.652  1.00  0.00     0.210 HD
ENDBRANCH  21  23
ENDBRANCH  17  21
ENDBRANCH  12  15
ENDBRANCH   1  11
BRANCH   4  25
HETATM   25  C   UNL     1      40.721 -11.300   4.338  1.00  0.00     0.409 C 
HETATM   26  F   UNL     1      40.360 -10.859   5.563  1.00  0.00    -0.169 F 
HETATM   27  F   UNL     1      42.036 -11.644   4.425  1.00  0.00    -0.169 F 
HETATM   28  F   UNL     1      40.665 -10.267   3.474  1.00  0.00    -0.169 F 
ENDBRANCH   4  25
BRANCH   6  29
HETATM   29  C   UNL     1      39.332 -14.098   0.399  1.00  0.00    -0.035 A 
HETATM   30  C   UNL     1      40.458 -14.567  -0.299  1.00  0.00     0.009 A 
HETATM   31  C   UNL     1      40.428 -14.707  -1.688  1.00  0.00     0.001 A 
HETATM   32  C   UNL     1      39.275 -14.381  -2.398  1.00  0.00     0.000 A 
HETATM   33  C   UNL     1      38.149 -13.920  -1.722  1.00  0.00     0.001 A 
HETATM   34  C   UNL     1      38.176 -13.780  -0.332  1.00  0.00     0.009 A 
ENDBRANCH   6  29
TORSDOF 6
ENDMDL
MODEL 9
REMARK VINA RESULT:      -8.2      4.647      7.645
REMARK  6 active torsions:
REMARK  status: ('A' for Active; 'I' for Inactive)
REMARK    1  A    between atoms: C_2  and  O_3 
REMARK    2  A    between atoms: C_2  and  C_4 
REMARK    3  A    between atoms: C_6  and  N_7 
REMARK       I    between atoms: N_7  and  C_8 
REMARK    4  A    between atoms: C_8  and  C_9 
REMARK    5  A    between atoms: C_12  and  C_13 
REMARK    6  A    between atoms: C_18  and  C_19 
ROOT
HETATM    1  C   UNL     1      40.349 -13.862   3.961  1.00  0.00     0.096 A 
HETATM    2  C   UNL     1      40.701 -14.993   3.248  1.00  0.00     0.138 A 
HETATM    3  N   UNL     1      40.294 -14.764   1.952  1.00  0.00    -0.240 N 
HETATM    4  C   UNL     1      40.529 -15.676   0.845  1.00  0.00     0.221 C 
HETATM    5  C   UNL     1      41.667 -16.653   1.200  1.00  0.00     0.066 C 
HETATM    6  C   UNL     1      41.443 -17.229   2.602  1.00  0.00     0.118 C 
HETATM    7  N   UNL     1      41.353 -16.141   3.579  1.00  0.00    -0.365 N 
HETATM    8  N   UNL     1      39.622 -13.616   1.795  1.00  0.00    -0.181 NA
HETATM    9  C   UNL     1      39.698 -13.047   3.002  1.00  0.00     0.160 A 
HETATM   10  H   UNL     1      42.100 -16.127   4.276  1.00  0.00     0.161 HD
ENDROOT
BRANCH   1  11
HETATM   11  C   UNL     1      40.555 -13.536   5.363  1.00  0.00     0.261 C 
HETATM   12  N   UNL     1      40.889 -12.212   5.579  1.00  0.00    -0.323 N 
HETATM   13  H   UNL     1      41.071 -11.670   4.741  1.00  0.00     0.169 HD
HETATM   14  O   UNL     1      40.455 -14.404   6.222  1.00  0.00    -0.267 OA
BRANCH  12  15
HETATM   15  C   UNL     1      41.062 -11.551   6.810  1.00  0.00     0.035 A 
HETATM   16  C   UNL     1      40.017 -10.969   7.534  1.00  0.00     0.039 A 
HETATM   17  C   UNL     1      40.256 -10.304   8.752  1.00  0.00    -0.028 A 
HETATM   18  C   UNL     1      41.568 -10.240   9.238  1.00  0.00     0.010 A 
HETATM   19  C   UNL     1      42.617 -10.812   8.521  1.00  0.00     0.003 A 
HETATM   20  C   UNL     1      42.364 -11.463   7.312  1.00  0.00     0.029 A 
BRANCH  17  21
HETATM   21  C   UNL     1      39.092  -9.710   9.515  1.00  0.00     0.147 C 
HETATM   22  C   UNL     1      38.716  -8.334   8.977  1.00  0.00     0.044 C 
BRANCH  21  23
HETATM   23  O   UNL     1      37.955 -10.569   9.432  1.00  0.00    -0.391 OA
HETATM   24  H   UNL     1      37.779 -10.890  10.331  1.00  0.00     0.210 HD
ENDBRANCH  21  23
ENDBRANCH  17  21
ENDBRANCH  12  15
ENDBRANCH   1  11
BRANCH   4  25
HETATM   25  C   UNL     1      40.875 -14.949  -0.440  1.00  0.00     0.409 C 
HETATM   26  F   UNL     1      41.863 -14.042  -0.272  1.00  0.00    -0.169 F 
HETATM   27  F   UNL     1      41.331 -15.849  -1.355  1.00  0.00    -0.169 F 
HETATM   28  F   UNL     1      39.821 -14.337  -1.016  1.00  0.00    -0.169 F 
ENDBRANCH   4  25
BRANCH   6  29
HETATM   29  C   UNL     1      42.524 -18.207   3.015  1.00  0.00    -0.035 A 
HETATM   30  C   UNL     1      43.131 -19.072   2.088  1.00  0.00     0.009 A 
HETATM   31  C   UNL     1      44.125 -19.965   2.492  1.00  0.00     0.001 A 
HETATM   32  C   UNL     1      44.526 -20.008   3.826  1.00  0.00     0.000 A 
HETATM   33  C   UNL     1      43.937 -19.156   4.756  1.00  0.00     0.001 A 
HETATM   34  C   UNL     1      42.944 -18.259   4.354  1.00  0.00     0.009 A 
ENDBRANCH   6  29
TORSDOF 6
ENDMDL
MODEL 10
REMARK VINA RESULT:      -8.2      5.223      8.770
REMARK  6 active torsions:
REMARK  status: ('A' for Active; 'I' for Inactive)
REMARK    1  A    between atoms: C_2  and  O_3 
REMARK    2  A    between atoms: C_2  and  C_4 
REMARK    3  A    between atoms: C_6  and  N_7 
REMARK       I    between atoms: N_7  and  C_8 
REMARK    4  A    between atoms: C_8  and  C_9 
REMARK    5  A    between atoms: C_12  and  C_13 
REMARK    6  A    between atoms: C_18  and  C_19 
ROOT
HETATM    1  C   UNL     1      39.737 -12.521   6.019  1.00  0.00     0.096 A 
HETATM    2  C   UNL     1      40.134 -13.754   5.534  1.00  0.00     0.138 A 
HETATM    3  N   UNL     1      39.848 -13.738   4.187  1.00  0.00    -0.240 N 
HETATM    4  C   UNL     1      40.167 -14.818   3.268  1.00  0.00     0.221 C 
HETATM    5  C   UNL     1      41.252 -15.727   3.880  1.00  0.00     0.066 C 
HETATM    6  C   UNL     1      40.893 -16.066   5.330  1.00  0.00     0.118 C 
HETATM    7  N   UNL     1      40.734 -14.833   6.105  1.00  0.00    -0.365 N 
HETATM    8  N   UNL     1      39.212 -12.630   3.785  1.00  0.00    -0.181 NA
HETATM    9  C   UNL     1      39.188 -11.872   4.885  1.00  0.00     0.160 A 
HETATM   10  H   UNL     1      41.415 -14.707   6.856  1.00  0.00     0.161 HD
ENDROOT
BRANCH   1  11
HETATM   11  C   UNL     1      39.822 -11.970   7.363  1.00  0.00     0.261 C 
HETATM   12  N   UNL     1      40.963 -11.222   7.583  1.00  0.00    -0.323 N 
HETATM   13  H   UNL     1      41.649 -11.253   6.837  1.00  0.00     0.169 HD
HETATM   14  O   UNL     1      38.945 -12.208   8.185  1.00  0.00    -0.267 OA
BRANCH  12  15
HETATM   15  C   UNL     1      41.306 -10.480   8.729  1.00  0.00     0.035 A 
HETATM   16  C   UNL     1      42.174 -10.941   9.723  1.00  0.00     0.039 A 
HETATM   17  C   UNL     1      42.463 -10.159  10.858  1.00  0.00    -0.028 A 
HETATM   18  C   UNL     1      41.871  -8.897  10.974  1.00  0.00     0.010 A 
HETATM   19  C   UNL     1      41.000  -8.430   9.991  1.00  0.00     0.003 A 
HETATM   20  C   UNL     1      40.718  -9.220   8.875  1.00  0.00     0.029 A 
BRANCH  17  21
HETATM   21  C   UNL     1      43.429 -10.687  11.897  1.00  0.00     0.147 C 
HETATM   22  C   UNL     1      43.387  -9.850  13.171  1.00  0.00     0.044 C 
BRANCH  21  23
HETATM   23  O   UNL     1      43.119 -12.042  12.220  1.00  0.00    -0.391 OA
HETATM   24  H   UNL     1      43.463 -12.204  13.113  1.00  0.00     0.210 HD
ENDBRANCH  21  23
ENDBRANCH  17  21
ENDBRANCH  12  15
ENDBRANCH   1  11
BRANCH   4  25
HETATM   25  C   UNL     1      40.638 -14.312   1.920  1.00  0.00     0.409 C 
HETATM   26  F   UNL     1      41.522 -13.295   2.028  1.00  0.00    -0.169 F 
HETATM   27  F   UNL     1      41.286 -15.315   1.265  1.00  0.00    -0.169 F 
HETATM   28  F   UNL     1      39.635 -13.926   1.105  1.00  0.00    -0.169 F 
ENDBRANCH   4  25
BRANCH   6  29
HETATM   29  C   UNL     1      41.916 -16.966   5.993  1.00  0.00    -0.035 A 
HETATM   30  C   UNL     1      42.438 -16.679   7.266  1.00  0.00     0.009 A 
HETATM   31  C   UNL     1      43.380 -17.523   7.857  1.00  0.00     0.001 A 
HETATM   32  C   UNL     1      43.815 -18.663   7.185  1.00  0.00     0.000 A 
HETATM   33  C   UNL     1      43.306 -18.964   5.924  1.00  0.00     0.001 A 
HETATM   34  C   UNL     1      42.361 -18.122   5.332  1.00  0.00     0.009 A 
ENDBRANCH   6  29
TORSDOF 6
ENDMDL
