MODEL 1
REMARK VINA RESULT:      -8.3      0.000      0.000
REMARK  5 active torsions:
REMARK  status: ('A' for Active; 'I' for Inactive)
REMARK    1  A    between atoms: C_2  and  O_3 
REMARK    2  A    between atoms: O_3  and  C_4 
REMARK    3  A    between atoms: C_5  and  C_6 
REMARK    4  A    between atoms: C_7  and  C_8 
REMARK       I    between atoms: C_8  and  N_9 
REMARK    5  A    between atoms: N_9  and  C_10 
ROOT
HETATM    1  C   UNL     1      41.267 -16.892   1.863  1.00  0.00     0.042 C 
HETATM    2  C   UNL     1      42.254 -16.793   2.773  1.00  0.00     0.113 C 
HETATM    3  C   UNL     1      43.028 -15.618   2.948  1.00  0.00     0.105 C 
HETATM    4  N   UNL     1      43.702 -14.693   3.137  1.00  0.00    -0.191 NA
ENDROOT
BRANCH   2   5
HETATM    5  C   UNL     1      42.555 -18.037   3.566  1.00  0.00     0.266 C 
HETATM    6  N   UNL     1      43.726 -18.693   3.227  1.00  0.00    -0.321 N 
HETATM    7  H   UNL     1      44.445 -18.158   2.756  1.00  0.00     0.169 HD
HETATM    8  O   UNL     1      41.802 -18.381   4.473  1.00  0.00    -0.267 OA
BRANCH   6   9
HETATM    9  C   UNL     1      44.150 -19.939   3.760  1.00  0.00     0.047 A 
HETATM   10  C   UNL     1      44.636 -20.092   5.078  1.00  0.00    -0.035 A 
HETATM   11  C   UNL     1      44.650 -18.999   6.116  1.00  0.00     0.050 C 
HETATM   12  C   UNL     1      45.095 -21.354   5.500  1.00  0.00     0.009 A 
HETATM   13  C   UNL     1      45.012 -22.464   4.669  1.00  0.00     0.001 A 
HETATM   14  C   UNL     1      44.459 -22.334   3.401  1.00  0.00     0.009 A 
HETATM   15  C   UNL     1      44.018 -21.084   2.934  1.00  0.00    -0.035 A 
HETATM   16  C   UNL     1      43.455 -21.012   1.538  1.00  0.00     0.050 C 
ENDBRANCH   6   9
ENDBRANCH   2   5
BRANCH   1  17
HETATM   17  C   UNL     1      40.830 -15.847   0.925  1.00  0.00     0.002 A 
HETATM   18  C   UNL     1      39.889 -14.872   1.334  1.00  0.00     0.079 A 
HETATM   19  C   UNL     1      39.563 -13.785   0.519  1.00  0.00     0.047 A 
HETATM   20  C   UNL     1      40.147 -13.719  -0.731  1.00  0.00    -0.020 A 
HETATM   21  C   UNL     1      41.037 -14.694  -1.153  1.00  0.00     0.076 A 
HETATM   22  C   UNL     1      40.059 -12.657  -1.757  1.00  0.00     0.073 C 
HETATM   23  C   UNL     1      41.403 -15.758  -0.350  1.00  0.00     0.051 A 
HETATM   24  O   UNL     1      41.544 -14.466  -2.406  1.00  0.00    -0.345 OA
HETATM   25  C   UNL     1      40.704 -13.405  -2.934  1.00  0.00     0.129 C 
HETATM   26  C   UNL     1      41.549 -12.494  -3.809  1.00  0.00     0.040 C 
BRANCH  18  27
HETATM   27  O   UNL     1      39.322 -14.922   2.582  1.00  0.00    -0.351 OA
BRANCH  27  28
HETATM   28  C   UNL     1      39.785 -13.836   3.398  1.00  0.00     0.171 C 
HETATM   29  C   UNL     1      39.947 -14.327   4.826  1.00  0.00     0.034 C 
ENDBRANCH  27  28
ENDBRANCH  18  27
ENDBRANCH   1  17
TORSDOF 5
ENDMDL
MODEL 2
REMARK VINA RESULT:      -8.3      2.055      8.094
REMARK  5 active torsions:
REMARK  status: ('A' for Active; 'I' for Inactive)
REMARK    1  A    between atoms: C_2  and  O_3 
REMARK    2  A    between atoms: O_3  and  C_4 
REMARK    3  A    between atoms: C_5  and  C_6 
REMARK    4  A    between atoms: C_7  and  C_8 
REMARK       I    between atoms: C_8  and  N_9 
REMARK    5  A    between atoms: N_9  and  C_10 
ROOT
HETATM    1  C   UNL     1      41.919 -16.160   2.177  1.00  0.00     0.042 C 
HETATM    2  C   UNL     1      42.270 -14.871   2.008  1.00  0.00     0.113 C 
HETATM    3  C   UNL     1      43.192 -14.205   2.854  1.00  0.00     0.105 C 
HETATM    4  N   UNL     1      43.932 -13.598   3.511  1.00  0.00    -0.191 NA
ENDROOT
BRANCH   2   5
HETATM    5  C   UNL     1      41.570 -14.131   0.900  1.00  0.00     0.266 C 
HETATM    6  N   UNL     1      40.429 -14.738   0.404  1.00  0.00    -0.321 N 
HETATM    7  H   UNL     1      39.955 -15.406   0.999  1.00  0.00     0.169 HD
HETATM    8  O   UNL     1      41.999 -13.042   0.526  1.00  0.00    -0.267 OA
BRANCH   6   9
HETATM    9  C   UNL     1      39.678 -14.280  -0.711  1.00  0.00     0.047 A 
HETATM   10  C   UNL     1      39.993 -14.617  -2.048  1.00  0.00    -0.035 A 
HETATM   11  C   UNL     1      41.070 -15.590  -2.453  1.00  0.00     0.050 C 
HETATM   12  C   UNL     1      39.230 -14.064  -3.094  1.00  0.00     0.009 A 
HETATM   13  C   UNL     1      38.133 -13.253  -2.833  1.00  0.00     0.001 A 
HETATM   14  C   UNL     1      37.772 -12.987  -1.518  1.00  0.00     0.009 A 
HETATM   15  C   UNL     1      38.527 -13.496  -0.448  1.00  0.00    -0.035 A 
HETATM   16  C   UNL     1      38.092 -13.143   0.951  1.00  0.00     0.050 C 
ENDBRANCH   6   9
ENDBRANCH   2   5
BRANCH   1  17
HETATM   17  C   UNL     1      42.406 -17.071   3.223  1.00  0.00     0.002 A 
HETATM   18  C   UNL     1      41.825 -17.050   4.513  1.00  0.00     0.079 A 
HETATM   19  C   UNL     1      42.163 -17.997   5.484  1.00  0.00     0.047 A 
HETATM   20  C   UNL     1      43.130 -18.929   5.163  1.00  0.00    -0.020 A 
HETATM   21  C   UNL     1      43.734 -18.928   3.916  1.00  0.00     0.076 A 
HETATM   22  C   UNL     1      43.620 -20.086   5.946  1.00  0.00     0.073 C 
HETATM   23  C   UNL     1      43.389 -18.025   2.928  1.00  0.00     0.051 A 
HETATM   24  O   UNL     1      44.653 -19.933   3.752  1.00  0.00    -0.345 OA
HETATM   25  C   UNL     1      44.847 -20.449   5.096  1.00  0.00     0.129 C 
HETATM   26  C   UNL     1      45.082 -21.949   5.022  1.00  0.00     0.040 C 
BRANCH  18  27
HETATM   27  O   UNL     1      40.848 -16.140   4.830  1.00  0.00    -0.351 OA
BRANCH  27  28
HETATM   28  C   UNL     1      41.285 -15.263   5.878  1.00  0.00     0.171 C 
HETATM   29  C   UNL     1      40.658 -13.896   5.671  1.00  0.00     0.034 C 
ENDBRANCH  27  28
ENDBRANCH  18  27
ENDBRANCH   1  17
TORSDOF 5
ENDMDL
MODEL 3
REMARK VINA RESULT:      -8.2      2.689      5.221
REMARK  5 active torsions:
REMARK  status: ('A' for Active; 'I' for Inactive)
REMARK    1  A    between atoms: C_2  and  O_3 
REMARK    2  A    between atoms: O_3  and  C_4 
REMARK    3  A    between atoms: C_5  and  C_6 
REMARK    4  A    between atoms: C_7  and  C_8 
REMARK       I    between atoms: C_8  and  N_9 
REMARK    5  A    between atoms: N_9  and  C_10 
ROOT
HETATM    1  C   UNL     1      40.793 -14.769   4.642  1.00  0.00     0.042 C 
HETATM    2  C   UNL     1      42.022 -15.189   4.288  1.00  0.00     0.113 C 
HETATM    3  C   UNL     1      43.052 -14.306   3.877  1.00  0.00     0.105 C 
HETATM    4  N   UNL     1      43.935 -13.640   3.524  1.00  0.00    -0.191 NA
ENDROOT
BRANCH   2   5
HETATM    5  C   UNL     1      42.239 -16.679   4.278  1.00  0.00     0.266 C 
HETATM    6  N   UNL     1      43.541 -17.092   4.055  1.00  0.00    -0.321 N 
HETATM    7  H   UNL     1      44.284 -16.433   4.255  1.00  0.00     0.169 HD
HETATM    8  O   UNL     1      41.297 -17.435   4.502  1.00  0.00    -0.267 OA
BRANCH   6   9
HETATM    9  C   UNL     1      43.955 -18.440   3.892  1.00  0.00     0.047 A 
HETATM   10  C   UNL     1      43.869 -19.134   2.664  1.00  0.00    -0.035 A 
HETATM   11  C   UNL     1      43.451 -18.509   1.358  1.00  0.00     0.050 C 
HETATM   12  C   UNL     1      44.243 -20.490   2.611  1.00  0.00     0.009 A 
HETATM   13  C   UNL     1      44.762 -21.137   3.726  1.00  0.00     0.001 A 
HETATM   14  C   UNL     1      44.925 -20.434   4.914  1.00  0.00     0.009 A 
HETATM   15  C   UNL     1      44.535 -19.088   5.012  1.00  0.00    -0.035 A 
HETATM   16  C   UNL     1      44.715 -18.398   6.340  1.00  0.00     0.050 C 
ENDBRANCH   6   9
ENDBRANCH   2   5
BRANCH   1  17
HETATM   17  C   UNL     1      40.314 -13.379   4.665  1.00  0.00     0.002 A 
HETATM   18  C   UNL     1      39.622 -12.845   3.552  1.00  0.00     0.079 A 
HETATM   19  C   UNL     1      39.029 -11.581   3.597  1.00  0.00     0.047 A 
HETATM   20  C   UNL     1      39.188 -10.837   4.750  1.00  0.00    -0.020 A 
HETATM   21  C   UNL     1      39.901 -11.337   5.827  1.00  0.00     0.076 A 
HETATM   22  C   UNL     1      38.609  -9.523   5.110  1.00  0.00     0.073 C 
HETATM   23  C   UNL     1      40.464 -12.599   5.820  1.00  0.00     0.051 A 
HETATM   24  O   UNL     1      39.942 -10.484   6.900  1.00  0.00    -0.345 OA
HETATM   25  C   UNL     1      39.446  -9.228   6.364  1.00  0.00     0.129 C 
HETATM   26  C   UNL     1      38.648  -8.511   7.441  1.00  0.00     0.040 C 
BRANCH  18  27
HETATM   27  O   UNL     1      39.444 -13.589   2.413  1.00  0.00    -0.351 OA
BRANCH  27  28
HETATM   28  C   UNL     1      38.444 -13.001   1.569  1.00  0.00     0.171 C 
HETATM   29  C   UNL     1      37.653 -14.108   0.896  1.00  0.00     0.034 C 
ENDBRANCH  27  28
ENDBRANCH  18  27
ENDBRANCH   1  17
TORSDOF 5
ENDMDL
MODEL 4
REMARK VINA RESULT:      -8.1      2.683      4.930
REMARK  5 active torsions:
REMARK  status: ('A' for Active; 'I' for Inactive)
REMARK    1  A    between atoms: C_2  and  O_3 
REMARK    2  A    between atoms: O_3  and  C_4 
REMARK    3  A    between atoms: C_5  and  C_6 
REMARK    4  A    between atoms: C_7  and  C_8 
REMARK       I    between atoms: C_8  and  N_9 
REMARK    5  A    between atoms: N_9  and  C_10 
ROOT
HETATM    1  C   UNL     1      40.747 -14.754   4.671  1.00  0.00     0.042 C 
HETATM    2  C   UNL     1      41.980 -15.180   4.341  1.00  0.00     0.113 C 
HETATM    3  C   UNL     1      43.006 -14.308   3.897  1.00  0.00     0.105 C 
HETATM    4  N   UNL     1      43.886 -13.651   3.521  1.00  0.00    -0.191 NA
ENDROOT
BRANCH   2   5
HETATM    5  C   UNL     1      42.207 -16.668   4.395  1.00  0.00     0.266 C 
HETATM    6  N   UNL     1      43.489 -17.088   4.087  1.00  0.00    -0.321 N 
HETATM    7  H   UNL     1      44.241 -16.417   4.187  1.00  0.00     0.169 HD
HETATM    8  O   UNL     1      41.293 -17.413   4.737  1.00  0.00    -0.267 OA
BRANCH   6   9
HETATM    9  C   UNL     1      43.899 -18.442   3.964  1.00  0.00     0.047 A 
HETATM   10  C   UNL     1      44.322 -19.226   5.062  1.00  0.00    -0.035 A 
HETATM   11  C   UNL     1      44.275 -18.778   6.500  1.00  0.00     0.050 C 
HETATM   12  C   UNL     1      44.772 -20.540   4.837  1.00  0.00     0.009 A 
HETATM   13  C   UNL     1      44.742 -21.103   3.567  1.00  0.00     0.001 A 
HETATM   14  C   UNL     1      44.249 -20.363   2.499  1.00  0.00     0.009 A 
HETATM   15  C   UNL     1      43.819 -19.038   2.680  1.00  0.00    -0.035 A 
HETATM   16  C   UNL     1      43.323 -18.287   1.471  1.00  0.00     0.050 C 
ENDBRANCH   6   9
ENDBRANCH   2   5
BRANCH   1  17
HETATM   17  C   UNL     1      40.258 -13.368   4.634  1.00  0.00     0.002 A 
HETATM   18  C   UNL     1      39.548 -12.893   3.505  1.00  0.00     0.079 A 
HETATM   19  C   UNL     1      38.947 -11.632   3.497  1.00  0.00     0.047 A 
HETATM   20  C   UNL     1      39.115 -10.832   4.610  1.00  0.00    -0.020 A 
HETATM   21  C   UNL     1      39.846 -11.275   5.701  1.00  0.00     0.076 A 
HETATM   22  C   UNL     1      38.532  -9.506   4.915  1.00  0.00     0.073 C 
HETATM   23  C   UNL     1      40.417 -12.532   5.747  1.00  0.00     0.051 A 
HETATM   24  O   UNL     1      39.894 -10.370   6.731  1.00  0.00    -0.345 OA
HETATM   25  C   UNL     1      39.383  -9.145   6.142  1.00  0.00     0.129 C 
HETATM   26  C   UNL     1      38.594  -8.382   7.193  1.00  0.00     0.040 C 
BRANCH  18  27
HETATM   27  O   UNL     1      39.360 -13.692   2.405  1.00  0.00    -0.351 OA
BRANCH  27  28
HETATM   28  C   UNL     1      38.435 -13.092   1.488  1.00  0.00     0.171 C 
HETATM   29  C   UNL     1      37.587 -14.182   0.860  1.00  0.00     0.034 C 
ENDBRANCH  27  28
ENDBRANCH  18  27
ENDBRANCH   1  17
TORSDOF 5
ENDMDL
MODEL 5
REMARK VINA RESULT:      -8.0      3.395      8.522
REMARK  5 active torsions:
REMARK  status: ('A' for Active; 'I' for Inactive)
REMARK    1  A    between atoms: C_2  and  O_3 
REMARK    2  A    between atoms: O_3  and  C_4 
REMARK    3  A    between atoms: C_5  and  C_6 
REMARK    4  A    between atoms: C_7  and  C_8 
REMARK       I    between atoms: C_8  and  N_9 
REMARK    5  A    between atoms: N_9  and  C_10 
ROOT
HETATM    1  C   UNL     1      41.383 -15.893   4.424  1.00  0.00     0.042 C 
HETATM    2  C   UNL     1      41.654 -14.592   4.212  1.00  0.00     0.113 C 
HETATM    3  C   UNL     1      42.922 -14.128   3.778  1.00  0.00     0.105 C 
HETATM    4  N   UNL     1      43.935 -13.681   3.431  1.00  0.00    -0.191 NA
ENDROOT
BRANCH   2   5
HETATM    5  C   UNL     1      40.549 -13.621   4.531  1.00  0.00     0.266 C 
HETATM    6  N   UNL     1      40.750 -12.322   4.097  1.00  0.00    -0.321 N 
HETATM    7  H   UNL     1      41.401 -12.177   3.335  1.00  0.00     0.169 HD
HETATM    8  O   UNL     1      39.536 -14.015   5.104  1.00  0.00    -0.267 OA
BRANCH   6   9
HETATM    9  C   UNL     1      39.899 -11.222   4.384  1.00  0.00     0.047 A 
HETATM   10  C   UNL     1      38.778 -10.883   3.592  1.00  0.00    -0.035 A 
HETATM   11  C   UNL     1      38.271 -11.701   2.433  1.00  0.00     0.050 C 
HETATM   12  C   UNL     1      38.029  -9.736   3.916  1.00  0.00     0.009 A 
HETATM   13  C   UNL     1      38.329  -8.974   5.039  1.00  0.00     0.001 A 
HETATM   14  C   UNL     1      39.380  -9.353   5.865  1.00  0.00     0.009 A 
HETATM   15  C   UNL     1      40.168 -10.474   5.557  1.00  0.00    -0.035 A 
HETATM   16  C   UNL     1      41.309 -10.808   6.484  1.00  0.00     0.050 C 
ENDBRANCH   6   9
ENDBRANCH   2   5
BRANCH   1  17
HETATM   17  C   UNL     1      42.310 -17.021   4.253  1.00  0.00     0.002 A 
HETATM   18  C   UNL     1      43.132 -17.436   5.328  1.00  0.00     0.079 A 
HETATM   19  C   UNL     1      43.916 -18.590   5.246  1.00  0.00     0.047 A 
HETATM   20  C   UNL     1      43.908 -19.290   4.055  1.00  0.00    -0.020 A 
HETATM   21  C   UNL     1      43.137 -18.865   2.985  1.00  0.00     0.076 A 
HETATM   22  C   UNL     1      44.559 -20.574   3.713  1.00  0.00     0.073 C 
HETATM   23  C   UNL     1      42.326 -17.748   3.055  1.00  0.00     0.051 A 
HETATM   24  O   UNL     1      43.223 -19.685   1.889  1.00  0.00    -0.345 OA
HETATM   25  C   UNL     1      44.349 -20.552   2.191  1.00  0.00     0.129 C 
HETATM   26  C   UNL     1      44.076 -21.934   1.621  1.00  0.00     0.040 C 
BRANCH  18  27
HETATM   27  O   UNL     1      43.127 -16.756   6.520  1.00  0.00    -0.351 OA
BRANCH  27  28
HETATM   28  C   UNL     1      44.437 -16.263   6.833  1.00  0.00     0.171 C 
HETATM   29  C   UNL     1      44.354 -14.767   7.082  1.00  0.00     0.034 C 
ENDBRANCH  27  28
ENDBRANCH  18  27
ENDBRANCH   1  17
TORSDOF 5
ENDMDL
MODEL 6
REMARK VINA RESULT:      -8.0      2.164      8.268
REMARK  5 active torsions:
REMARK  status: ('A' for Active; 'I' for Inactive)
REMARK    1  A    between atoms: C_2  and  O_3 
REMARK    2  A    between atoms: O_3  and  C_4 
REMARK    3  A    between atoms: C_5  and  C_6 
REMARK    4  A    between atoms: C_7  and  C_8 
REMARK       I    between atoms: C_8  and  N_9 
REMARK    5  A    between atoms: N_9  and  C_10 
ROOT
HETATM    1  C   UNL     1      42.667 -15.928   1.441  1.00  0.00     0.042 C 
HETATM    2  C   UNL     1      41.359 -15.707   1.210  1.00  0.00     0.113 C 
HETATM    3  C   UNL     1      40.327 -16.418   1.873  1.00  0.00     0.105 C 
HETATM    4  N   UNL     1      39.434 -16.967   2.372  1.00  0.00    -0.191 NA
ENDROOT
BRANCH   2   5
HETATM    5  C   UNL     1      41.034 -14.699   0.141  1.00  0.00     0.266 C 
HETATM    6  N   UNL     1      42.114 -14.225  -0.583  1.00  0.00    -0.321 N 
HETATM    7  H   UNL     1      42.951 -14.795  -0.606  1.00  0.00     0.169 HD
HETATM    8  O   UNL     1      39.865 -14.383  -0.066  1.00  0.00    -0.267 OA
BRANCH   6   9
HETATM    9  C   UNL     1      42.058 -13.192  -1.556  1.00  0.00     0.047 A 
HETATM   10  C   UNL     1      41.800 -13.431  -2.925  1.00  0.00    -0.035 A 
HETATM   11  C   UNL     1      41.430 -14.773  -3.503  1.00  0.00     0.050 C 
HETATM   12  C   UNL     1      41.827 -12.353  -3.829  1.00  0.00     0.009 A 
HETATM   13  C   UNL     1      42.033 -11.051  -3.389  1.00  0.00     0.001 A 
HETATM   14  C   UNL     1      42.206 -10.803  -2.033  1.00  0.00     0.009 A 
HETATM   15  C   UNL     1      42.214 -11.857  -1.105  1.00  0.00    -0.035 A 
HETATM   16  C   UNL     1      42.435 -11.516   0.347  1.00  0.00     0.050 C 
ENDBRANCH   6   9
ENDBRANCH   2   5
BRANCH   1  17
HETATM   17  C   UNL     1      43.239 -16.904   2.381  1.00  0.00     0.002 A 
HETATM   18  C   UNL     1      43.350 -16.589   3.756  1.00  0.00     0.079 A 
HETATM   19  C   UNL     1      43.753 -17.542   4.695  1.00  0.00     0.047 A 
HETATM   20  C   UNL     1      44.097 -18.797   4.231  1.00  0.00    -0.020 A 
HETATM   21  C   UNL     1      44.030 -19.099   2.880  1.00  0.00     0.076 A 
HETATM   22  C   UNL     1      44.470 -20.012   4.988  1.00  0.00     0.073 C 
HETATM   23  C   UNL     1      43.599 -18.184   1.938  1.00  0.00     0.051 A 
HETATM   24  O   UNL     1      44.380 -20.393   2.591  1.00  0.00    -0.345 OA
HETATM   25  C   UNL     1      44.978 -20.875   3.824  1.00  0.00     0.129 C 
HETATM   26  C   UNL     1      44.637 -22.346   3.997  1.00  0.00     0.040 C 
BRANCH  18  27
HETATM   27  O   UNL     1      42.990 -15.350   4.224  1.00  0.00    -0.351 OA
BRANCH  27  28
HETATM   28  C   UNL     1      41.978 -15.459   5.235  1.00  0.00     0.171 C 
HETATM   29  C   UNL     1      40.892 -14.435   4.958  1.00  0.00     0.034 C 
ENDBRANCH  27  28
ENDBRANCH  18  27
ENDBRANCH   1  17
TORSDOF 5
ENDMDL
MODEL 7
REMARK VINA RESULT:      -8.0      2.424      4.161
REMARK  5 active torsions:
REMARK  status: ('A' for Active; 'I' for Inactive)
REMARK    1  A    between atoms: C_2  and  O_3 
REMARK    2  A    between atoms: O_3  and  C_4 
REMARK    3  A    between atoms: C_5  and  C_6 
REMARK    4  A    between atoms: C_7  and  C_8 
REMARK       I    between atoms: C_8  and  N_9 
REMARK    5  A    between atoms: N_9  and  C_10 
ROOT
HETATM    1  C   UNL     1      40.223 -14.916   3.595  1.00  0.00     0.042 C 
HETATM    2  C   UNL     1      41.546 -15.165   3.617  1.00  0.00     0.113 C 
HETATM    3  C   UNL     1      42.518 -14.204   3.242  1.00  0.00     0.105 C 
HETATM    4  N   UNL     1      43.364 -13.468   2.942  1.00  0.00    -0.191 NA
ENDROOT
BRANCH   2   5
HETATM    5  C   UNL     1      41.954 -16.563   3.997  1.00  0.00     0.266 C 
HETATM    6  N   UNL     1      43.270 -16.896   3.726  1.00  0.00    -0.321 N 
HETATM    7  H   UNL     1      43.936 -16.140   3.631  1.00  0.00     0.169 HD
HETATM    8  O   UNL     1      41.147 -17.307   4.548  1.00  0.00    -0.267 OA
BRANCH   6   9
HETATM    9  C   UNL     1      43.839 -18.186   3.894  1.00  0.00     0.047 A 
HETATM   10  C   UNL     1      44.284 -18.680   5.142  1.00  0.00    -0.035 A 
HETATM   11  C   UNL     1      44.102 -17.967   6.457  1.00  0.00     0.050 C 
HETATM   12  C   UNL     1      44.895 -19.947   5.202  1.00  0.00     0.009 A 
HETATM   13  C   UNL     1      45.003 -20.748   4.072  1.00  0.00     0.001 A 
HETATM   14  C   UNL     1      44.492 -20.299   2.860  1.00  0.00     0.009 A 
HETATM   15  C   UNL     1      43.903 -19.028   2.755  1.00  0.00    -0.035 A 
HETATM   16  C   UNL     1      43.396 -18.596   1.403  1.00  0.00     0.050 C 
ENDBRANCH   6   9
ENDBRANCH   2   5
BRANCH   1  17
HETATM   17  C   UNL     1      39.573 -13.659   3.196  1.00  0.00     0.002 A 
HETATM   18  C   UNL     1      39.088 -13.497   1.876  1.00  0.00     0.079 A 
HETATM   19  C   UNL     1      38.340 -12.376   1.505  1.00  0.00     0.047 A 
HETATM   20  C   UNL     1      38.133 -11.397   2.457  1.00  0.00    -0.020 A 
HETATM   21  C   UNL     1      38.642 -11.531   3.739  1.00  0.00     0.076 A 
HETATM   22  C   UNL     1      37.320 -10.163   2.377  1.00  0.00     0.073 C 
HETATM   23  C   UNL     1      39.352 -12.647   4.139  1.00  0.00     0.051 A 
HETATM   24  O   UNL     1      38.325 -10.484   4.565  1.00  0.00    -0.345 OA
HETATM   25  C   UNL     1      37.803  -9.473   3.662  1.00  0.00     0.129 C 
HETATM   26  C   UNL     1      36.695  -8.707   4.364  1.00  0.00     0.040 C 
BRANCH  18  27
HETATM   27  O   UNL     1      39.272 -14.477   0.933  1.00  0.00    -0.351 OA
BRANCH  27  28
HETATM   28  C   UNL     1      39.779 -13.922  -0.289  1.00  0.00     0.171 C 
HETATM   29  C   UNL     1      41.295 -13.991  -0.270  1.00  0.00     0.034 C 
ENDBRANCH  27  28
ENDBRANCH  18  27
ENDBRANCH   1  17
TORSDOF 5
ENDMDL
MODEL 8
REMARK VINA RESULT:      -7.8      2.108      8.648
REMARK  5 active torsions:
REMARK  status: ('A' for Active; 'I' for Inactive)
REMARK    1  A    between atoms: C_2  and  O_3 
REMARK    2  A    between atoms: O_3  and  C_4 
REMARK    3  A    between atoms: C_5  and  C_6 
REMARK    4  A    between atoms: C_7  and  C_8 
REMARK       I    between atoms: C_8  and  N_9 
REMARK    5  A    between atoms: N_9  and  C_10 
ROOT
HETATM    1  C   UNL     1      41.864 -16.999   1.751  1.00  0.00     0.042 C 
HETATM    2  C   UNL     1      42.003 -15.729   1.327  1.00  0.00     0.113 C 
HETATM    3  C   UNL     1      42.654 -14.727   2.090  1.00  0.00     0.105 C 
HETATM    4  N   UNL     1      43.167 -13.859   2.665  1.00  0.00    -0.191 NA
ENDROOT
BRANCH   2   5
HETATM    5  C   UNL     1      41.360 -15.393   0.008  1.00  0.00     0.266 C 
HETATM    6  N   UNL     1      41.020 -14.064  -0.170  1.00  0.00    -0.321 N 
HETATM    7  H   UNL     1      41.505 -13.375   0.392  1.00  0.00     0.169 HD
HETATM    8  O   UNL     1      41.208 -16.270  -0.839  1.00  0.00    -0.267 OA
BRANCH   6   9
HETATM    9  C   UNL     1      40.305 -13.543  -1.281  1.00  0.00     0.047 A 
HETATM   10  C   UNL     1      38.893 -13.494  -1.340  1.00  0.00    -0.035 A 
HETATM   11  C   UNL     1      37.978 -13.862  -0.201  1.00  0.00     0.050 C 
HETATM   12  C   UNL     1      38.269 -13.020  -2.509  1.00  0.00     0.009 A 
HETATM   13  C   UNL     1      39.015 -12.536  -3.577  1.00  0.00     0.001 A 
HETATM   14  C   UNL     1      40.401 -12.507  -3.490  1.00  0.00     0.009 A 
HETATM   15  C   UNL     1      41.060 -12.999  -2.350  1.00  0.00    -0.035 A 
HETATM   16  C   UNL     1      42.567 -12.962  -2.338  1.00  0.00     0.050 C 
ENDBRANCH   6   9
ENDBRANCH   2   5
BRANCH   1  17
HETATM   17  C   UNL     1      42.339 -17.555   3.027  1.00  0.00     0.002 A 
HETATM   18  C   UNL     1      43.219 -18.663   3.037  1.00  0.00     0.079 A 
HETATM   19  C   UNL     1      43.801 -19.124   4.220  1.00  0.00     0.047 A 
HETATM   20  C   UNL     1      43.447 -18.496   5.398  1.00  0.00    -0.020 A 
HETATM   21  C   UNL     1      42.552 -17.438   5.400  1.00  0.00     0.076 A 
HETATM   22  C   UNL     1      43.961 -18.708   6.770  1.00  0.00     0.073 C 
HETATM   23  C   UNL     1      41.993 -16.941   4.238  1.00  0.00     0.051 A 
HETATM   24  O   UNL     1      42.329 -16.913   6.646  1.00  0.00    -0.345 OA
HETATM   25  C   UNL     1      42.918 -17.889   7.546  1.00  0.00     0.129 C 
HETATM   26  C   UNL     1      43.518 -17.164   8.739  1.00  0.00     0.040 C 
BRANCH  18  27
HETATM   27  O   UNL     1      43.590 -19.276   1.866  1.00  0.00    -0.351 OA
BRANCH  27  28
HETATM   28  C   UNL     1      44.340 -20.470   2.130  1.00  0.00     0.171 C 
HETATM   29  C   UNL     1      43.566 -21.665   1.602  1.00  0.00     0.034 C 
ENDBRANCH  27  28
ENDBRANCH  18  27
ENDBRANCH   1  17
TORSDOF 5
ENDMDL
MODEL 9
REMARK VINA RESULT:      -7.7      2.772      5.076
REMARK  5 active torsions:
REMARK  status: ('A' for Active; 'I' for Inactive)
REMARK    1  A    between atoms: C_2  and  O_3 
REMARK    2  A    between atoms: O_3  and  C_4 
REMARK    3  A    between atoms: C_5  and  C_6 
REMARK    4  A    between atoms: C_7  and  C_8 
REMARK       I    between atoms: C_8  and  N_9 
REMARK    5  A    between atoms: N_9  and  C_10 
ROOT
HETATM    1  C   UNL     1      41.657 -15.426   4.623  1.00  0.00     0.042 C 
HETATM    2  C   UNL     1      42.622 -16.195   5.159  1.00  0.00     0.113 C 
HETATM    3  C   UNL     1      43.636 -15.682   6.008  1.00  0.00     0.105 C 
HETATM    4  N   UNL     1      44.497 -15.328   6.701  1.00  0.00    -0.191 NA
ENDROOT
BRANCH   2   5
HETATM    5  C   UNL     1      42.622 -17.644   4.752  1.00  0.00     0.266 C 
HETATM    6  N   UNL     1      43.836 -18.142   4.311  1.00  0.00    -0.321 N 
HETATM    7  H   UNL     1      44.676 -17.656   4.600  1.00  0.00     0.169 HD
HETATM    8  O   UNL     1      41.595 -18.310   4.863  1.00  0.00    -0.267 OA
BRANCH   6   9
HETATM    9  C   UNL     1      44.041 -19.440   3.773  1.00  0.00     0.047 A 
HETATM   10  C   UNL     1      44.335 -20.570   4.569  1.00  0.00    -0.035 A 
HETATM   11  C   UNL     1      44.343 -20.575   6.076  1.00  0.00     0.050 C 
HETATM   12  C   UNL     1      44.587 -21.806   3.943  1.00  0.00     0.009 A 
HETATM   13  C   UNL     1      44.484 -21.948   2.565  1.00  0.00     0.001 A 
HETATM   14  C   UNL     1      44.116 -20.857   1.787  1.00  0.00     0.009 A 
HETATM   15  C   UNL     1      43.885 -19.602   2.373  1.00  0.00    -0.035 A 
HETATM   16  C   UNL     1      43.516 -18.457   1.464  1.00  0.00     0.050 C 
ENDBRANCH   6   9
ENDBRANCH   2   5
BRANCH   1  17
HETATM   17  C   UNL     1      41.484 -13.978   4.810  1.00  0.00     0.002 A 
HETATM   18  C   UNL     1      41.792 -13.082   3.759  1.00  0.00     0.079 A 
HETATM   19  C   UNL     1      41.503 -11.718   3.852  1.00  0.00     0.047 A 
HETATM   20  C   UNL     1      40.956 -11.255   5.032  1.00  0.00    -0.020 A 
HETATM   21  C   UNL     1      40.692 -12.121   6.082  1.00  0.00     0.076 A 
HETATM   22  C   UNL     1      40.475  -9.900   5.380  1.00  0.00     0.073 C 
HETATM   23  C   UNL     1      40.933 -13.479   5.998  1.00  0.00     0.051 A 
HETATM   24  O   UNL     1      40.126 -11.506   7.169  1.00  0.00    -0.345 OA
HETATM   25  C   UNL     1      40.294 -10.089   6.893  1.00  0.00     0.129 C 
HETATM   26  C   UNL     1      39.093  -9.334   7.436  1.00  0.00     0.040 C 
BRANCH  18  27
HETATM   27  O   UNL     1      42.316 -13.540   2.576  1.00  0.00    -0.351 OA
BRANCH  27  28
HETATM   28  C   UNL     1      42.144 -12.573   1.531  1.00  0.00     0.171 C 
HETATM   29  C   UNL     1      41.696 -13.286   0.268  1.00  0.00     0.034 C 
ENDBRANCH  27  28
ENDBRANCH  18  27
ENDBRANCH   1  17
TORSDOF 5
ENDMDL
MODEL 10
REMARK VINA RESULT:      -7.6      5.254      8.169
REMARK  5 active torsions:
REMARK  status: ('A' for Active; 'I' for Inactive)
REMARK    1  A    between atoms: C_2  and  O_3 
REMARK    2  A    between atoms: O_3  and  C_4 
REMARK    3  A    between atoms: C_5  and  C_6 
REMARK    4  A    between atoms: C_7  and  C_8 
REMARK       I    between atoms: C_8  and  N_9 
REMARK    5  A    between atoms: N_9  and  C_10 
ROOT
HETATM    1  C   UNL     1      42.044 -12.435   5.840  1.00  0.00     0.042 C 
HETATM    2  C   UNL     1      41.266 -11.467   6.357  1.00  0.00     0.113 C 
HETATM    3  C   UNL     1      40.002 -11.121   5.815  1.00  0.00     0.105 C 
HETATM    4  N   UNL     1      38.965 -10.783   5.418  1.00  0.00    -0.191 NA
ENDROOT
BRANCH   2   5
HETATM    5  C   UNL     1      41.839 -10.700   7.518  1.00  0.00     0.266 C 
HETATM    6  N   UNL     1      42.172 -11.457   8.628  1.00  0.00    -0.321 N 
HETATM    7  H   UNL     1      42.342 -12.446   8.489  1.00  0.00     0.169 HD
HETATM    8  O   UNL     1      42.020  -9.489   7.422  1.00  0.00    -0.267 OA
BRANCH   6   9
HETATM    9  C   UNL     1      42.619 -10.935   9.871  1.00  0.00     0.047 A 
HETATM   10  C   UNL     1      41.744 -10.417  10.853  1.00  0.00    -0.035 A 
HETATM   11  C   UNL     1      40.240 -10.464  10.767  1.00  0.00     0.050 C 
HETATM   12  C   UNL     1      42.281  -9.861  12.029  1.00  0.00     0.009 A 
HETATM   13  C   UNL     1      43.649  -9.877  12.272  1.00  0.00     0.001 A 
HETATM   14  C   UNL     1      44.505 -10.460  11.346  1.00  0.00     0.009 A 
HETATM   15  C   UNL     1      44.008 -10.998  10.147  1.00  0.00    -0.035 A 
HETATM   16  C   UNL     1      44.998 -11.589   9.176  1.00  0.00     0.050 C 
ENDBRANCH   6   9
ENDBRANCH   2   5
BRANCH   1  17
HETATM   17  C   UNL     1      41.742 -13.275   4.671  1.00  0.00     0.002 A 
HETATM   18  C   UNL     1      40.965 -14.448   4.819  1.00  0.00     0.079 A 
HETATM   19  C   UNL     1      40.539 -15.187   3.712  1.00  0.00     0.047 A 
HETATM   20  C   UNL     1      40.949 -14.768   2.462  1.00  0.00    -0.020 A 
HETATM   21  C   UNL     1      41.746 -13.643   2.314  1.00  0.00     0.076 A 
HETATM   22  C   UNL     1      40.588 -15.293   1.127  1.00  0.00     0.073 C 
HETATM   23  C   UNL     1      42.148 -12.875   3.391  1.00  0.00     0.051 A 
HETATM   24  O   UNL     1      42.041 -13.350   1.008  1.00  0.00    -0.345 OA
HETATM   25  C   UNL     1      41.626 -14.538   0.282  1.00  0.00     0.129 C 
HETATM   26  C   UNL     1      41.082 -14.124  -1.075  1.00  0.00     0.040 C 
BRANCH  18  27
HETATM   27  O   UNL     1      40.537 -14.857   6.057  1.00  0.00    -0.351 OA
BRANCH  27  28
HETATM   28  C   UNL     1      40.718 -16.270   6.221  1.00  0.00     0.171 C 
HETATM   29  C   UNL     1      42.139 -16.534   6.686  1.00  0.00     0.034 C 
ENDBRANCH  27  28
ENDBRANCH  18  27
ENDBRANCH   1  17
TORSDOF 5
ENDMDL
