MODEL 1
REMARK VINA RESULT:      -8.3      0.000      0.000
REMARK  4 active torsions:
REMARK  status: ('A' for Active; 'I' for Inactive)
REMARK    1  A    between atoms: C_6  and  O_7 
REMARK    2  A    between atoms: C_6  and  C_8 
REMARK    3  A    between atoms: N_15  and  C_17 
REMARK    4  A    between atoms: C_17  and  C_18 
ROOT
HETATM    1  C   UNL     1      40.634 -14.366   1.313  1.00  0.00    -0.023 A 
HETATM    2  C   UNL     1      41.721 -14.948   2.010  1.00  0.00     0.022 A 
HETATM    3  C   UNL     1      41.852 -14.856   3.408  1.00  0.00     0.002 A 
HETATM    4  C   UNL     1      40.854 -14.198   4.122  1.00  0.00     0.076 A 
HETATM    5  O   UNL     1      40.918 -14.084   5.482  1.00  0.00    -0.349 OA
HETATM    6  C   UNL     1      40.712 -15.352   6.122  1.00  0.00     0.203 C 
HETATM    7  C   UNL     1      42.042 -16.070   6.364  1.00  0.00     0.262 C 
HETATM    8  N   UNL     1      42.711 -16.559   5.088  1.00  0.00    -0.061 N 
HETATM    9  H   UNL     1      43.630 -16.914   5.387  1.00  0.00     0.280 HD
HETATM   10  C   UNL     1      43.036 -15.442   4.125  1.00  0.00     0.276 C 
HETATM   11  C   UNL     1      39.778 -13.609   3.470  1.00  0.00     0.038 A 
HETATM   12  C   UNL     1      39.661 -13.706   2.080  1.00  0.00     0.013 A 
ENDROOT
BRANCH   1  13
HETATM   13  C   UNL     1      40.513 -14.552  -0.205  1.00  0.00     0.088 C 
HETATM   14  C   UNL     1      41.725 -14.010  -0.993  1.00  0.00     0.070 C 
HETATM   15  C   UNL     1      41.728 -12.495  -1.079  1.00  0.00     0.237 C 
HETATM   16  N   UNL     1      40.458 -12.031  -1.741  1.00  0.00    -0.075 N 
HETATM   17  C   UNL     1      40.459 -10.537  -1.953  1.00  0.00     0.269 C 
HETATM   18  H   UNL     1      40.430 -12.441  -2.687  1.00  0.00     0.279 HD
HETATM   19  C   UNL     1      39.226 -12.490  -1.007  1.00  0.00     0.237 C 
HETATM   20  C   UNL     1      39.235 -14.009  -0.878  1.00  0.00     0.070 C 
BRANCH  13  21
HETATM   21  O   UNL     1      40.518 -15.972  -0.400  1.00  0.00    -0.385 OA
HETATM   22  H   UNL     1      40.663 -16.157  -1.346  1.00  0.00     0.211 HD
ENDBRANCH  13  21
ENDBRANCH   1  13
BRANCH   8  23
HETATM   23  C   UNL     1      42.039 -17.737   4.413  1.00  0.00     0.278 C 
BRANCH  23  24
HETATM   24  C   UNL     1      42.983 -18.750   3.838  1.00  0.00     0.028 A 
HETATM   25  C   UNL     1      43.933 -19.433   4.608  1.00  0.00     0.045 A 
HETATM   26 CL   UNL     1      44.027 -19.188   6.316  1.00  0.00    -0.084 Cl
HETATM   27  C   UNL     1      44.812 -20.344   4.019  1.00  0.00     0.024 A 
HETATM   28  C   UNL     1      44.752 -20.586   2.646  1.00  0.00     0.005 A 
HETATM   29  C   UNL     1      43.810 -19.920   1.866  1.00  0.00     0.043 A 
HETATM   30  C   UNL     1      42.940 -19.016   2.466  1.00  0.00     0.126 A 
HETATM   31  F   UNL     1      42.023 -18.396   1.710  1.00  0.00    -0.205 F 
ENDBRANCH  23  24
ENDBRANCH   8  23
TORSDOF 4
ENDMDL
MODEL 2
REMARK VINA RESULT:      -8.3      1.938      2.464
REMARK  4 active torsions:
REMARK  status: ('A' for Active; 'I' for Inactive)
REMARK    1  A    between atoms: C_6  and  O_7 
REMARK    2  A    between atoms: C_6  and  C_8 
REMARK    3  A    between atoms: N_15  and  C_17 
REMARK    4  A    between atoms: C_17  and  C_18 
ROOT
HETATM    1  C   UNL     1      40.517 -14.781   3.116  1.00  0.00    -0.023 A 
HETATM    2  C   UNL     1      41.757 -15.465   3.090  1.00  0.00     0.022 A 
HETATM    3  C   UNL     1      42.588 -15.554   4.222  1.00  0.00     0.002 A 
HETATM    4  C   UNL     1      42.149 -14.976   5.411  1.00  0.00     0.076 A 
HETATM    5  O   UNL     1      42.906 -15.038   6.546  1.00  0.00    -0.349 OA
HETATM    6  C   UNL     1      42.954 -16.373   7.070  1.00  0.00     0.203 C 
HETATM    7  C   UNL     1      44.160 -17.138   6.517  1.00  0.00     0.262 C 
HETATM    8  N   UNL     1      44.044 -17.472   5.037  1.00  0.00    -0.061 N 
HETATM    9  H   UNL     1      44.955 -17.878   4.783  1.00  0.00     0.280 HD
HETATM   10  C   UNL     1      43.921 -16.247   4.163  1.00  0.00     0.276 C 
HETATM   11  C   UNL     1      40.942 -14.291   5.469  1.00  0.00     0.038 A 
HETATM   12  C   UNL     1      40.126 -14.209   4.337  1.00  0.00     0.013 A 
ENDROOT
BRANCH   1  13
HETATM   13  C   UNL     1      39.625 -14.770   1.868  1.00  0.00     0.088 C 
HETATM   14  C   UNL     1      40.399 -14.997   0.552  1.00  0.00     0.070 C 
HETATM   15  C   UNL     1      41.185 -13.771   0.124  1.00  0.00     0.237 C 
HETATM   16  N   UNL     1      40.241 -12.611  -0.051  1.00  0.00    -0.075 N 
HETATM   17  C   UNL     1      40.953 -11.393  -0.584  1.00  0.00     0.269 C 
HETATM   18  H   UNL     1      39.558 -12.870  -0.780  1.00  0.00     0.279 HD
HETATM   19  C   UNL     1      39.471 -12.302   1.206  1.00  0.00     0.237 C 
HETATM   20  C   UNL     1      38.713 -13.541   1.669  1.00  0.00     0.070 C 
BRANCH  13  21
HETATM   21  O   UNL     1      38.767 -15.908   2.022  1.00  0.00    -0.385 OA
HETATM   22  H   UNL     1      38.285 -16.053   1.187  1.00  0.00     0.211 HD
ENDBRANCH  13  21
ENDBRANCH   1  13
BRANCH   8  23
HETATM   23  C   UNL     1      43.030 -18.543   4.691  1.00  0.00     0.278 C 
BRANCH  23  24
HETATM   24  C   UNL     1      43.560 -19.649   3.828  1.00  0.00     0.028 A 
HETATM   25  C   UNL     1      43.299 -19.738   2.455  1.00  0.00     0.045 A 
HETATM   26 CL   UNL     1      42.386 -18.513   1.647  1.00  0.00    -0.084 Cl
HETATM   27  C   UNL     1      43.788 -20.807   1.700  1.00  0.00     0.024 A 
HETATM   28  C   UNL     1      44.549 -21.804   2.313  1.00  0.00     0.005 A 
HETATM   29  C   UNL     1      44.823 -21.728   3.676  1.00  0.00     0.043 A 
HETATM   30  C   UNL     1      44.329 -20.659   4.415  1.00  0.00     0.126 A 
HETATM   31  F   UNL     1      44.616 -20.584   5.722  1.00  0.00    -0.205 F 
ENDBRANCH  23  24
ENDBRANCH   8  23
TORSDOF 4
ENDMDL
MODEL 3
REMARK VINA RESULT:      -8.2      1.912      2.295
REMARK  4 active torsions:
REMARK  status: ('A' for Active; 'I' for Inactive)
REMARK    1  A    between atoms: C_6  and  O_7 
REMARK    2  A    between atoms: C_6  and  C_8 
REMARK    3  A    between atoms: N_15  and  C_17 
REMARK    4  A    between atoms: C_17  and  C_18 
ROOT
HETATM    1  C   UNL     1      40.401 -14.330  -0.466  1.00  0.00    -0.023 A 
HETATM    2  C   UNL     1      41.489 -14.649   0.383  1.00  0.00     0.022 A 
HETATM    3  C   UNL     1      41.501 -14.310   1.748  1.00  0.00     0.002 A 
HETATM    4  C   UNL     1      40.383 -13.670   2.279  1.00  0.00     0.076 A 
HETATM    5  O   UNL     1      40.330 -13.324   3.599  1.00  0.00    -0.349 OA
HETATM    6  C   UNL     1      40.218 -14.482   4.438  1.00  0.00     0.203 C 
HETATM    7  C   UNL     1      41.598 -14.981   4.877  1.00  0.00     0.262 C 
HETATM    8  N   UNL     1      42.413 -15.589   3.746  1.00  0.00    -0.061 N 
HETATM    9  H   UNL     1      43.340 -15.774   4.154  1.00  0.00     0.280 HD
HETATM   10  C   UNL     1      42.685 -14.618   2.622  1.00  0.00     0.276 C 
HETATM   11  C   UNL     1      39.302 -13.335   1.473  1.00  0.00     0.038 A 
HETATM   12  C   UNL     1      39.304 -13.677   0.118  1.00  0.00     0.013 A 
ENDROOT
BRANCH   1  13
HETATM   13  C   UNL     1      40.418 -14.781  -1.932  1.00  0.00     0.088 C 
HETATM   14  C   UNL     1      41.620 -14.234  -2.733  1.00  0.00     0.070 C 
HETATM   15  C   UNL     1      41.462 -12.766  -3.082  1.00  0.00     0.237 C 
HETATM   16  N   UNL     1      40.203 -12.577  -3.886  1.00  0.00    -0.075 N 
HETATM   17  C   UNL     1      40.055 -11.151  -4.356  1.00  0.00     0.269 C 
HETATM   18  H   UNL     1      40.294 -13.140  -4.746  1.00  0.00     0.279 HD
HETATM   19  C   UNL     1      38.977 -13.055  -3.155  1.00  0.00     0.237 C 
HETATM   20  C   UNL     1      39.144 -14.518  -2.761  1.00  0.00     0.070 C 
BRANCH  13  21
HETATM   21  O   UNL     1      40.596 -16.202  -1.875  1.00  0.00    -0.385 OA
HETATM   22  H   UNL     1      41.051 -16.493  -2.687  1.00  0.00     0.211 HD
ENDBRANCH  13  21
ENDBRANCH   1  13
BRANCH   8  23
HETATM   23  C   UNL     1      41.931 -16.938   3.251  1.00  0.00     0.278 C 
BRANCH  23  24
HETATM   24  C   UNL     1      42.929 -18.048   3.388  1.00  0.00     0.028 A 
HETATM   25  C   UNL     1      43.703 -18.515   2.318  1.00  0.00     0.045 A 
HETATM   26 CL   UNL     1      43.596 -17.776   0.760  1.00  0.00    -0.084 Cl
HETATM   27  C   UNL     1      44.597 -19.575   2.489  1.00  0.00     0.024 A 
HETATM   28  C   UNL     1      44.728 -20.183   3.739  1.00  0.00     0.005 A 
HETATM   29  C   UNL     1      43.971 -19.727   4.814  1.00  0.00     0.043 A 
HETATM   30  C   UNL     1      43.085 -18.671   4.630  1.00  0.00     0.126 A 
HETATM   31  F   UNL     1      42.376 -18.227   5.676  1.00  0.00    -0.205 F 
ENDBRANCH  23  24
ENDBRANCH   8  23
TORSDOF 4
ENDMDL
MODEL 4
REMARK VINA RESULT:      -8.2      6.305      9.452
REMARK  4 active torsions:
REMARK  status: ('A' for Active; 'I' for Inactive)
REMARK    1  A    between atoms: C_6  and  O_7 
REMARK    2  A    between atoms: C_6  and  C_8 
REMARK    3  A    between atoms: N_15  and  C_17 
REMARK    4  A    between atoms: C_17  and  C_18 
ROOT
HETATM    1  C   UNL     1      41.892 -12.965   5.951  1.00  0.00    -0.023 A 
HETATM    2  C   UNL     1      42.224 -11.809   6.698  1.00  0.00     0.022 A 
HETATM    3  C   UNL     1      41.242 -10.969   7.257  1.00  0.00     0.002 A 
HETATM    4  C   UNL     1      39.904 -11.318   7.091  1.00  0.00     0.076 A 
HETATM    5  O   UNL     1      38.905 -10.550   7.618  1.00  0.00    -0.349 OA
HETATM    6  C   UNL     1      38.878 -10.638   9.050  1.00  0.00     0.203 C 
HETATM    7  C   UNL     1      39.729  -9.535   9.686  1.00  0.00     0.262 C 
HETATM    8  N   UNL     1      41.224  -9.717   9.468  1.00  0.00    -0.061 N 
HETATM    9  H   UNL     1      41.655  -8.861   9.846  1.00  0.00     0.280 HD
HETATM   10  C   UNL     1      41.613  -9.722   8.009  1.00  0.00     0.276 C 
HETATM   11  C   UNL     1      39.543 -12.441   6.357  1.00  0.00     0.038 A 
HETATM   12  C   UNL     1      40.529 -13.266   5.806  1.00  0.00     0.013 A 
ENDROOT
BRANCH   1  13
HETATM   13  C   UNL     1      43.007 -13.875   5.418  1.00  0.00     0.088 C 
HETATM   14  C   UNL     1      42.526 -15.298   5.062  1.00  0.00     0.070 C 
HETATM   15  C   UNL     1      42.281 -16.151   6.293  1.00  0.00     0.237 C 
HETATM   16  N   UNL     1      43.552 -16.243   7.095  1.00  0.00    -0.075 N 
HETATM   17  C   UNL     1      43.396 -17.172   8.274  1.00  0.00     0.269 C 
HETATM   18  H   UNL     1      44.269 -16.680   6.496  1.00  0.00     0.279 HD
HETATM   19  C   UNL     1      44.067 -14.892   7.514  1.00  0.00     0.237 C 
HETATM   20  C   UNL     1      44.274 -14.013   6.287  1.00  0.00     0.070 C 
BRANCH  13  21
HETATM   21  O   UNL     1      43.410 -13.273   4.181  1.00  0.00    -0.385 OA
HETATM   22  H   UNL     1      43.124 -13.847   3.446  1.00  0.00     0.211 HD
ENDBRANCH  13  21
ENDBRANCH   1  13
BRANCH   8  23
HETATM   23  C   UNL     1      41.861 -10.849  10.249  1.00  0.00     0.278 C 
BRANCH  23  24
HETATM   24  C   UNL     1      42.156 -10.531  11.683  1.00  0.00     0.028 A 
HETATM   25  C   UNL     1      41.319 -10.915  12.739  1.00  0.00     0.045 A 
HETATM   26 CL   UNL     1      39.901 -11.857  12.445  1.00  0.00    -0.084 Cl
HETATM   27  C   UNL     1      41.622 -10.566  14.057  1.00  0.00     0.024 A 
HETATM   28  C   UNL     1      42.771  -9.825  14.337  1.00  0.00     0.005 A 
HETATM   29  C   UNL     1      43.617  -9.440  13.301  1.00  0.00     0.043 A 
HETATM   30  C   UNL     1      43.304  -9.794  11.993  1.00  0.00     0.126 A 
HETATM   31  F   UNL     1      44.135  -9.436  11.005  1.00  0.00    -0.205 F 
ENDBRANCH  23  24
ENDBRANCH   8  23
TORSDOF 4
ENDMDL
MODEL 5
REMARK VINA RESULT:      -8.0      2.154      2.981
REMARK  4 active torsions:
REMARK  status: ('A' for Active; 'I' for Inactive)
REMARK    1  A    between atoms: C_6  and  O_7 
REMARK    2  A    between atoms: C_6  and  C_8 
REMARK    3  A    between atoms: N_15  and  C_17 
REMARK    4  A    between atoms: C_17  and  C_18 
ROOT
HETATM    1  C   UNL     1      41.252 -13.250  -1.102  1.00  0.00    -0.023 A 
HETATM    2  C   UNL     1      42.026 -13.765  -0.034  1.00  0.00     0.022 A 
HETATM    3  C   UNL     1      41.789 -13.407   1.306  1.00  0.00     0.002 A 
HETATM    4  C   UNL     1      40.732 -12.543   1.581  1.00  0.00     0.076 A 
HETATM    5  O   UNL     1      40.444 -12.166   2.862  1.00  0.00    -0.349 OA
HETATM    6  C   UNL     1      39.909 -13.260   3.621  1.00  0.00     0.203 C 
HETATM    7  C   UNL     1      41.020 -14.018   4.353  1.00  0.00     0.262 C 
HETATM    8  N   UNL     1      41.935 -14.803   3.425  1.00  0.00    -0.061 N 
HETATM    9  H   UNL     1      42.685 -15.163   4.032  1.00  0.00     0.280 HD
HETATM   10  C   UNL     1      42.650 -13.930   2.422  1.00  0.00     0.276 C 
HETATM   11  C   UNL     1      39.957 -12.013   0.557  1.00  0.00     0.038 A 
HETATM   12  C   UNL     1      40.204 -12.376  -0.770  1.00  0.00     0.013 A 
ENDROOT
BRANCH   1  13
HETATM   13  C   UNL     1      41.518 -13.725  -2.536  1.00  0.00     0.088 C 
HETATM   14  C   UNL     1      40.745 -12.925  -3.606  1.00  0.00     0.070 C 
HETATM   15  C   UNL     1      39.273 -13.293  -3.652  1.00  0.00     0.237 C 
HETATM   16  N   UNL     1      39.136 -14.764  -3.938  1.00  0.00    -0.075 N 
HETATM   17  C   UNL     1      37.691 -15.164  -4.105  1.00  0.00     0.269 C 
HETATM   18  H   UNL     1      39.578 -14.948  -4.852  1.00  0.00     0.279 HD
HETATM   19  C   UNL     1      39.836 -15.617  -2.913  1.00  0.00     0.237 C 
HETATM   20  C   UNL     1      41.307 -15.225  -2.828  1.00  0.00     0.070 C 
BRANCH  13  21
HETATM   21  O   UNL     1      42.906 -13.445  -2.761  1.00  0.00    -0.385 OA
HETATM   22  H   UNL     1      43.089 -13.515  -3.717  1.00  0.00     0.211 HD
ENDBRANCH  13  21
ENDBRANCH   1  13
BRANCH   8  23
HETATM   23  C   UNL     1      41.319 -16.035   2.795  1.00  0.00     0.278 C 
BRANCH  23  24
HETATM   24  C   UNL     1      42.211 -17.240   2.775  1.00  0.00     0.028 A 
HETATM   25  C   UNL     1      42.473 -18.015   3.912  1.00  0.00     0.045 A 
HETATM   26 CL   UNL     1      41.712 -17.657   5.422  1.00  0.00    -0.084 Cl
HETATM   27  C   UNL     1      43.338 -19.110   3.849  1.00  0.00     0.024 A 
HETATM   28  C   UNL     1      43.955 -19.445   2.642  1.00  0.00     0.005 A 
HETATM   29  C   UNL     1      43.700 -18.689   1.501  1.00  0.00     0.043 A 
HETATM   30  C   UNL     1      42.837 -17.602   1.579  1.00  0.00     0.126 A 
HETATM   31  F   UNL     1      42.583 -16.893   0.470  1.00  0.00    -0.205 F 
ENDBRANCH  23  24
ENDBRANCH   8  23
TORSDOF 4
ENDMDL
MODEL 6
REMARK VINA RESULT:      -7.9      2.310      4.998
REMARK  4 active torsions:
REMARK  status: ('A' for Active; 'I' for Inactive)
REMARK    1  A    between atoms: C_6  and  O_7 
REMARK    2  A    between atoms: C_6  and  C_8 
REMARK    3  A    between atoms: N_15  and  C_17 
REMARK    4  A    between atoms: C_17  and  C_18 
ROOT
HETATM    1  C   UNL     1      39.405 -12.549   3.247  1.00  0.00    -0.023 A 
HETATM    2  C   UNL     1      39.497 -13.944   3.025  1.00  0.00     0.022 A 
HETATM    3  C   UNL     1      39.630 -14.492   1.735  1.00  0.00     0.002 A 
HETATM    4  C   UNL     1      39.708 -13.619   0.653  1.00  0.00     0.076 A 
HETATM    5  O   UNL     1      39.848 -14.089  -0.622  1.00  0.00    -0.349 OA
HETATM    6  C   UNL     1      41.149 -14.658  -0.829  1.00  0.00     0.203 C 
HETATM    7  C   UNL     1      41.145 -16.161  -0.537  1.00  0.00     0.262 C 
HETATM    8  N   UNL     1      40.976 -16.495   0.938  1.00  0.00    -0.061 N 
HETATM    9  H   UNL     1      40.881 -17.519   0.971  1.00  0.00     0.280 HD
HETATM   10  C   UNL     1      39.680 -15.978   1.517  1.00  0.00     0.276 C 
HETATM   11  C   UNL     1      39.614 -12.245   0.834  1.00  0.00     0.038 A 
HETATM   12  C   UNL     1      39.481 -11.714   2.121  1.00  0.00     0.013 A 
ENDROOT
BRANCH   1  13
HETATM   13  C   UNL     1      39.323 -12.007   4.681  1.00  0.00     0.088 C 
HETATM   14  C   UNL     1      40.393 -10.941   5.002  1.00  0.00     0.070 C 
HETATM   15  C   UNL     1      41.770 -11.546   5.202  1.00  0.00     0.237 C 
HETATM   16  N   UNL     1      41.715 -12.547   6.326  1.00  0.00    -0.075 N 
HETATM   17  C   UNL     1      43.083 -13.099   6.643  1.00  0.00     0.269 C 
HETATM   18  H   UNL     1      41.418 -12.046   7.177  1.00  0.00     0.279 HD
HETATM   19  C   UNL     1      40.716 -13.645   6.070  1.00  0.00     0.237 C 
HETATM   20  C   UNL     1      39.337 -13.044   5.823  1.00  0.00     0.070 C 
BRANCH  13  21
HETATM   21  O   UNL     1      38.061 -11.331   4.743  1.00  0.00    -0.385 OA
HETATM   22  H   UNL     1      38.008 -10.845   5.587  1.00  0.00     0.211 HD
ENDBRANCH  13  21
ENDBRANCH   1  13
BRANCH   8  23
HETATM   23  C   UNL     1      42.173 -16.187   1.814  1.00  0.00     0.278 C 
BRANCH  23  24
HETATM   24  C   UNL     1      42.795 -17.385   2.466  1.00  0.00     0.028 A 
HETATM   25  C   UNL     1      42.567 -17.731   3.804  1.00  0.00     0.045 A 
HETATM   26 CL   UNL     1      41.478 -16.812   4.782  1.00  0.00    -0.084 Cl
HETATM   27  C   UNL     1      43.196 -18.840   4.375  1.00  0.00     0.024 A 
HETATM   28  C   UNL     1      44.065 -19.620   3.611  1.00  0.00     0.005 A 
HETATM   29  C   UNL     1      44.299 -19.294   2.278  1.00  0.00     0.043 A 
HETATM   30  C   UNL     1      43.665 -18.188   1.723  1.00  0.00     0.126 A 
HETATM   31  F   UNL     1      43.881 -17.895   0.432  1.00  0.00    -0.205 F 
ENDBRANCH  23  24
ENDBRANCH   8  23
TORSDOF 4
ENDMDL
MODEL 7
REMARK VINA RESULT:      -7.9      6.244      8.761
REMARK  4 active torsions:
REMARK  status: ('A' for Active; 'I' for Inactive)
REMARK    1  A    between atoms: C_6  and  O_7 
REMARK    2  A    between atoms: C_6  and  C_8 
REMARK    3  A    between atoms: N_15  and  C_17 
REMARK    4  A    between atoms: C_17  and  C_18 
ROOT
HETATM    1  C   UNL     1      41.492 -13.248   6.031  1.00  0.00    -0.023 A 
HETATM    2  C   UNL     1      41.983 -12.097   6.694  1.00  0.00     0.022 A 
HETATM    3  C   UNL     1      41.127 -11.116   7.227  1.00  0.00     0.002 A 
HETATM    4  C   UNL     1      39.753 -11.312   7.124  1.00  0.00     0.076 A 
HETATM    5  O   UNL     1      38.870 -10.400   7.630  1.00  0.00    -0.349 OA
HETATM    6  C   UNL     1      38.886 -10.400   9.065  1.00  0.00     0.203 C 
HETATM    7  C   UNL     1      39.883  -9.370   9.604  1.00  0.00     0.262 C 
HETATM    8  N   UNL     1      41.337  -9.741   9.354  1.00  0.00    -0.061 N 
HETATM    9  H   UNL     1      41.879  -8.922   9.664  1.00  0.00     0.280 HD
HETATM   10  C   UNL     1      41.669  -9.879   7.888  1.00  0.00     0.276 C 
HETATM   11  C   UNL     1      39.236 -12.425   6.473  1.00  0.00     0.038 A 
HETATM   12  C   UNL     1      40.098 -13.393   5.947  1.00  0.00     0.013 A 
ENDROOT
BRANCH   1  13
HETATM   13  C   UNL     1      42.472 -14.315   5.525  1.00  0.00     0.088 C 
HETATM   14  C   UNL     1      43.517 -13.771   4.528  1.00  0.00     0.070 C 
HETATM   15  C   UNL     1      42.927 -13.517   3.153  1.00  0.00     0.237 C 
HETATM   16  N   UNL     1      42.349 -14.799   2.615  1.00  0.00    -0.075 N 
HETATM   17  C   UNL     1      41.847 -14.631   1.202  1.00  0.00     0.269 C 
HETATM   18  H   UNL     1      43.116 -15.487   2.553  1.00  0.00     0.279 HD
HETATM   19  C   UNL     1      41.290 -15.376   3.518  1.00  0.00     0.237 C 
HETATM   20  C   UNL     1      41.862 -15.593   4.914  1.00  0.00     0.070 C 
BRANCH  13  21
HETATM   21  O   UNL     1      43.208 -14.716   6.688  1.00  0.00    -0.385 OA
HETATM   22  H   UNL     1      44.124 -14.393   6.606  1.00  0.00     0.211 HD
ENDBRANCH  13  21
ENDBRANCH   1  13
BRANCH   8  23
HETATM   23  C   UNL     1      41.865 -10.892  10.186  1.00  0.00     0.278 C 
BRANCH  23  24
HETATM   24  C   UNL     1      42.162 -10.548  11.614  1.00  0.00     0.028 A 
HETATM   25  C   UNL     1      41.307 -10.880  12.673  1.00  0.00     0.045 A 
HETATM   26 CL   UNL     1      39.863 -11.786  12.393  1.00  0.00    -0.084 Cl
HETATM   27  C   UNL     1      41.612 -10.508  13.985  1.00  0.00     0.024 A 
HETATM   28  C   UNL     1      42.782  -9.795  14.254  1.00  0.00     0.005 A 
HETATM   29  C   UNL     1      43.645  -9.461  13.215  1.00  0.00     0.043 A 
HETATM   30  C   UNL     1      43.329  -9.839  11.914  1.00  0.00     0.126 A 
HETATM   31  F   UNL     1      44.177  -9.530  10.923  1.00  0.00    -0.205 F 
ENDBRANCH  23  24
ENDBRANCH   8  23
TORSDOF 4
ENDMDL
MODEL 8
REMARK VINA RESULT:      -7.8      2.065      2.594
REMARK  4 active torsions:
REMARK  status: ('A' for Active; 'I' for Inactive)
REMARK    1  A    between atoms: C_6  and  O_7 
REMARK    2  A    between atoms: C_6  and  C_8 
REMARK    3  A    between atoms: N_15  and  C_17 
REMARK    4  A    between atoms: C_17  and  C_18 
ROOT
HETATM    1  C   UNL     1      41.279 -12.557   1.098  1.00  0.00    -0.023 A 
HETATM    2  C   UNL     1      42.078 -13.380   1.928  1.00  0.00     0.022 A 
HETATM    3  C   UNL     1      41.801 -13.559   3.296  1.00  0.00     0.002 A 
HETATM    4  C   UNL     1      40.681 -12.928   3.831  1.00  0.00     0.076 A 
HETATM    5  O   UNL     1      40.354 -13.072   5.150  1.00  0.00    -0.349 OA
HETATM    6  C   UNL     1      39.893 -14.401   5.432  1.00  0.00     0.203 C 
HETATM    7  C   UNL     1      41.049 -15.303   5.873  1.00  0.00     0.262 C 
HETATM    8  N   UNL     1      42.029 -15.627   4.756  1.00  0.00    -0.061 N 
HETATM    9  H   UNL     1      42.797 -16.138   5.214  1.00  0.00     0.280 HD
HETATM   10  C   UNL     1      42.688 -14.401   4.171  1.00  0.00     0.276 C 
HETATM   11  C   UNL     1      39.880 -12.108   3.047  1.00  0.00     0.038 A 
HETATM   12  C   UNL     1      40.167 -11.938   1.689  1.00  0.00     0.013 A 
ENDROOT
BRANCH   1  13
HETATM   13  C   UNL     1      41.593 -12.449  -0.400  1.00  0.00     0.088 C 
HETATM   14  C   UNL     1      40.591 -11.573  -1.182  1.00  0.00     0.070 C 
HETATM   15  C   UNL     1      39.265 -12.276  -1.409  1.00  0.00     0.237 C 
HETATM   16  N   UNL     1      39.502 -13.554  -2.168  1.00  0.00    -0.075 N 
HETATM   17  C   UNL     1      38.204 -14.238  -2.519  1.00  0.00     0.269 C 
HETATM   18  H   UNL     1      39.934 -13.307  -3.071  1.00  0.00     0.279 HD
HETATM   19  C   UNL     1      40.446 -14.482  -1.449  1.00  0.00     0.237 C 
HETATM   20  C   UNL     1      41.766 -13.771  -1.177  1.00  0.00     0.070 C 
BRANCH  13  21
HETATM   21  O   UNL     1      42.850 -11.761  -0.460  1.00  0.00    -0.385 OA
HETATM   22  H   UNL     1      43.112 -11.670  -1.395  1.00  0.00     0.211 HD
ENDBRANCH  13  21
ENDBRANCH   1  13
BRANCH   8  23
HETATM   23  C   UNL     1      41.511 -16.577   3.694  1.00  0.00     0.278 C 
BRANCH  23  24
HETATM   24  C   UNL     1      42.482 -17.641   3.280  1.00  0.00     0.028 A 
HETATM   25  C   UNL     1      42.892 -17.826   1.953  1.00  0.00     0.045 A 
HETATM   26 CL   UNL     1      42.341 -16.771   0.702  1.00  0.00    -0.084 Cl
HETATM   27  C   UNL     1      43.775 -18.854   1.613  1.00  0.00     0.024 A 
HETATM   28  C   UNL     1      44.260 -19.714   2.600  1.00  0.00     0.005 A 
HETATM   29  C   UNL     1      43.867 -19.540   3.924  1.00  0.00     0.043 A 
HETATM   30  C   UNL     1      42.989 -18.513   4.249  1.00  0.00     0.126 A 
HETATM   31  F   UNL     1      42.633 -18.342   5.530  1.00  0.00    -0.205 F 
ENDBRANCH  23  24
ENDBRANCH   8  23
TORSDOF 4
ENDMDL
MODEL 9
REMARK VINA RESULT:      -7.7      2.883      4.716
REMARK  4 active torsions:
REMARK  status: ('A' for Active; 'I' for Inactive)
REMARK    1  A    between atoms: C_6  and  O_7 
REMARK    2  A    between atoms: C_6  and  C_8 
REMARK    3  A    between atoms: N_15  and  C_17 
REMARK    4  A    between atoms: C_17  and  C_18 
ROOT
HETATM    1  C   UNL     1      41.735 -13.839   4.219  1.00  0.00    -0.023 A 
HETATM    2  C   UNL     1      41.531 -15.240   4.247  1.00  0.00     0.022 A 
HETATM    3  C   UNL     1      41.786 -16.059   3.131  1.00  0.00     0.002 A 
HETATM    4  C   UNL     1      42.290 -15.463   1.977  1.00  0.00     0.076 A 
HETATM    5  O   UNL     1      42.567 -16.205   0.865  1.00  0.00    -0.349 OA
HETATM    6  C   UNL     1      43.707 -17.052   1.073  1.00  0.00     0.203 C 
HETATM    7  C   UNL     1      43.282 -18.430   1.587  1.00  0.00     0.262 C 
HETATM    8  N   UNL     1      42.743 -18.410   3.009  1.00  0.00    -0.061 N 
HETATM    9  H   UNL     1      42.399 -19.366   3.178  1.00  0.00     0.280 HD
HETATM   10  C   UNL     1      41.520 -17.538   3.167  1.00  0.00     0.276 C 
HETATM   11  C   UNL     1      42.494 -14.090   1.912  1.00  0.00     0.038 A 
HETATM   12  C   UNL     1      42.236 -13.289   3.028  1.00  0.00     0.013 A 
ENDROOT
BRANCH   1  13
HETATM   13  C   UNL     1      41.498 -13.007   5.486  1.00  0.00     0.088 C 
HETATM   14  C   UNL     1      40.055 -13.102   6.027  1.00  0.00     0.070 C 
HETATM   15  C   UNL     1      39.072 -12.299   5.196  1.00  0.00     0.237 C 
HETATM   16  N   UNL     1      39.500 -10.856   5.174  1.00  0.00    -0.075 N 
HETATM   17  C   UNL     1      38.496  -9.991   4.454  1.00  0.00     0.269 C 
HETATM   18  H   UNL     1      39.504 -10.516   6.149  1.00  0.00     0.279 HD
HETATM   19  C   UNL     1      40.890 -10.676   4.623  1.00  0.00     0.237 C 
HETATM   20  C   UNL     1      41.879 -11.514   5.425  1.00  0.00     0.070 C 
BRANCH  13  21
HETATM   21  O   UNL     1      42.334 -13.613   6.481  1.00  0.00    -0.385 OA
HETATM   22  H   UNL     1      42.703 -12.911   7.049  1.00  0.00     0.211 HD
ENDBRANCH  13  21
ENDBRANCH   1  13
BRANCH   8  23
HETATM   23  C   UNL     1      43.776 -18.172   4.092  1.00  0.00     0.278 C 
BRANCH  23  24
HETATM   24  C   UNL     1      43.859 -19.254   5.126  1.00  0.00     0.028 A 
HETATM   25  C   UNL     1      43.405 -19.089   6.441  1.00  0.00     0.045 A 
HETATM   26 CL   UNL     1      42.647 -17.618   6.937  1.00  0.00    -0.084 Cl
HETATM   27  C   UNL     1      43.534 -20.117   7.378  1.00  0.00     0.024 A 
HETATM   28  C   UNL     1      44.121 -21.329   7.009  1.00  0.00     0.005 A 
HETATM   29  C   UNL     1      44.572 -21.512   5.704  1.00  0.00     0.043 A 
HETATM   30  C   UNL     1      44.437 -20.480   4.782  1.00  0.00     0.126 A 
HETATM   31  F   UNL     1      44.855 -20.673   3.524  1.00  0.00    -0.205 F 
ENDBRANCH  23  24
ENDBRANCH   8  23
TORSDOF 4
ENDMDL
MODEL 10
REMARK VINA RESULT:      -7.6      2.789      5.034
REMARK  4 active torsions:
REMARK  status: ('A' for Active; 'I' for Inactive)
REMARK    1  A    between atoms: C_6  and  O_7 
REMARK    2  A    between atoms: C_6  and  C_8 
REMARK    3  A    between atoms: N_15  and  C_17 
REMARK    4  A    between atoms: C_17  and  C_18 
ROOT
HETATM    1  C   UNL     1      40.144 -13.553   4.351  1.00  0.00    -0.023 A 
HETATM    2  C   UNL     1      40.385 -14.904   4.003  1.00  0.00     0.022 A 
HETATM    3  C   UNL     1      40.318 -15.360   2.673  1.00  0.00     0.002 A 
HETATM    4  C   UNL     1      40.039 -14.434   1.672  1.00  0.00     0.076 A 
HETATM    5  O   UNL     1      39.970 -14.812   0.361  1.00  0.00    -0.349 OA
HETATM    6  C   UNL     1      41.265 -15.159  -0.151  1.00  0.00     0.203 C 
HETATM    7  C   UNL     1      41.539 -16.657   0.014  1.00  0.00     0.262 C 
HETATM    8  N   UNL     1      41.737 -17.085   1.461  1.00  0.00    -0.061 N 
HETATM    9  H   UNL     1      41.799 -18.112   1.429  1.00  0.00     0.280 HD
HETATM   10  C   UNL     1      40.534 -16.807   2.330  1.00  0.00     0.276 C 
HETATM   11  C   UNL     1      39.789 -13.102   1.979  1.00  0.00     0.038 A 
HETATM   12  C   UNL     1      39.858 -12.663   3.304  1.00  0.00     0.013 A 
ENDROOT
BRANCH   1  13
HETATM   13  C   UNL     1      40.292 -13.102   5.810  1.00  0.00     0.088 C 
HETATM   14  C   UNL     1      39.155 -12.175   6.290  1.00  0.00     0.070 C 
HETATM   15  C   UNL     1      39.285 -10.767   5.738  1.00  0.00     0.237 C 
HETATM   16  N   UNL     1      40.609 -10.187   6.159  1.00  0.00    -0.075 N 
HETATM   17  C   UNL     1      40.743  -8.747   5.731  1.00  0.00     0.269 C 
HETATM   18  H   UNL     1      40.628 -10.169   7.191  1.00  0.00     0.279 HD
HETATM   19  C   UNL     1      41.775 -11.019   5.696  1.00  0.00     0.237 C 
HETATM   20  C   UNL     1      41.631 -12.447   6.209  1.00  0.00     0.070 C 
BRANCH  13  21
HETATM   21  O   UNL     1      40.170 -14.307   6.578  1.00  0.00    -0.385 OA
HETATM   22  H   UNL     1      39.229 -14.445   6.795  1.00  0.00     0.211 HD
ENDBRANCH  13  21
ENDBRANCH   1  13
BRANCH   8  23
HETATM   23  C   UNL     1      43.036 -16.636   2.098  1.00  0.00     0.278 C 
BRANCH  23  24
HETATM   24  C   UNL     1      43.449 -17.430   3.302  1.00  0.00     0.028 A 
HETATM   25  C   UNL     1      43.694 -18.808   3.260  1.00  0.00     0.045 A 
HETATM   26 CL   UNL     1      43.598 -19.679   1.771  1.00  0.00    -0.084 Cl
HETATM   27  C   UNL     1      44.045 -19.509   4.416  1.00  0.00     0.024 A 
HETATM   28  C   UNL     1      44.156 -18.836   5.635  1.00  0.00     0.005 A 
HETATM   29  C   UNL     1      43.921 -17.465   5.692  1.00  0.00     0.043 A 
HETATM   30  C   UNL     1      43.573 -16.780   4.533  1.00  0.00     0.126 A 
HETATM   31  F   UNL     1      43.369 -15.456   4.596  1.00  0.00    -0.205 F 
ENDBRANCH  23  24
ENDBRANCH   8  23
TORSDOF 4
ENDMDL
