MODEL 1
REMARK VINA RESULT:      -8.2      0.000      0.000
REMARK  6 active torsions:
REMARK  status: ('A' for Active; 'I' for Inactive)
REMARK    1  A    between atoms: C_9  and  C_10 
REMARK       I    between atoms: C_10  and  N_11 
REMARK    2  A    between atoms: N_11  and  C_12 
REMARK    3  A    between atoms: C_12  and  C_13 
REMARK    4  A    between atoms: C_13  and  O_14 
REMARK    5  A    between atoms: C_13  and  C_15 
REMARK    6  A    between atoms: C_18  and  O_19 
ROOT
HETATM    1  C   UNL     1      41.430 -16.851   5.825  1.00  0.00     0.258 C 
HETATM    2  N   UNL     1      42.710 -17.342   5.917  1.00  0.00    -0.350 N 
HETATM    3  O   UNL     1      40.554 -17.126   6.641  1.00  0.00    -0.267 OA
HETATM    4  H   UNL     1      43.405 -16.981   5.264  1.00  0.00     0.163 HD
ENDROOT
BRANCH   2   5
HETATM    5  C   UNL     1      43.194 -18.082   7.078  1.00  0.00     0.114 C 
HETATM    6  C   UNL     1      43.255 -17.134   8.279  1.00  0.00     0.035 C 
BRANCH   5   7
HETATM    7  C   UNL     1      44.580 -18.728   6.818  1.00  0.00     0.173 C 
BRANCH   7   8
HETATM    8  O   UNL     1      45.561 -17.724   6.523  1.00  0.00    -0.389 OA
HETATM    9  H   UNL     1      45.074 -16.956   6.176  1.00  0.00     0.210 HD
ENDBRANCH   7   8
BRANCH   7  10
HETATM   10  C   UNL     1      44.555 -19.787   5.731  1.00  0.00    -0.028 A 
HETATM   11  C   UNL     1      44.702 -19.413   4.389  1.00  0.00     0.012 A 
HETATM   12  C   UNL     1      44.687 -20.376   3.378  1.00  0.00     0.037 A 
HETATM   13  C   UNL     1      44.529 -21.730   3.683  1.00  0.00     0.068 A 
HETATM   14  C   UNL     1      44.395 -22.114   5.017  1.00  0.00     0.037 A 
HETATM   15  C   UNL     1      44.414 -21.151   6.032  1.00  0.00     0.012 A 
BRANCH  13  16
HETATM   16  O   UNL     1      44.526 -22.562   2.599  1.00  0.00    -0.356 OA
HETATM   17  C   UNL     1      44.043 -22.022   1.375  1.00  0.00     0.210 C 
ENDBRANCH  13  16
ENDBRANCH   7  10
ENDBRANCH   5   7
ENDBRANCH   2   5
BRANCH   1  18
HETATM   18  C   UNL     1      41.188 -15.961   4.701  1.00  0.00     0.105 A 
HETATM   19  C   UNL     1      41.637 -16.094   3.399  1.00  0.00     0.169 A 
HETATM   20  N   UNL     1      42.396 -17.065   2.792  1.00  0.00    -0.233 NA
HETATM   21  N   UNL     1      41.189 -14.963   2.707  1.00  0.00    -0.219 N 
HETATM   22  C   UNL     1      42.704 -16.866   1.543  1.00  0.00     0.035 A 
HETATM   23  C   UNL     1      43.530 -17.914   0.841  1.00  0.00     0.070 C 
HETATM   24  C   UNL     1      42.277 -15.685   0.731  1.00  0.00     0.053 A 
HETATM   25  C   UNL     1      41.520 -14.767   1.358  1.00  0.00     0.036 A 
HETATM   26  C   UNL     1      41.018 -13.529   0.684  1.00  0.00     0.070 C 
HETATM   27  N   UNL     1      40.446 -14.155   3.501  1.00  0.00    -0.170 NA
HETATM   28  C   UNL     1      40.452 -14.748   4.700  1.00  0.00     0.071 A 
HETATM   29  C   UNL     1      39.737 -14.117   5.840  1.00  0.00     0.073 C 
ENDBRANCH   1  18
TORSDOF 6
ENDMDL
MODEL 2
REMARK VINA RESULT:      -7.8      2.988      7.251
REMARK  6 active torsions:
REMARK  status: ('A' for Active; 'I' for Inactive)
REMARK    1  A    between atoms: C_9  and  C_10 
REMARK       I    between atoms: C_10  and  N_11 
REMARK    2  A    between atoms: N_11  and  C_12 
REMARK    3  A    between atoms: C_12  and  C_13 
REMARK    4  A    between atoms: C_13  and  O_14 
REMARK    5  A    between atoms: C_13  and  C_15 
REMARK    6  A    between atoms: C_18  and  O_19 
ROOT
HETATM    1  C   UNL     1      43.334 -16.987   3.280  1.00  0.00     0.258 C 
HETATM    2  N   UNL     1      42.066 -16.589   3.629  1.00  0.00    -0.350 N 
HETATM    3  O   UNL     1      44.001 -16.407   2.428  1.00  0.00    -0.267 OA
HETATM    4  H   UNL     1      41.623 -17.055   4.420  1.00  0.00     0.163 HD
ENDROOT
BRANCH   2   5
HETATM    5  C   UNL     1      41.468 -15.346   3.155  1.00  0.00     0.114 C 
HETATM    6  C   UNL     1      41.311 -14.388   4.340  1.00  0.00     0.035 C 
BRANCH   5   7
HETATM    7  C   UNL     1      40.101 -15.586   2.461  1.00  0.00     0.173 C 
BRANCH   7   8
HETATM    8  O   UNL     1      39.764 -16.981   2.476  1.00  0.00    -0.389 OA
HETATM    9  H   UNL     1      40.434 -17.433   1.936  1.00  0.00     0.210 HD
ENDBRANCH   7   8
BRANCH   7  10
HETATM   10  C   UNL     1      40.041 -15.036   1.047  1.00  0.00    -0.028 A 
HETATM   11  C   UNL     1      41.039 -15.373   0.124  1.00  0.00     0.012 A 
HETATM   12  C   UNL     1      40.994 -14.880  -1.182  1.00  0.00     0.037 A 
HETATM   13  C   UNL     1      39.953 -14.046  -1.594  1.00  0.00     0.068 A 
HETATM   14  C   UNL     1      38.947 -13.716  -0.687  1.00  0.00     0.037 A 
HETATM   15  C   UNL     1      38.988 -14.212   0.621  1.00  0.00     0.012 A 
BRANCH  13  16
HETATM   16  O   UNL     1      40.036 -13.631  -2.895  1.00  0.00    -0.356 OA
HETATM   17  C   UNL     1      41.313 -13.713  -3.515  1.00  0.00     0.210 C 
ENDBRANCH  13  16
ENDBRANCH   7  10
ENDBRANCH   5   7
ENDBRANCH   2   5
BRANCH   1  18
HETATM   18  C   UNL     1      43.845 -18.136   4.011  1.00  0.00     0.105 A 
HETATM   19  C   UNL     1      44.025 -19.428   3.546  1.00  0.00     0.169 A 
HETATM   20  N   UNL     1      43.808 -19.990   2.312  1.00  0.00    -0.233 NA
HETATM   21  N   UNL     1      44.486 -20.179   4.633  1.00  0.00    -0.219 N 
HETATM   22  C   UNL     1      44.024 -21.269   2.210  1.00  0.00     0.035 A 
HETATM   23  C   UNL     1      43.803 -21.922   0.868  1.00  0.00     0.070 C 
HETATM   24  C   UNL     1      44.506 -22.150   3.319  1.00  0.00     0.053 A 
HETATM   25  C   UNL     1      44.725 -21.556   4.505  1.00  0.00     0.036 A 
HETATM   26  C   UNL     1      45.204 -22.301   5.711  1.00  0.00     0.070 C 
HETATM   27  N   UNL     1      44.644 -19.412   5.738  1.00  0.00    -0.170 NA
HETATM   28  C   UNL     1      44.251 -18.189   5.369  1.00  0.00     0.071 A 
HETATM   29  C   UNL     1      44.273 -17.077   6.355  1.00  0.00     0.073 C 
ENDBRANCH   1  18
TORSDOF 6
ENDMDL
MODEL 3
REMARK VINA RESULT:      -7.8      1.471      2.013
REMARK  6 active torsions:
REMARK  status: ('A' for Active; 'I' for Inactive)
REMARK    1  A    between atoms: C_9  and  C_10 
REMARK       I    between atoms: C_10  and  N_11 
REMARK    2  A    between atoms: N_11  and  C_12 
REMARK    3  A    between atoms: C_12  and  C_13 
REMARK    4  A    between atoms: C_13  and  O_14 
REMARK    5  A    between atoms: C_13  and  C_15 
REMARK    6  A    between atoms: C_18  and  O_19 
ROOT
HETATM    1  C   UNL     1      40.965 -15.610   5.792  1.00  0.00     0.258 C 
HETATM    2  N   UNL     1      42.335 -15.701   5.818  1.00  0.00    -0.350 N 
HETATM    3  O   UNL     1      40.244 -16.208   6.586  1.00  0.00    -0.267 OA
HETATM    4  H   UNL     1      42.864 -15.089   5.196  1.00  0.00     0.163 HD
ENDROOT
BRANCH   2   5
HETATM    5  C   UNL     1      43.065 -16.367   6.892  1.00  0.00     0.114 C 
HETATM    6  C   UNL     1      44.558 -16.063   6.739  1.00  0.00     0.035 C 
BRANCH   5   7
HETATM    7  C   UNL     1      42.816 -17.898   6.901  1.00  0.00     0.173 C 
BRANCH   7   8
HETATM    8  O   UNL     1      43.336 -18.489   8.101  1.00  0.00    -0.389 OA
HETATM    9  H   UNL     1      43.398 -17.774   8.757  1.00  0.00     0.210 HD
ENDBRANCH   7   8
BRANCH   7  10
HETATM   10  C   UNL     1      43.366 -18.604   5.676  1.00  0.00    -0.028 A 
HETATM   11  C   UNL     1      44.429 -19.506   5.809  1.00  0.00     0.012 A 
HETATM   12  C   UNL     1      44.943 -20.168   4.691  1.00  0.00     0.037 A 
HETATM   13  C   UNL     1      44.405 -19.948   3.421  1.00  0.00     0.068 A 
HETATM   14  C   UNL     1      43.337 -19.063   3.280  1.00  0.00     0.037 A 
HETATM   15  C   UNL     1      42.819 -18.400   4.400  1.00  0.00     0.012 A 
BRANCH  13  16
HETATM   16  O   UNL     1      45.005 -20.655   2.417  1.00  0.00    -0.356 OA
HETATM   17  C   UNL     1      44.412 -21.898   2.063  1.00  0.00     0.210 C 
ENDBRANCH  13  16
ENDBRANCH   7  10
ENDBRANCH   5   7
ENDBRANCH   2   5
BRANCH   1  18
HETATM   18  C   UNL     1      40.423 -14.732   4.767  1.00  0.00     0.105 A 
HETATM   19  C   UNL     1      40.458 -14.905   3.394  1.00  0.00     0.169 A 
HETATM   20  N   UNL     1      40.971 -15.913   2.616  1.00  0.00    -0.233 NA
HETATM   21  N   UNL     1      39.855 -13.771   2.836  1.00  0.00    -0.219 N 
HETATM   22  C   UNL     1      40.897 -15.748   1.327  1.00  0.00     0.035 A 
HETATM   23  C   UNL     1      41.444 -16.838   0.439  1.00  0.00     0.070 C 
HETATM   24  C   UNL     1      40.281 -14.567   0.647  1.00  0.00     0.053 A 
HETATM   25  C   UNL     1      39.773 -13.612   1.445  1.00  0.00     0.036 A 
HETATM   26  C   UNL     1      39.128 -12.368   0.917  1.00  0.00     0.070 C 
HETATM   27  N   UNL     1      39.408 -12.923   3.793  1.00  0.00    -0.170 NA
HETATM   28  C   UNL     1      39.755 -13.494   4.951  1.00  0.00     0.071 A 
HETATM   29  C   UNL     1      39.433 -12.816   6.235  1.00  0.00     0.073 C 
ENDBRANCH   1  18
TORSDOF 6
ENDMDL
MODEL 4
REMARK VINA RESULT:      -7.8      2.514      5.763
REMARK  6 active torsions:
REMARK  status: ('A' for Active; 'I' for Inactive)
REMARK    1  A    between atoms: C_9  and  C_10 
REMARK       I    between atoms: C_10  and  N_11 
REMARK    2  A    between atoms: N_11  and  C_12 
REMARK    3  A    between atoms: C_12  and  C_13 
REMARK    4  A    between atoms: C_13  and  O_14 
REMARK    5  A    between atoms: C_13  and  C_15 
REMARK    6  A    between atoms: C_18  and  O_19 
ROOT
HETATM    1  C   UNL     1      43.696 -16.430   6.333  1.00  0.00     0.258 C 
HETATM    2  N   UNL     1      44.155 -15.424   5.518  1.00  0.00    -0.350 N 
HETATM    3  O   UNL     1      43.095 -16.213   7.382  1.00  0.00    -0.267 OA
HETATM    4  H   UNL     1      44.546 -15.686   4.614  1.00  0.00     0.163 HD
ENDROOT
BRANCH   2   5
HETATM    5  C   UNL     1      43.819 -14.019   5.727  1.00  0.00     0.114 C 
HETATM    6  C   UNL     1      44.117 -13.649   7.183  1.00  0.00     0.035 C 
BRANCH   5   7
HETATM    7  C   UNL     1      42.337 -13.718   5.378  1.00  0.00     0.173 C 
BRANCH   7   8
HETATM    8  O   UNL     1      41.467 -14.170   6.426  1.00  0.00    -0.389 OA
HETATM    9  H   UNL     1      41.734 -15.083   6.631  1.00  0.00     0.210 HD
ENDBRANCH   7   8
BRANCH   7  10
HETATM   10  C   UNL     1      41.906 -14.292   4.040  1.00  0.00    -0.028 A 
HETATM   11  C   UNL     1      42.461 -13.791   2.855  1.00  0.00     0.012 A 
HETATM   12  C   UNL     1      42.079 -14.312   1.617  1.00  0.00     0.037 A 
HETATM   13  C   UNL     1      41.142 -15.344   1.535  1.00  0.00     0.068 A 
HETATM   14  C   UNL     1      40.594 -15.859   2.710  1.00  0.00     0.037 A 
HETATM   15  C   UNL     1      40.978 -15.340   3.952  1.00  0.00     0.012 A 
BRANCH  13  16
HETATM   16  O   UNL     1      40.855 -15.755   0.263  1.00  0.00    -0.356 OA
HETATM   17  C   UNL     1      41.049 -14.805  -0.778  1.00  0.00     0.210 C 
ENDBRANCH  13  16
ENDBRANCH   7  10
ENDBRANCH   5   7
ENDBRANCH   2   5
BRANCH   1  18
HETATM   18  C   UNL     1      43.952 -17.779   5.854  1.00  0.00     0.105 A 
HETATM   19  C   UNL     1      44.014 -18.218   4.543  1.00  0.00     0.169 A 
HETATM   20  N   UNL     1      43.878 -17.549   3.351  1.00  0.00    -0.233 NA
HETATM   21  N   UNL     1      44.231 -19.600   4.597  1.00  0.00    -0.219 N 
HETATM   22  C   UNL     1      43.932 -18.272   2.270  1.00  0.00     0.035 A 
HETATM   23  C   UNL     1      43.794 -17.572   0.941  1.00  0.00     0.070 C 
HETATM   24  C   UNL     1      44.150 -19.751   2.235  1.00  0.00     0.053 A 
HETATM   25  C   UNL     1      44.297 -20.364   3.423  1.00  0.00     0.036 A 
HETATM   26  C   UNL     1      44.517 -21.839   3.555  1.00  0.00     0.070 C 
HETATM   27  N   UNL     1      44.351 -20.035   5.875  1.00  0.00    -0.170 NA
HETATM   28  C   UNL     1      44.175 -18.946   6.630  1.00  0.00     0.071 A 
HETATM   29  C   UNL     1      44.223 -19.058   8.111  1.00  0.00     0.073 C 
ENDBRANCH   1  18
TORSDOF 6
ENDMDL
MODEL 5
REMARK VINA RESULT:      -7.7      3.785      7.706
REMARK  6 active torsions:
REMARK  status: ('A' for Active; 'I' for Inactive)
REMARK    1  A    between atoms: C_9  and  C_10 
REMARK       I    between atoms: C_10  and  N_11 
REMARK    2  A    between atoms: N_11  and  C_12 
REMARK    3  A    between atoms: C_12  and  C_13 
REMARK    4  A    between atoms: C_13  and  O_14 
REMARK    5  A    between atoms: C_13  and  C_15 
REMARK    6  A    between atoms: C_18  and  O_19 
ROOT
HETATM    1  C   UNL     1      42.556 -14.734   2.847  1.00  0.00     0.258 C 
HETATM    2  N   UNL     1      41.497 -15.330   2.205  1.00  0.00    -0.350 N 
HETATM    3  O   UNL     1      43.037 -13.665   2.482  1.00  0.00    -0.267 OA
HETATM    4  H   UNL     1      41.088 -16.160   2.634  1.00  0.00     0.163 HD
ENDROOT
BRANCH   2   5
HETATM    5  C   UNL     1      40.735 -14.668   1.152  1.00  0.00     0.114 C 
HETATM    6  C   UNL     1      39.244 -14.751   1.492  1.00  0.00     0.035 C 
BRANCH   5   7
HETATM    7  C   UNL     1      41.014 -15.287  -0.244  1.00  0.00     0.173 C 
BRANCH   7   8
HETATM    8  O   UNL     1      41.995 -16.330  -0.149  1.00  0.00    -0.389 OA
HETATM    9  H   UNL     1      42.194 -16.605  -1.060  1.00  0.00     0.210 HD
ENDBRANCH   7   8
BRANCH   7  10
HETATM   10  C   UNL     1      41.423 -14.261  -1.285  1.00  0.00    -0.028 A 
HETATM   11  C   UNL     1      41.090 -14.462  -2.631  1.00  0.00     0.012 A 
HETATM   12  C   UNL     1      41.454 -13.525  -3.600  1.00  0.00     0.037 A 
HETATM   13  C   UNL     1      42.152 -12.368  -3.247  1.00  0.00     0.068 A 
HETATM   14  C   UNL     1      42.476 -12.152  -1.909  1.00  0.00     0.037 A 
HETATM   15  C   UNL     1      42.109 -13.088  -0.935  1.00  0.00     0.012 A 
BRANCH  13  16
HETATM   16  O   UNL     1      42.450 -11.540  -4.294  1.00  0.00    -0.356 OA
HETATM   17  C   UNL     1      42.440 -10.143  -4.031  1.00  0.00     0.210 C 
ENDBRANCH  13  16
ENDBRANCH   7  10
ENDBRANCH   5   7
ENDBRANCH   2   5
BRANCH   1  18
HETATM   18  C   UNL     1      43.058 -15.451   4.008  1.00  0.00     0.105 A 
HETATM   19  C   UNL     1      43.484 -16.767   4.078  1.00  0.00     0.169 A 
HETATM   20  N   UNL     1      43.576 -17.745   3.119  1.00  0.00    -0.233 NA
HETATM   21  N   UNL     1      43.821 -17.004   5.415  1.00  0.00    -0.219 N 
HETATM   22  C   UNL     1      43.966 -18.920   3.522  1.00  0.00     0.035 A 
HETATM   23  C   UNL     1      44.087 -20.019   2.497  1.00  0.00     0.070 C 
HETATM   24  C   UNL     1      44.335 -19.265   4.930  1.00  0.00     0.053 A 
HETATM   25  C   UNL     1      44.249 -18.273   5.834  1.00  0.00     0.036 A 
HETATM   26  C   UNL     1      44.580 -18.461   7.282  1.00  0.00     0.070 C 
HETATM   27  N   UNL     1      43.668 -15.892   6.172  1.00  0.00    -0.170 NA
HETATM   28  C   UNL     1      43.203 -14.962   5.332  1.00  0.00     0.071 A 
HETATM   29  C   UNL     1      42.898 -13.597   5.836  1.00  0.00     0.073 C 
ENDBRANCH   1  18
TORSDOF 6
ENDMDL
MODEL 6
REMARK VINA RESULT:      -7.7      3.000      7.453
REMARK  6 active torsions:
REMARK  status: ('A' for Active; 'I' for Inactive)
REMARK    1  A    between atoms: C_9  and  C_10 
REMARK       I    between atoms: C_10  and  N_11 
REMARK    2  A    between atoms: N_11  and  C_12 
REMARK    3  A    between atoms: C_12  and  C_13 
REMARK    4  A    between atoms: C_13  and  O_14 
REMARK    5  A    between atoms: C_13  and  C_15 
REMARK    6  A    between atoms: C_18  and  O_19 
ROOT
HETATM    1  C   UNL     1      42.731 -15.759   3.149  1.00  0.00     0.258 C 
HETATM    2  N   UNL     1      41.364 -15.664   3.242  1.00  0.00    -0.350 N 
HETATM    3  O   UNL     1      43.450 -14.789   2.925  1.00  0.00    -0.267 OA
HETATM    4  H   UNL     1      40.849 -16.493   3.538  1.00  0.00     0.163 HD
ENDROOT
BRANCH   2   5
HETATM    5  C   UNL     1      40.658 -14.387   3.265  1.00  0.00     0.114 C 
HETATM    6  C   UNL     1      39.836 -14.297   4.554  1.00  0.00     0.035 C 
BRANCH   5   7
HETATM    7  C   UNL     1      39.748 -14.204   2.021  1.00  0.00     0.173 C 
BRANCH   7   8
HETATM    8  O   UNL     1      38.899 -15.347   1.841  1.00  0.00    -0.389 OA
HETATM    9  H   UNL     1      38.992 -15.616   0.911  1.00  0.00     0.210 HD
ENDBRANCH   7   8
BRANCH   7  10
HETATM   10  C   UNL     1      40.521 -13.907   0.749  1.00  0.00    -0.028 A 
HETATM   11  C   UNL     1      41.341 -12.773   0.680  1.00  0.00     0.012 A 
HETATM   12  C   UNL     1      42.064 -12.488  -0.481  1.00  0.00     0.037 A 
HETATM   13  C   UNL     1      41.986 -13.329  -1.593  1.00  0.00     0.068 A 
HETATM   14  C   UNL     1      41.184 -14.468  -1.529  1.00  0.00     0.037 A 
HETATM   15  C   UNL     1      40.462 -14.757  -0.365  1.00  0.00     0.012 A 
BRANCH  13  16
HETATM   16  O   UNL     1      42.739 -12.930  -2.663  1.00  0.00    -0.356 OA
HETATM   17  C   UNL     1      42.068 -12.206  -3.686  1.00  0.00     0.210 C 
ENDBRANCH  13  16
ENDBRANCH   7  10
ENDBRANCH   5   7
ENDBRANCH   2   5
BRANCH   1  18
HETATM   18  C   UNL     1      43.274 -17.092   3.356  1.00  0.00     0.105 A 
HETATM   19  C   UNL     1      43.524 -17.731   4.558  1.00  0.00     0.169 A 
HETATM   20  N   UNL     1      43.330 -17.333   5.858  1.00  0.00    -0.233 NA
HETATM   21  N   UNL     1      44.091 -18.970   4.238  1.00  0.00    -0.219 N 
HETATM   22  C   UNL     1      43.731 -18.156   6.784  1.00  0.00     0.035 A 
HETATM   23  C   UNL     1      43.529 -17.757   8.224  1.00  0.00     0.070 C 
HETATM   24  C   UNL     1      44.355 -19.492   6.533  1.00  0.00     0.053 A 
HETATM   25  C   UNL     1      44.509 -19.851   5.246  1.00  0.00     0.036 A 
HETATM   26  C   UNL     1      45.120 -21.153   4.833  1.00  0.00     0.070 C 
HETATM   27  N   UNL     1      44.167 -19.152   2.898  1.00  0.00    -0.170 NA
HETATM   28  C   UNL     1      43.685 -18.023   2.368  1.00  0.00     0.071 A 
HETATM   29  C   UNL     1      43.635 -17.863   0.890  1.00  0.00     0.073 C 
ENDBRANCH   1  18
TORSDOF 6
ENDMDL
MODEL 7
REMARK VINA RESULT:      -7.6      2.767      7.336
REMARK  6 active torsions:
REMARK  status: ('A' for Active; 'I' for Inactive)
REMARK    1  A    between atoms: C_9  and  C_10 
REMARK       I    between atoms: C_10  and  N_11 
REMARK    2  A    between atoms: N_11  and  C_12 
REMARK    3  A    between atoms: C_12  and  C_13 
REMARK    4  A    between atoms: C_13  and  O_14 
REMARK    5  A    between atoms: C_13  and  C_15 
REMARK    6  A    between atoms: C_18  and  O_19 
ROOT
HETATM    1  C   UNL     1      43.173 -15.937   3.425  1.00  0.00     0.258 C 
HETATM    2  N   UNL     1      42.213 -15.577   4.339  1.00  0.00    -0.350 N 
HETATM    3  O   UNL     1      43.712 -15.129   2.674  1.00  0.00    -0.267 OA
HETATM    4  H   UNL     1      41.895 -16.287   4.998  1.00  0.00     0.163 HD
ENDROOT
BRANCH   2   5
HETATM    5  C   UNL     1      41.876 -14.187   4.627  1.00  0.00     0.114 C 
HETATM    6  C   UNL     1      42.608 -13.753   5.901  1.00  0.00     0.035 C 
BRANCH   5   7
HETATM    7  C   UNL     1      40.346 -13.979   4.777  1.00  0.00     0.173 C 
BRANCH   7   8
HETATM    8  O   UNL     1      39.754 -15.069   5.500  1.00  0.00    -0.389 OA
HETATM    9  H   UNL     1      40.150 -15.058   6.388  1.00  0.00     0.210 HD
ENDBRANCH   7   8
BRANCH   7  10
HETATM   10  C   UNL     1      39.635 -13.769   3.452  1.00  0.00    -0.028 A 
HETATM   11  C   UNL     1      39.161 -12.496   3.110  1.00  0.00     0.012 A 
HETATM   12  C   UNL     1      38.510 -12.284   1.892  1.00  0.00     0.037 A 
HETATM   13  C   UNL     1      38.323 -13.335   0.991  1.00  0.00     0.068 A 
HETATM   14  C   UNL     1      38.804 -14.602   1.317  1.00  0.00     0.037 A 
HETATM   15  C   UNL     1      39.459 -14.816   2.535  1.00  0.00     0.012 A 
BRANCH  13  16
HETATM   16  O   UNL     1      37.667 -12.991  -0.158  1.00  0.00    -0.356 OA
HETATM   17  C   UNL     1      38.100 -13.619  -1.358  1.00  0.00     0.210 C 
ENDBRANCH  13  16
ENDBRANCH   7  10
ENDBRANCH   5   7
ENDBRANCH   2   5
BRANCH   1  18
HETATM   18  C   UNL     1      43.526 -17.348   3.422  1.00  0.00     0.105 A 
HETATM   19  C   UNL     1      43.741 -18.173   4.513  1.00  0.00     0.169 A 
HETATM   20  N   UNL     1      43.674 -17.933   5.863  1.00  0.00    -0.233 NA
HETATM   21  N   UNL     1      44.105 -19.423   3.998  1.00  0.00    -0.219 N 
HETATM   22  C   UNL     1      43.997 -18.921   6.646  1.00  0.00     0.035 A 
HETATM   23  C   UNL     1      43.928 -18.698   8.136  1.00  0.00     0.070 C 
HETATM   24  C   UNL     1      44.406 -20.284   6.184  1.00  0.00     0.053 A 
HETATM   25  C   UNL     1      44.440 -20.482   4.855  1.00  0.00     0.036 A 
HETATM   26  C   UNL     1      44.834 -21.788   4.237  1.00  0.00     0.070 C 
HETATM   27  N   UNL     1      44.085 -19.430   2.644  1.00  0.00    -0.170 NA
HETATM   28  C   UNL     1      43.746 -18.184   2.297  1.00  0.00     0.071 A 
HETATM   29  C   UNL     1      43.645 -17.819   0.859  1.00  0.00     0.073 C 
ENDBRANCH   1  18
TORSDOF 6
ENDMDL
MODEL 8
REMARK VINA RESULT:      -7.5      5.238      7.857
REMARK  6 active torsions:
REMARK  status: ('A' for Active; 'I' for Inactive)
REMARK    1  A    between atoms: C_9  and  C_10 
REMARK       I    between atoms: C_10  and  N_11 
REMARK    2  A    between atoms: N_11  and  C_12 
REMARK    3  A    between atoms: C_12  and  C_13 
REMARK    4  A    between atoms: C_13  and  O_14 
REMARK    5  A    between atoms: C_13  and  C_15 
REMARK    6  A    between atoms: C_18  and  O_19 
ROOT
HETATM    1  C   UNL     1      40.808 -10.844   7.453  1.00  0.00     0.258 C 
HETATM    2  N   UNL     1      41.487 -11.884   6.865  1.00  0.00    -0.350 N 
HETATM    3  O   UNL     1      39.909 -10.233   6.883  1.00  0.00    -0.267 OA
HETATM    4  H   UNL     1      42.143 -12.410   7.443  1.00  0.00     0.163 HD
ENDROOT
BRANCH   2   5
HETATM    5  C   UNL     1      41.087 -12.473   5.591  1.00  0.00     0.114 C 
HETATM    6  C   UNL     1      40.111 -13.621   5.860  1.00  0.00     0.035 C 
BRANCH   5   7
HETATM    7  C   UNL     1      42.307 -12.971   4.772  1.00  0.00     0.173 C 
BRANCH   7   8
HETATM    8  O   UNL     1      41.937 -13.212   3.407  1.00  0.00    -0.389 OA
HETATM    9  H   UNL     1      42.577 -13.855   3.057  1.00  0.00     0.210 HD
ENDBRANCH   7   8
BRANCH   7  10
HETATM   10  C   UNL     1      42.972 -14.197   5.371  1.00  0.00    -0.028 A 
HETATM   11  C   UNL     1      42.785 -15.452   4.777  1.00  0.00     0.012 A 
HETATM   12  C   UNL     1      43.395 -16.589   5.313  1.00  0.00     0.037 A 
HETATM   13  C   UNL     1      44.205 -16.497   6.446  1.00  0.00     0.068 A 
HETATM   14  C   UNL     1      44.409 -15.250   7.036  1.00  0.00     0.037 A 
HETATM   15  C   UNL     1      43.802 -14.109   6.500  1.00  0.00     0.012 A 
BRANCH  13  16
HETATM   16  O   UNL     1      44.734 -17.685   6.867  1.00  0.00    -0.356 OA
HETATM   17  C   UNL     1      44.031 -18.374   7.894  1.00  0.00     0.210 C 
ENDBRANCH  13  16
ENDBRANCH   7  10
ENDBRANCH   5   7
ENDBRANCH   2   5
BRANCH   1  18
HETATM   18  C   UNL     1      41.216 -10.530   8.813  1.00  0.00     0.105 A 
HETATM   19  C   UNL     1      42.480 -10.635   9.368  1.00  0.00     0.169 A 
HETATM   20  N   UNL     1      43.680 -11.029   8.830  1.00  0.00    -0.233 NA
HETATM   21  N   UNL     1      42.353 -10.269  10.713  1.00  0.00    -0.219 N 
HETATM   22  C   UNL     1      44.694 -11.077   9.645  1.00  0.00     0.035 A 
HETATM   23  C   UNL     1      46.031 -11.499   9.090  1.00  0.00     0.070 C 
HETATM   24  C   UNL     1      44.648 -10.714  11.095  1.00  0.00     0.053 A 
HETATM   25  C   UNL     1      43.458 -10.315  11.577  1.00  0.00     0.036 A 
HETATM   26  C   UNL     1      43.249  -9.924  13.007  1.00  0.00     0.070 C 
HETATM   27  N   UNL     1      41.085  -9.900  11.012  1.00  0.00    -0.170 NA
HETATM   28  C   UNL     1      40.400 -10.065   9.876  1.00  0.00     0.071 A 
HETATM   29  C   UNL     1      38.943  -9.767   9.842  1.00  0.00     0.073 C 
ENDBRANCH   1  18
TORSDOF 6
ENDMDL
MODEL 9
REMARK VINA RESULT:      -7.5      3.767      5.989
REMARK  6 active torsions:
REMARK  status: ('A' for Active; 'I' for Inactive)
REMARK    1  A    between atoms: C_9  and  C_10 
REMARK       I    between atoms: C_10  and  N_11 
REMARK    2  A    between atoms: N_11  and  C_12 
REMARK    3  A    between atoms: C_12  and  C_13 
REMARK    4  A    between atoms: C_13  and  O_14 
REMARK    5  A    between atoms: C_13  and  C_15 
REMARK    6  A    between atoms: C_18  and  O_19 
ROOT
HETATM    1  C   UNL     1      41.430 -14.724  -0.046  1.00  0.00     0.258 C 
HETATM    2  N   UNL     1      41.623 -13.959   1.079  1.00  0.00    -0.350 N 
HETATM    3  O   UNL     1      41.116 -15.909   0.002  1.00  0.00    -0.267 OA
HETATM    4  H   UNL     1      41.775 -12.959   0.954  1.00  0.00     0.163 HD
ENDROOT
BRANCH   2   5
HETATM    5  C   UNL     1      41.302 -14.431   2.422  1.00  0.00     0.114 C 
HETATM    6  C   UNL     1      40.320 -13.451   3.070  1.00  0.00     0.035 C 
BRANCH   5   7
HETATM    7  C   UNL     1      42.571 -14.597   3.299  1.00  0.00     0.173 C 
BRANCH   7   8
HETATM    8  O   UNL     1      43.611 -13.713   2.857  1.00  0.00    -0.389 OA
HETATM    9  H   UNL     1      44.441 -14.054   3.232  1.00  0.00     0.210 HD
ENDBRANCH   7   8
BRANCH   7  10
HETATM   10  C   UNL     1      43.075 -16.027   3.363  1.00  0.00    -0.028 A 
HETATM   11  C   UNL     1      43.014 -16.735   4.570  1.00  0.00     0.012 A 
HETATM   12  C   UNL     1      43.469 -18.054   4.644  1.00  0.00     0.037 A 
HETATM   13  C   UNL     1      43.989 -18.693   3.516  1.00  0.00     0.068 A 
HETATM   14  C   UNL     1      44.041 -18.001   2.307  1.00  0.00     0.037 A 
HETATM   15  C   UNL     1      43.583 -16.681   2.230  1.00  0.00     0.012 A 
BRANCH  13  16
HETATM   16  O   UNL     1      44.403 -19.978   3.730  1.00  0.00    -0.356 OA
HETATM   17  C   UNL     1      44.509 -20.818   2.587  1.00  0.00     0.210 C 
ENDBRANCH  13  16
ENDBRANCH   7  10
ENDBRANCH   5   7
ENDBRANCH   2   5
BRANCH   1  18
HETATM   18  C   UNL     1      41.602 -14.020  -1.308  1.00  0.00     0.105 A 
HETATM   19  C   UNL     1      42.087 -12.740  -1.509  1.00  0.00     0.169 A 
HETATM   20  N   UNL     1      42.549 -11.793  -0.628  1.00  0.00    -0.233 NA
HETATM   21  N   UNL     1      42.010 -12.498  -2.885  1.00  0.00    -0.219 N 
HETATM   22  C   UNL     1      42.886 -10.643  -1.135  1.00  0.00     0.035 A 
HETATM   23  C   UNL     1      43.406  -9.579  -0.200  1.00  0.00     0.070 C 
HETATM   24  C   UNL     1      42.827 -10.294  -2.588  1.00  0.00     0.053 A 
HETATM   25  C   UNL     1      42.387 -11.256  -3.418  1.00  0.00     0.036 A 
HETATM   26  C   UNL     1      42.266 -11.061  -4.898  1.00  0.00     0.070 C 
HETATM   27  N   UNL     1      41.543 -13.578  -3.555  1.00  0.00    -0.170 NA
HETATM   28  C   UNL     1      41.289 -14.489  -2.610  1.00  0.00     0.071 A 
HETATM   29  C   UNL     1      40.737 -15.816  -2.991  1.00  0.00     0.073 C 
ENDBRANCH   1  18
TORSDOF 6
ENDMDL
MODEL 10
REMARK VINA RESULT:      -7.5      4.667      6.565
REMARK  6 active torsions:
REMARK  status: ('A' for Active; 'I' for Inactive)
REMARK    1  A    between atoms: C_9  and  C_10 
REMARK       I    between atoms: C_10  and  N_11 
REMARK    2  A    between atoms: N_11  and  C_12 
REMARK    3  A    between atoms: C_12  and  C_13 
REMARK    4  A    between atoms: C_13  and  O_14 
REMARK    5  A    between atoms: C_13  and  C_15 
REMARK    6  A    between atoms: C_18  and  O_19 
ROOT
HETATM    1  C   UNL     1      44.712 -12.898   8.194  1.00  0.00     0.258 C 
HETATM    2  N   UNL     1      43.861 -13.921   7.854  1.00  0.00    -0.350 N 
HETATM    3  O   UNL     1      45.882 -12.858   7.827  1.00  0.00    -0.267 OA
HETATM    4  H   UNL     1      42.877 -13.825   8.107  1.00  0.00     0.163 HD
ENDROOT
BRANCH   2   5
HETATM    5  C   UNL     1      44.212 -14.956   6.887  1.00  0.00     0.114 C 
HETATM    6  C   UNL     1      43.971 -14.416   5.474  1.00  0.00     0.035 C 
BRANCH   5   7
HETATM    7  C   UNL     1      43.411 -16.264   7.118  1.00  0.00     0.173 C 
BRANCH   7   8
HETATM    8  O   UNL     1      43.596 -16.742   8.459  1.00  0.00    -0.389 OA
HETATM    9  H   UNL     1      44.492 -17.120   8.496  1.00  0.00     0.210 HD
ENDBRANCH   7   8
BRANCH   7  10
HETATM   10  C   UNL     1      43.736 -17.354   6.113  1.00  0.00    -0.028 A 
HETATM   11  C   UNL     1      42.895 -17.560   5.012  1.00  0.00     0.012 A 
HETATM   12  C   UNL     1      43.183 -18.554   4.074  1.00  0.00     0.037 A 
HETATM   13  C   UNL     1      44.316 -19.359   4.213  1.00  0.00     0.068 A 
HETATM   14  C   UNL     1      45.167 -19.153   5.298  1.00  0.00     0.037 A 
HETATM   15  C   UNL     1      44.881 -18.154   6.237  1.00  0.00     0.012 A 
BRANCH  13  16
HETATM   16  O   UNL     1      44.474 -20.295   3.229  1.00  0.00    -0.356 OA
HETATM   17  C   UNL     1      43.596 -20.211   2.114  1.00  0.00     0.210 C 
ENDBRANCH  13  16
ENDBRANCH   7  10
ENDBRANCH   5   7
ENDBRANCH   2   5
BRANCH   1  18
HETATM   18  C   UNL     1      44.120 -11.845   9.005  1.00  0.00     0.105 A 
HETATM   19  C   UNL     1      42.958 -11.134   8.759  1.00  0.00     0.169 A 
HETATM   20  N   UNL     1      42.043 -11.210   7.739  1.00  0.00    -0.233 NA
HETATM   21  N   UNL     1      42.839 -10.200   9.795  1.00  0.00    -0.219 N 
HETATM   22  C   UNL     1      41.070 -10.345   7.764  1.00  0.00     0.035 A 
HETATM   23  C   UNL     1      40.041 -10.401   6.663  1.00  0.00     0.070 C 
HETATM   24  C   UNL     1      40.871  -9.308   8.824  1.00  0.00     0.053 A 
HETATM   25  C   UNL     1      41.779  -9.281   9.815  1.00  0.00     0.036 A 
HETATM   26  C   UNL     1      41.721  -8.300  10.945  1.00  0.00     0.070 C 
HETATM   27  N   UNL     1      43.843 -10.323  10.695  1.00  0.00    -0.170 NA
HETATM   28  C   UNL     1      44.617 -11.303  10.218  1.00  0.00     0.071 A 
HETATM   29  C   UNL     1      45.846 -11.701  10.956  1.00  0.00     0.073 C 
ENDBRANCH   1  18
TORSDOF 6
ENDMDL
