MODEL 1
REMARK VINA RESULT:      -7.5      0.000      0.000
REMARK  11 active torsions:
REMARK  status: ('A' for Active; 'I' for Inactive)
REMARK    1  A    between atoms: C_2  and  C_3 
REMARK    2  A    between atoms: C_3  and  N_4 
REMARK    3  A    between atoms: N_4  and  C_6 
REMARK    4  A    between atoms: N_4  and  C_30 
REMARK    5  A    between atoms: C_6  and  C_7 
REMARK    6  A    between atoms: N_8  and  C_9 
REMARK    7  A    between atoms: C_13  and  N_14 
REMARK    8  A    between atoms: C_17  and  C_18 
REMARK       I    between atoms: C_18  and  N_19 
REMARK    9  A    between atoms: N_19  and  N_20 
REMARK   10  A    between atoms: C_21  and  C_22 
REMARK   11  A    between atoms: C_30  and  C_31 
ROOT
HETATM    1  C   UNL     1      43.361 -11.697   8.961  1.00  0.00     0.096 A 
HETATM    2  N   UNL     1      43.284 -11.275  10.290  1.00  0.00    -0.215 N 
HETATM    3  N   UNL     1      44.252 -11.919  11.001  1.00  0.00     0.012 NA
HETATM    4  N   UNL     1      44.869 -12.790  10.221  1.00  0.00    -0.152 NA
HETATM    5  C   UNL     1      44.334 -12.688   8.974  1.00  0.00     0.170 A 
ENDROOT
BRANCH   5   6
HETATM    6  C   UNL     1      44.752 -13.500   7.841  1.00  0.00     0.293 C 
HETATM    7  N   UNL     1      43.886 -14.528   7.533  1.00  0.00    -0.242 N 
HETATM    8  H   UNL     1      43.033 -14.659   8.073  1.00  0.00     0.192 HD
HETATM    9  O   UNL     1      45.800 -13.229   7.257  1.00  0.00    -0.264 OA
BRANCH   7  10
HETATM   10  N   UNL     1      44.244 -15.447   6.592  1.00  0.00    -0.184 NA
HETATM   11  C   UNL     1      43.451 -16.465   6.469  1.00  0.00     0.150 C 
BRANCH  11  12
HETATM   12  C   UNL     1      43.742 -17.563   5.527  1.00  0.00    -0.017 A 
HETATM   13  C   UNL     1      44.617 -18.597   5.879  1.00  0.00     0.014 A 
HETATM   14  C   UNL     1      44.860 -19.640   4.983  1.00  0.00     0.020 A 
HETATM   15  C   UNL     1      44.228 -19.643   3.740  1.00  0.00     0.011 A 
HETATM   16 BR   UNL     1      44.552 -21.059   2.529  1.00  0.00    -0.051 Br
HETATM   17  C   UNL     1      43.359 -18.612   3.382  1.00  0.00     0.020 A 
HETATM   18  C   UNL     1      43.113 -17.569   4.278  1.00  0.00     0.014 A 
ENDBRANCH  11  12
ENDBRANCH   7  10
ENDBRANCH   5   6
BRANCH   1  19
HETATM   19  C   UNL     1      42.626 -11.115   7.807  1.00  0.00     0.296 C 
BRANCH  19  20
HETATM   20  N   UNL     1      41.364 -11.857   7.386  1.00  0.00    -0.066 N 
HETATM   21  H   UNL     1      41.291 -12.660   8.044  1.00  0.00     0.280 HD
BRANCH  20  22
HETATM   22  C   UNL     1      41.470 -12.413   5.975  1.00  0.00     0.235 C 
BRANCH  22  23
HETATM   23  C   UNL     1      40.249 -13.202   5.506  1.00  0.00     0.023 C 
HETATM   24  C   UNL     1      40.322 -14.692   5.791  1.00  0.00     0.007 C 
ENDBRANCH  22  23
ENDBRANCH  20  22
BRANCH  20  25
HETATM   25  C   UNL     1      40.123 -10.995   7.551  1.00  0.00     0.235 C 
BRANCH  25  26
HETATM   26  C   UNL     1      39.379 -11.222   8.867  1.00  0.00     0.023 C 
HETATM   27  C   UNL     1      38.608 -10.011   9.366  1.00  0.00     0.007 C 
ENDBRANCH  25  26
ENDBRANCH  20  25
ENDBRANCH  19  20
ENDBRANCH   1  19
BRANCH   2  28
HETATM   28  C   UNL     1      42.374 -10.386  10.909  1.00  0.00     0.225 A 
HETATM   29  N   UNL     1      42.300  -9.115  10.514  1.00  0.00    -0.081 NA
HETATM   30  O   UNL     1      41.295  -8.572  11.320  1.00  0.00    -0.103 OA
HETATM   31  N   UNL     1      40.765  -9.529  12.173  1.00  0.00    -0.083 NA
HETATM   32  C   UNL     1      41.430 -10.654  11.917  1.00  0.00     0.201 A 
BRANCH  32  33
HETATM   33  N   UNL     1      41.213 -11.822  12.540  1.00  0.00    -0.379 N 
HETATM   34  H   UNL     1      40.562 -12.498  12.148  1.00  0.00     0.158 HD
HETATM   35  H   UNL     1      41.807 -12.188  13.282  1.00  0.00     0.158 HD
ENDBRANCH  32  33
ENDBRANCH   2  28
TORSDOF 11
ENDMDL
MODEL 2
REMARK VINA RESULT:      -7.4      5.796      8.758
REMARK  11 active torsions:
REMARK  status: ('A' for Active; 'I' for Inactive)
REMARK    1  A    between atoms: C_2  and  C_3 
REMARK    2  A    between atoms: C_3  and  N_4 
REMARK    3  A    between atoms: N_4  and  C_6 
REMARK    4  A    between atoms: N_4  and  C_30 
REMARK    5  A    between atoms: C_6  and  C_7 
REMARK    6  A    between atoms: N_8  and  C_9 
REMARK    7  A    between atoms: C_13  and  N_14 
REMARK    8  A    between atoms: C_17  and  C_18 
REMARK       I    between atoms: C_18  and  N_19 
REMARK    9  A    between atoms: N_19  and  N_20 
REMARK   10  A    between atoms: C_21  and  C_22 
REMARK   11  A    between atoms: C_30  and  C_31 
ROOT
HETATM    1  C   UNL     1      43.124 -16.280   4.399  1.00  0.00     0.096 A 
HETATM    2  N   UNL     1      42.684 -16.845   5.597  1.00  0.00    -0.215 N 
HETATM    3  N   UNL     1      41.778 -15.999   6.163  1.00  0.00     0.012 NA
HETATM    4  N   UNL     1      41.694 -14.894   5.442  1.00  0.00    -0.152 NA
HETATM    5  C   UNL     1      42.518 -15.031   4.368  1.00  0.00     0.170 A 
ENDROOT
BRANCH   5   6
HETATM    6  C   UNL     1      42.701 -14.009   3.349  1.00  0.00     0.293 C 
HETATM    7  N   UNL     1      41.597 -13.805   2.549  1.00  0.00    -0.242 N 
HETATM    8  H   UNL     1      40.745 -14.339   2.706  1.00  0.00     0.192 HD
HETATM    9  O   UNL     1      43.778 -13.420   3.271  1.00  0.00    -0.264 OA
BRANCH   7  10
HETATM   10  N   UNL     1      41.697 -12.985   1.465  1.00  0.00    -0.184 NA
HETATM   11  C   UNL     1      41.746 -13.577   0.313  1.00  0.00     0.150 C 
BRANCH  11  12
HETATM   12  C   UNL     1      41.908 -12.817  -0.942  1.00  0.00    -0.017 A 
HETATM   13  C   UNL     1      42.626 -11.616  -0.965  1.00  0.00     0.014 A 
HETATM   14  C   UNL     1      42.789 -10.925  -2.168  1.00  0.00     0.020 A 
HETATM   15  C   UNL     1      42.232 -11.437  -3.339  1.00  0.00     0.011 A 
HETATM   16 BR   UNL     1      42.459 -10.504  -4.968  1.00  0.00    -0.051 Br
HETATM   17  C   UNL     1      41.512 -12.632  -3.321  1.00  0.00     0.020 A 
HETATM   18  C   UNL     1      41.350 -13.326  -2.119  1.00  0.00     0.014 A 
ENDBRANCH  11  12
ENDBRANCH   7  10
ENDBRANCH   5   6
BRANCH   1  19
HETATM   19  C   UNL     1      43.965 -16.943   3.368  1.00  0.00     0.296 C 
BRANCH  19  20
HETATM   20  N   UNL     1      43.227 -17.869   2.409  1.00  0.00    -0.066 N 
HETATM   21  H   UNL     1      42.349 -18.127   2.905  1.00  0.00     0.280 HD
BRANCH  20  22
HETATM   22  C   UNL     1      44.005 -19.146   2.134  1.00  0.00     0.235 C 
BRANCH  22  23
HETATM   23  C   UNL     1      43.143 -20.395   1.963  1.00  0.00     0.023 C 
HETATM   24  C   UNL     1      43.930 -21.663   1.679  1.00  0.00     0.007 C 
ENDBRANCH  22  23
ENDBRANCH  20  22
BRANCH  20  25
HETATM   25  C   UNL     1      42.852 -17.159   1.118  1.00  0.00     0.235 C 
BRANCH  25  26
HETATM   26  C   UNL     1      41.357 -17.197   0.801  1.00  0.00     0.023 C 
HETATM   27  C   UNL     1      40.457 -17.161   2.026  1.00  0.00     0.007 C 
ENDBRANCH  25  26
ENDBRANCH  20  25
ENDBRANCH  19  20
ENDBRANCH   1  19
BRANCH   2  28
HETATM   28  C   UNL     1      43.078 -18.046   6.234  1.00  0.00     0.225 A 
HETATM   29  N   UNL     1      43.228 -19.166   5.525  1.00  0.00    -0.081 NA
HETATM   30  O   UNL     1      43.640 -20.108   6.471  1.00  0.00    -0.103 OA
HETATM   31  N   UNL     1      43.751 -19.538   7.731  1.00  0.00    -0.083 NA
HETATM   32  C   UNL     1      43.406 -18.260   7.585  1.00  0.00     0.201 A 
BRANCH  32  33
HETATM   33  N   UNL     1      43.382 -17.362   8.581  1.00  0.00    -0.379 N 
HETATM   34  H   UNL     1      43.939 -17.512   9.418  1.00  0.00     0.158 HD
HETATM   35  H   UNL     1      43.004 -16.421   8.486  1.00  0.00     0.158 HD
ENDBRANCH  32  33
ENDBRANCH   2  28
TORSDOF 11
ENDMDL
MODEL 3
REMARK VINA RESULT:      -7.1      4.410      9.073
REMARK  11 active torsions:
REMARK  status: ('A' for Active; 'I' for Inactive)
REMARK    1  A    between atoms: C_2  and  C_3 
REMARK    2  A    between atoms: C_3  and  N_4 
REMARK    3  A    between atoms: N_4  and  C_6 
REMARK    4  A    between atoms: N_4  and  C_30 
REMARK    5  A    between atoms: C_6  and  C_7 
REMARK    6  A    between atoms: N_8  and  C_9 
REMARK    7  A    between atoms: C_13  and  N_14 
REMARK    8  A    between atoms: C_17  and  C_18 
REMARK       I    between atoms: C_18  and  N_19 
REMARK    9  A    between atoms: N_19  and  N_20 
REMARK   10  A    between atoms: C_21  and  C_22 
REMARK   11  A    between atoms: C_30  and  C_31 
ROOT
HETATM    1  C   UNL     1      41.142 -13.805   4.998  1.00  0.00     0.096 A 
HETATM    2  N   UNL     1      41.547 -13.856   3.663  1.00  0.00    -0.215 N 
HETATM    3  N   UNL     1      41.912 -12.601   3.277  1.00  0.00     0.012 NA
HETATM    4  N   UNL     1      41.671 -11.749   4.258  1.00  0.00    -0.152 NA
HETATM    5  C   UNL     1      41.184 -12.454   5.315  1.00  0.00     0.170 A 
ENDROOT
BRANCH   5   6
HETATM    6  C   UNL     1      40.791 -11.853   6.581  1.00  0.00     0.293 C 
HETATM    7  N   UNL     1      41.845 -11.359   7.322  1.00  0.00    -0.242 N 
HETATM    8  H   UNL     1      42.796 -11.421   6.966  1.00  0.00     0.192 HD
HETATM    9  O   UNL     1      39.602 -11.824   6.893  1.00  0.00    -0.264 OA
BRANCH   7  10
HETATM   10  N   UNL     1      41.620 -10.912   8.590  1.00  0.00    -0.184 NA
HETATM   11  C   UNL     1      42.634 -10.968   9.395  1.00  0.00     0.150 C 
BRANCH  11  12
HETATM   12  C   UNL     1      42.522 -10.566  10.811  1.00  0.00    -0.017 A 
HETATM   13  C   UNL     1      41.295 -10.640  11.482  1.00  0.00     0.014 A 
HETATM   14  C   UNL     1      41.216 -10.279  12.828  1.00  0.00     0.020 A 
HETATM   15  C   UNL     1      42.360  -9.845  13.496  1.00  0.00     0.011 A 
HETATM   16 BR   UNL     1      42.253  -9.363  15.321  1.00  0.00    -0.051 Br
HETATM   17  C   UNL     1      43.584  -9.765  12.831  1.00  0.00     0.020 A 
HETATM   18  C   UNL     1      43.667 -10.128  11.484  1.00  0.00     0.014 A 
ENDBRANCH  11  12
ENDBRANCH   7  10
ENDBRANCH   5   6
BRANCH   1  19
HETATM   19  C   UNL     1      40.845 -14.968   5.875  1.00  0.00     0.296 C 
BRANCH  19  20
HETATM   20  N   UNL     1      42.044 -15.587   6.581  1.00  0.00    -0.066 N 
HETATM   21  H   UNL     1      41.972 -15.266   7.568  1.00  0.00     0.280 HD
BRANCH  20  22
HETATM   22  C   UNL     1      43.363 -15.080   6.018  1.00  0.00     0.235 C 
BRANCH  22  23
HETATM   23  C   UNL     1      44.499 -14.988   7.035  1.00  0.00     0.023 C 
HETATM   24  C   UNL     1      44.685 -13.607   7.639  1.00  0.00     0.007 C 
ENDBRANCH  22  23
ENDBRANCH  20  22
BRANCH  20  25
HETATM   25  C   UNL     1      41.984 -17.105   6.569  1.00  0.00     0.235 C 
BRANCH  25  26
HETATM   26  C   UNL     1      41.640 -17.703   5.205  1.00  0.00     0.023 C 
HETATM   27  C   UNL     1      42.781 -18.464   4.550  1.00  0.00     0.007 C 
ENDBRANCH  25  26
ENDBRANCH  20  25
ENDBRANCH  19  20
ENDBRANCH   1  19
BRANCH   2  28
HETATM   28  C   UNL     1      41.564 -14.946   2.760  1.00  0.00     0.225 A 
HETATM   29  N   UNL     1      42.724 -15.465   2.355  1.00  0.00    -0.081 NA
HETATM   30  O   UNL     1      42.344 -16.514   1.513  1.00  0.00    -0.103 OA
HETATM   31  N   UNL     1      40.963 -16.624   1.441  1.00  0.00    -0.083 NA
HETATM   32  C   UNL     1      40.480 -15.656   2.215  1.00  0.00     0.201 A 
BRANCH  32  33
HETATM   33  N   UNL     1      39.172 -15.424   2.413  1.00  0.00    -0.379 N 
HETATM   34  H   UNL     1      38.795 -15.397   3.357  1.00  0.00     0.158 HD
HETATM   35  H   UNL     1      38.546 -15.063   1.695  1.00  0.00     0.158 HD
ENDBRANCH  32  33
ENDBRANCH   2  28
TORSDOF 11
ENDMDL
MODEL 4
REMARK VINA RESULT:      -7.0      5.848      9.078
REMARK  11 active torsions:
REMARK  status: ('A' for Active; 'I' for Inactive)
REMARK    1  A    between atoms: C_2  and  C_3 
REMARK    2  A    between atoms: C_3  and  N_4 
REMARK    3  A    between atoms: N_4  and  C_6 
REMARK    4  A    between atoms: N_4  and  C_30 
REMARK    5  A    between atoms: C_6  and  C_7 
REMARK    6  A    between atoms: N_8  and  C_9 
REMARK    7  A    between atoms: C_13  and  N_14 
REMARK    8  A    between atoms: C_17  and  C_18 
REMARK       I    between atoms: C_18  and  N_19 
REMARK    9  A    between atoms: N_19  and  N_20 
REMARK   10  A    between atoms: C_21  and  C_22 
REMARK   11  A    between atoms: C_30  and  C_31 
ROOT
HETATM    1  C   UNL     1      42.020 -16.431   4.716  1.00  0.00     0.096 A 
HETATM    2  N   UNL     1      41.975 -17.170   5.899  1.00  0.00    -0.215 N 
HETATM    3  N   UNL     1      40.897 -16.756   6.623  1.00  0.00     0.012 NA
HETATM    4  N   UNL     1      40.318 -15.737   6.012  1.00  0.00    -0.152 NA
HETATM    5  C   UNL     1      40.994 -15.505   4.853  1.00  0.00     0.170 A 
ENDROOT
BRANCH   5   6
HETATM    6  C   UNL     1      40.655 -14.448   3.912  1.00  0.00     0.293 C 
HETATM    7  N   UNL     1      39.545 -14.715   3.139  1.00  0.00    -0.242 N 
HETATM    8  H   UNL     1      39.032 -15.585   3.262  1.00  0.00     0.192 HD
HETATM    9  O   UNL     1      41.346 -13.432   3.871  1.00  0.00    -0.264 OA
BRANCH   7  10
HETATM   10  N   UNL     1      39.220 -13.871   2.119  1.00  0.00    -0.184 NA
HETATM   11  C   UNL     1      38.373 -14.333   1.254  1.00  0.00     0.150 C 
BRANCH  11  12
HETATM   12  C   UNL     1      37.970 -13.548   0.070  1.00  0.00    -0.017 A 
HETATM   13  C   UNL     1      38.291 -13.984  -1.221  1.00  0.00     0.014 A 
HETATM   14  C   UNL     1      37.879 -13.240  -2.329  1.00  0.00     0.020 A 
HETATM   15  C   UNL     1      37.150 -12.067  -2.141  1.00  0.00     0.011 A 
HETATM   16 BR   UNL     1      36.587 -11.064  -3.641  1.00  0.00    -0.051 Br
HETATM   17  C   UNL     1      36.831 -11.626  -0.856  1.00  0.00     0.020 A 
HETATM   18  C   UNL     1      37.241 -12.369   0.255  1.00  0.00     0.014 A 
ENDBRANCH  11  12
ENDBRANCH   7  10
ENDBRANCH   5   6
BRANCH   1  19
HETATM   19  C   UNL     1      42.913 -16.680   3.553  1.00  0.00     0.296 C 
BRANCH  19  20
HETATM   20  N   UNL     1      42.529 -17.858   2.668  1.00  0.00    -0.066 N 
HETATM   21  H   UNL     1      42.044 -18.526   3.302  1.00  0.00     0.280 HD
BRANCH  20  22
HETATM   22  C   UNL     1      43.748 -18.560   2.089  1.00  0.00     0.235 C 
BRANCH  22  23
HETATM   23  C   UNL     1      43.571 -20.059   1.856  1.00  0.00     0.023 C 
HETATM   24  C   UNL     1      44.480 -20.934   2.702  1.00  0.00     0.007 C 
ENDBRANCH  22  23
ENDBRANCH  20  22
BRANCH  20  25
HETATM   25  C   UNL     1      41.555 -17.449   1.575  1.00  0.00     0.235 C 
BRANCH  25  26
HETATM   26  C   UNL     1      41.964 -16.184   0.821  1.00  0.00     0.023 C 
HETATM   27  C   UNL     1      41.284 -16.012  -0.528  1.00  0.00     0.007 C 
ENDBRANCH  25  26
ENDBRANCH  20  25
ENDBRANCH  19  20
ENDBRANCH   1  19
BRANCH   2  28
HETATM   28  C   UNL     1      42.864 -18.157   6.388  1.00  0.00     0.225 A 
HETATM   29  N   UNL     1      43.240 -19.170   5.606  1.00  0.00    -0.081 NA
HETATM   30  O   UNL     1      44.119 -19.903   6.409  1.00  0.00    -0.103 OA
HETATM   31  N   UNL     1      44.274 -19.310   7.654  1.00  0.00    -0.083 NA
HETATM   32  C   UNL     1      43.499 -18.227   7.640  1.00  0.00     0.201 A 
BRANCH  32  33
HETATM   33  N   UNL     1      43.369 -17.375   8.669  1.00  0.00    -0.379 N 
HETATM   34  H   UNL     1      44.190 -16.927   9.068  1.00  0.00     0.158 HD
HETATM   35  H   UNL     1      42.481 -16.972   8.962  1.00  0.00     0.158 HD
ENDBRANCH  32  33
ENDBRANCH   2  28
TORSDOF 11
ENDMDL
MODEL 5
REMARK VINA RESULT:      -6.9      2.424      4.206
REMARK  11 active torsions:
REMARK  status: ('A' for Active; 'I' for Inactive)
REMARK    1  A    between atoms: C_2  and  C_3 
REMARK    2  A    between atoms: C_3  and  N_4 
REMARK    3  A    between atoms: N_4  and  C_6 
REMARK    4  A    between atoms: N_4  and  C_30 
REMARK    5  A    between atoms: C_6  and  C_7 
REMARK    6  A    between atoms: N_8  and  C_9 
REMARK    7  A    between atoms: C_13  and  N_14 
REMARK    8  A    between atoms: C_17  and  C_18 
REMARK       I    between atoms: C_18  and  N_19 
REMARK    9  A    between atoms: N_19  and  N_20 
REMARK   10  A    between atoms: C_21  and  C_22 
REMARK   11  A    between atoms: C_30  and  C_31 
ROOT
HETATM    1  C   UNL     1      41.993 -12.263   5.642  1.00  0.00     0.096 A 
HETATM    2  N   UNL     1      41.376 -11.019   5.790  1.00  0.00    -0.215 N 
HETATM    3  N   UNL     1      40.930 -10.614   4.568  1.00  0.00     0.012 NA
HETATM    4  N   UNL     1      41.312 -11.482   3.647  1.00  0.00    -0.152 NA
HETATM    5  C   UNL     1      41.978 -12.490   4.272  1.00  0.00     0.170 A 
ENDROOT
BRANCH   5   6
HETATM    6  C   UNL     1      42.561 -13.631   3.582  1.00  0.00     0.293 C 
HETATM    7  N   UNL     1      41.683 -14.674   3.373  1.00  0.00    -0.242 N 
HETATM    8  H   UNL     1      40.716 -14.600   3.682  1.00  0.00     0.192 HD
HETATM    9  O   UNL     1      43.742 -13.593   3.243  1.00  0.00    -0.264 OA
BRANCH   7  10
HETATM   10  N   UNL     1      42.150 -15.853   2.874  1.00  0.00    -0.184 NA
HETATM   11  C   UNL     1      42.467 -16.750   3.754  1.00  0.00     0.150 C 
BRANCH  11  12
HETATM   12  C   UNL     1      43.036 -18.054   3.359  1.00  0.00    -0.017 A 
HETATM   13  C   UNL     1      43.895 -18.750   4.217  1.00  0.00     0.014 A 
HETATM   14  C   UNL     1      44.402 -19.995   3.835  1.00  0.00     0.020 A 
HETATM   15  C   UNL     1      44.049 -20.535   2.599  1.00  0.00     0.011 A 
HETATM   16 BR   UNL     1      44.730 -22.222   2.086  1.00  0.00    -0.051 Br
HETATM   17  C   UNL     1      43.196 -19.843   1.739  1.00  0.00     0.020 A 
HETATM   18  C   UNL     1      42.685 -18.599   2.119  1.00  0.00     0.014 A 
ENDBRANCH  11  12
ENDBRANCH   7  10
ENDBRANCH   5   6
BRANCH   1  19
HETATM   19  C   UNL     1      42.450 -13.157   6.739  1.00  0.00     0.296 C 
BRANCH  19  20
HETATM   20  N   UNL     1      43.893 -12.966   7.187  1.00  0.00    -0.066 N 
HETATM   21  H   UNL     1      44.338 -12.403   6.433  1.00  0.00     0.280 HD
BRANCH  20  22
HETATM   22  C   UNL     1      44.640 -14.286   7.290  1.00  0.00     0.235 C 
BRANCH  22  23
HETATM   23  C   UNL     1      43.905 -15.484   6.692  1.00  0.00     0.023 C 
HETATM   24  C   UNL     1      43.561 -16.571   7.697  1.00  0.00     0.007 C 
ENDBRANCH  22  23
ENDBRANCH  20  22
BRANCH  20  25
HETATM   25  C   UNL     1      43.981 -12.177   8.484  1.00  0.00     0.235 C 
BRANCH  25  26
HETATM   26  C   UNL     1      45.411 -11.947   8.974  1.00  0.00     0.023 C 
HETATM   27  C   UNL     1      45.506 -11.193  10.291  1.00  0.00     0.007 C 
ENDBRANCH  25  26
ENDBRANCH  20  25
ENDBRANCH  19  20
ENDBRANCH   1  19
BRANCH   2  28
HETATM   28  C   UNL     1      41.231 -10.208   6.941  1.00  0.00     0.225 A 
HETATM   29  N   UNL     1      41.847  -9.028   7.014  1.00  0.00    -0.081 NA
HETATM   30  O   UNL     1      41.453  -8.521   8.255  1.00  0.00    -0.103 OA
HETATM   31  N   UNL     1      40.590  -9.395   8.902  1.00  0.00    -0.083 NA
HETATM   32  C   UNL     1      40.450 -10.438   8.087  1.00  0.00     0.201 A 
BRANCH  32  33
HETATM   33  N   UNL     1      39.688 -11.511   8.352  1.00  0.00    -0.379 N 
HETATM   34  H   UNL     1      38.694 -11.399   8.536  1.00  0.00     0.158 HD
HETATM   35  H   UNL     1      39.983 -12.471   8.183  1.00  0.00     0.158 HD
ENDBRANCH  32  33
ENDBRANCH   2  28
TORSDOF 11
ENDMDL
MODEL 6
REMARK VINA RESULT:      -6.9      4.439      9.010
REMARK  11 active torsions:
REMARK  status: ('A' for Active; 'I' for Inactive)
REMARK    1  A    between atoms: C_2  and  C_3 
REMARK    2  A    between atoms: C_3  and  N_4 
REMARK    3  A    between atoms: N_4  and  C_6 
REMARK    4  A    between atoms: N_4  and  C_30 
REMARK    5  A    between atoms: C_6  and  C_7 
REMARK    6  A    between atoms: N_8  and  C_9 
REMARK    7  A    between atoms: C_13  and  N_14 
REMARK    8  A    between atoms: C_17  and  C_18 
REMARK       I    between atoms: C_18  and  N_19 
REMARK    9  A    between atoms: N_19  and  N_20 
REMARK   10  A    between atoms: C_21  and  C_22 
REMARK   11  A    between atoms: C_30  and  C_31 
ROOT
HETATM    1  C   UNL     1      40.884 -13.901   4.917  1.00  0.00     0.096 A 
HETATM    2  N   UNL     1      40.997 -13.981   3.527  1.00  0.00    -0.215 N 
HETATM    3  N   UNL     1      40.848 -12.728   3.012  1.00  0.00     0.012 NA
HETATM    4  N   UNL     1      40.554 -11.882   3.984  1.00  0.00    -0.152 NA
HETATM    5  C   UNL     1      40.552 -12.574   5.156  1.00  0.00     0.170 A 
ENDROOT
BRANCH   5   6
HETATM    6  C   UNL     1      40.258 -11.979   6.451  1.00  0.00     0.293 C 
HETATM    7  N   UNL     1      41.354 -11.425   7.080  1.00  0.00    -0.242 N 
HETATM    8  H   UNL     1      42.266 -11.444   6.630  1.00  0.00     0.192 HD
HETATM    9  O   UNL     1      39.106 -12.006   6.881  1.00  0.00    -0.264 OA
BRANCH   7  10
HETATM   10  N   UNL     1      41.235 -10.976   8.360  1.00  0.00    -0.184 NA
HETATM   11  C   UNL     1      42.329 -10.959   9.055  1.00  0.00     0.150 C 
BRANCH  11  12
HETATM   12  C   UNL     1      42.339 -10.545  10.473  1.00  0.00    -0.017 A 
HETATM   13  C   UNL     1      41.146 -10.431  11.195  1.00  0.00     0.014 A 
HETATM   14  C   UNL     1      41.180 -10.063  12.541  1.00  0.00     0.020 A 
HETATM   15  C   UNL     1      42.405  -9.811  13.158  1.00  0.00     0.011 A 
HETATM   16 BR   UNL     1      42.450  -9.319  14.983  1.00  0.00    -0.051 Br
HETATM   17  C   UNL     1      43.597  -9.919  12.441  1.00  0.00     0.020 A 
HETATM   18  C   UNL     1      43.566 -10.289  11.094  1.00  0.00     0.014 A 
ENDBRANCH  11  12
ENDBRANCH   7  10
ENDBRANCH   5   6
BRANCH   1  19
HETATM   19  C   UNL     1      41.168 -14.990   5.889  1.00  0.00     0.296 C 
BRANCH  19  20
HETATM   20  N   UNL     1      42.576 -15.568   5.840  1.00  0.00    -0.066 N 
HETATM   21  H   UNL     1      42.623 -16.089   4.940  1.00  0.00     0.280 HD
BRANCH  20  22
HETATM   22  C   UNL     1      42.830 -16.555   6.968  1.00  0.00     0.235 C 
BRANCH  22  23
HETATM   23  C   UNL     1      43.019 -18.002   6.520  1.00  0.00     0.023 C 
HETATM   24  C   UNL     1      43.235 -18.171   5.026  1.00  0.00     0.007 C 
ENDBRANCH  22  23
ENDBRANCH  20  22
BRANCH  20  25
HETATM   25  C   UNL     1      43.633 -14.476   5.810  1.00  0.00     0.235 C 
BRANCH  25  26
HETATM   26  C   UNL     1      44.694 -14.609   6.903  1.00  0.00     0.023 C 
HETATM   27  C   UNL     1      44.804 -13.401   7.819  1.00  0.00     0.007 C 
ENDBRANCH  25  26
ENDBRANCH  20  25
ENDBRANCH  19  20
ENDBRANCH   1  19
BRANCH   2  28
HETATM   28  C   UNL     1      41.178 -15.111   2.694  1.00  0.00     0.225 A 
HETATM   29  N   UNL     1      42.395 -15.626   2.515  1.00  0.00    -0.081 NA
HETATM   30  O   UNL     1      42.174 -16.719   1.673  1.00  0.00    -0.103 OA
HETATM   31  N   UNL     1      40.826 -16.858   1.375  1.00  0.00    -0.083 NA
HETATM   32  C   UNL     1      40.209 -15.864   2.009  1.00  0.00     0.201 A 
BRANCH  32  33
HETATM   33  N   UNL     1      38.884 -15.648   1.973  1.00  0.00    -0.379 N 
HETATM   34  H   UNL     1      38.435 -15.105   2.707  1.00  0.00     0.158 HD
HETATM   35  H   UNL     1      38.306 -15.812   1.151  1.00  0.00     0.158 HD
ENDBRANCH  32  33
ENDBRANCH   2  28
TORSDOF 11
ENDMDL
MODEL 7
REMARK VINA RESULT:      -6.9      7.356     10.162
REMARK  11 active torsions:
REMARK  status: ('A' for Active; 'I' for Inactive)
REMARK    1  A    between atoms: C_2  and  C_3 
REMARK    2  A    between atoms: C_3  and  N_4 
REMARK    3  A    between atoms: N_4  and  C_6 
REMARK    4  A    between atoms: N_4  and  C_30 
REMARK    5  A    between atoms: C_6  and  C_7 
REMARK    6  A    between atoms: N_8  and  C_9 
REMARK    7  A    between atoms: C_13  and  N_14 
REMARK    8  A    between atoms: C_17  and  C_18 
REMARK       I    between atoms: C_18  and  N_19 
REMARK    9  A    between atoms: N_19  and  N_20 
REMARK   10  A    between atoms: C_21  and  C_22 
REMARK   11  A    between atoms: C_30  and  C_31 
ROOT
HETATM    1  C   UNL     1      40.877 -13.642  -1.507  1.00  0.00     0.096 A 
HETATM    2  N   UNL     1      40.825 -13.480  -2.893  1.00  0.00    -0.215 N 
HETATM    3  N   UNL     1      40.873 -14.713  -3.471  1.00  0.00     0.012 NA
HETATM    4  N   UNL     1      41.048 -15.633  -2.538  1.00  0.00    -0.152 NA
HETATM    5  C   UNL     1      41.072 -15.006  -1.331  1.00  0.00     0.170 A 
ENDROOT
BRANCH   5   6
HETATM    6  C   UNL     1      41.260 -15.693  -0.062  1.00  0.00     0.293 C 
HETATM    7  N   UNL     1      42.537 -16.175   0.135  1.00  0.00    -0.242 N 
HETATM    8  H   UNL     1      43.256 -16.027  -0.570  1.00  0.00     0.192 HD
HETATM    9  O   UNL     1      40.314 -15.793   0.717  1.00  0.00    -0.264 OA
BRANCH   7  10
HETATM   10  N   UNL     1      42.795 -16.966   1.214  1.00  0.00    -0.184 NA
HETATM   11  C   UNL     1      43.478 -18.041   0.974  1.00  0.00     0.150 C 
BRANCH  11  12
HETATM   12  C   UNL     1      43.786 -19.017   2.038  1.00  0.00    -0.017 A 
HETATM   13  C   UNL     1      43.909 -20.381   1.747  1.00  0.00     0.014 A 
HETATM   14  C   UNL     1      44.226 -21.284   2.763  1.00  0.00     0.020 A 
HETATM   15  C   UNL     1      44.417 -20.821   4.064  1.00  0.00     0.011 A 
HETATM   16 BR   UNL     1      44.852 -22.044   5.439  1.00  0.00    -0.051 Br
HETATM   17  C   UNL     1      44.291 -19.463   4.361  1.00  0.00     0.020 A 
HETATM   18  C   UNL     1      43.976 -18.557   3.345  1.00  0.00     0.014 A 
ENDBRANCH  11  12
ENDBRANCH   7  10
ENDBRANCH   5   6
BRANCH   1  19
HETATM   19  C   UNL     1      40.662 -12.583  -0.486  1.00  0.00     0.296 C 
BRANCH  19  20
HETATM   20  N   UNL     1      41.883 -12.209   0.345  1.00  0.00    -0.066 N 
HETATM   21  H   UNL     1      42.622 -12.884   0.058  1.00  0.00     0.280 HD
BRANCH  20  22
HETATM   22  C   UNL     1      41.637 -12.387   1.835  1.00  0.00     0.235 C 
BRANCH  22  23
HETATM   23  C   UNL     1      42.632 -13.306   2.541  1.00  0.00     0.023 C 
HETATM   24  C   UNL     1      42.001 -14.253   3.547  1.00  0.00     0.007 C 
ENDBRANCH  22  23
ENDBRANCH  20  22
BRANCH  20  25
HETATM   25  C   UNL     1      42.372 -10.806   0.027  1.00  0.00     0.235 C 
BRANCH  25  26
HETATM   26  C   UNL     1      43.263 -10.725  -1.212  1.00  0.00     0.023 C 
HETATM   27  C   UNL     1      43.227  -9.381  -1.922  1.00  0.00     0.007 C 
ENDBRANCH  25  26
ENDBRANCH  20  25
ENDBRANCH  19  20
ENDBRANCH   1  19
BRANCH   2  28
HETATM   28  C   UNL     1      40.783 -12.296  -3.668  1.00  0.00     0.225 A 
HETATM   29  N   UNL     1      41.886 -11.843  -4.264  1.00  0.00    -0.081 NA
HETATM   30  O   UNL     1      41.454 -10.699  -4.941  1.00  0.00    -0.103 OA
HETATM   31  N   UNL     1      40.094 -10.492  -4.759  1.00  0.00    -0.083 NA
HETATM   32  C   UNL     1      39.677 -11.483  -3.974  1.00  0.00     0.201 A 
BRANCH  32  33
HETATM   33  N   UNL     1      38.410 -11.641  -3.561  1.00  0.00    -0.379 N 
HETATM   34  H   UNL     1      38.148 -12.461  -3.019  1.00  0.00     0.158 HD
HETATM   35  H   UNL     1      37.715 -10.897  -3.568  1.00  0.00     0.158 HD
ENDBRANCH  32  33
ENDBRANCH   2  28
TORSDOF 11
ENDMDL
MODEL 8
REMARK VINA RESULT:      -6.8      5.031      9.089
REMARK  11 active torsions:
REMARK  status: ('A' for Active; 'I' for Inactive)
REMARK    1  A    between atoms: C_2  and  C_3 
REMARK    2  A    between atoms: C_3  and  N_4 
REMARK    3  A    between atoms: N_4  and  C_6 
REMARK    4  A    between atoms: N_4  and  C_30 
REMARK    5  A    between atoms: C_6  and  C_7 
REMARK    6  A    between atoms: N_8  and  C_9 
REMARK    7  A    between atoms: C_13  and  N_14 
REMARK    8  A    between atoms: C_17  and  C_18 
REMARK       I    between atoms: C_18  and  N_19 
REMARK    9  A    between atoms: N_19  and  N_20 
REMARK   10  A    between atoms: C_21  and  C_22 
REMARK   11  A    between atoms: C_30  and  C_31 
ROOT
HETATM    1  C   UNL     1      43.271 -17.508   5.414  1.00  0.00     0.096 A 
HETATM    2  N   UNL     1      43.857 -18.504   6.197  1.00  0.00    -0.215 N 
HETATM    3  N   UNL     1      43.980 -18.032   7.470  1.00  0.00     0.012 NA
HETATM    4  N   UNL     1      43.596 -16.768   7.512  1.00  0.00    -0.152 NA
HETATM    5  C   UNL     1      43.175 -16.416   6.267  1.00  0.00     0.170 A 
ENDROOT
BRANCH   5   6
HETATM    6  C   UNL     1      42.686 -15.090   5.918  1.00  0.00     0.293 C 
HETATM    7  N   UNL     1      41.342 -14.902   6.164  1.00  0.00    -0.242 N 
HETATM    8  H   UNL     1      40.785 -15.651   6.568  1.00  0.00     0.192 HD
HETATM    9  O   UNL     1      43.466 -14.263   5.451  1.00  0.00    -0.264 OA
BRANCH   7  10
HETATM   10  N   UNL     1      40.738 -13.757   5.739  1.00  0.00    -0.184 NA
HETATM   11  C   UNL     1      40.038 -13.859   4.653  1.00  0.00     0.150 C 
BRANCH  11  12
HETATM   12  C   UNL     1      39.371 -12.689   4.048  1.00  0.00    -0.017 A 
HETATM   13  C   UNL     1      39.009 -11.586   4.831  1.00  0.00     0.014 A 
HETATM   14  C   UNL     1      38.403 -10.479   4.235  1.00  0.00     0.020 A 
HETATM   15  C   UNL     1      38.160 -10.479   2.862  1.00  0.00     0.011 A 
HETATM   16 BR   UNL     1      37.344  -8.977   2.055  1.00  0.00    -0.051 Br
HETATM   17  C   UNL     1      38.515 -11.578   2.078  1.00  0.00     0.020 A 
HETATM   18  C   UNL     1      39.124 -12.687   2.672  1.00  0.00     0.014 A 
ENDBRANCH  11  12
ENDBRANCH   7  10
ENDBRANCH   5   6
BRANCH   1  19
HETATM   19  C   UNL     1      42.781 -17.657   4.018  1.00  0.00     0.296 C 
BRANCH  19  20
HETATM   20  N   UNL     1      43.768 -17.269   2.926  1.00  0.00    -0.066 N 
HETATM   21  H   UNL     1      44.661 -17.074   3.426  1.00  0.00     0.280 HD
BRANCH  20  22
HETATM   22  C   UNL     1      43.350 -16.000   2.200  1.00  0.00     0.235 C 
BRANCH  22  23
HETATM   23  C   UNL     1      41.843 -15.749   2.170  1.00  0.00     0.023 C 
HETATM   24  C   UNL     1      41.149 -16.265   0.921  1.00  0.00     0.007 C 
ENDBRANCH  22  23
ENDBRANCH  20  22
BRANCH  20  25
HETATM   25  C   UNL     1      44.009 -18.411   1.952  1.00  0.00     0.235 C 
BRANCH  25  26
HETATM   26  C   UNL     1      42.966 -19.525   2.032  1.00  0.00     0.023 C 
HETATM   27  C   UNL     1      43.523 -20.921   1.801  1.00  0.00     0.007 C 
ENDBRANCH  25  26
ENDBRANCH  20  25
ENDBRANCH  19  20
ENDBRANCH   1  19
BRANCH   2  28
HETATM   28  C   UNL     1      44.327 -19.788   5.832  1.00  0.00     0.225 A 
HETATM   29  N   UNL     1      45.139 -19.934   4.784  1.00  0.00    -0.081 NA
HETATM   30  O   UNL     1      45.403 -21.306   4.754  1.00  0.00    -0.103 OA
HETATM   31  N   UNL     1      44.763 -21.962   5.796  1.00  0.00    -0.083 NA
HETATM   32  C   UNL     1      44.099 -21.022   6.465  1.00  0.00     0.201 A 
BRANCH  32  33
HETATM   33  N   UNL     1      43.347 -21.254   7.552  1.00  0.00    -0.379 N 
HETATM   34  H   UNL     1      43.649 -21.930   8.249  1.00  0.00     0.158 HD
HETATM   35  H   UNL     1      42.581 -20.652   7.849  1.00  0.00     0.158 HD
ENDBRANCH  32  33
ENDBRANCH   2  28
TORSDOF 11
ENDMDL
MODEL 9
REMARK VINA RESULT:      -6.8      6.722      9.165
REMARK  11 active torsions:
REMARK  status: ('A' for Active; 'I' for Inactive)
REMARK    1  A    between atoms: C_2  and  C_3 
REMARK    2  A    between atoms: C_3  and  N_4 
REMARK    3  A    between atoms: N_4  and  C_6 
REMARK    4  A    between atoms: N_4  and  C_30 
REMARK    5  A    between atoms: C_6  and  C_7 
REMARK    6  A    between atoms: N_8  and  C_9 
REMARK    7  A    between atoms: C_13  and  N_14 
REMARK    8  A    between atoms: C_17  and  C_18 
REMARK       I    between atoms: C_18  and  N_19 
REMARK    9  A    between atoms: N_19  and  N_20 
REMARK   10  A    between atoms: C_21  and  C_22 
REMARK   11  A    between atoms: C_30  and  C_31 
ROOT
HETATM    1  C   UNL     1      41.539 -13.263  -0.533  1.00  0.00     0.096 A 
HETATM    2  N   UNL     1      41.256 -12.635  -1.748  1.00  0.00    -0.215 N 
HETATM    3  N   UNL     1      40.578 -13.515  -2.537  1.00  0.00     0.012 NA
HETATM    4  N   UNL     1      40.501 -14.686  -1.930  1.00  0.00    -0.152 NA
HETATM    5  C   UNL     1      41.095 -14.566  -0.711  1.00  0.00     0.170 A 
ENDROOT
BRANCH   5   6
HETATM    6  C   UNL     1      41.215 -15.656   0.245  1.00  0.00     0.293 C 
HETATM    7  N   UNL     1      42.444 -16.283   0.235  1.00  0.00    -0.242 N 
HETATM    8  H   UNL     1      43.176 -15.965  -0.396  1.00  0.00     0.192 HD
HETATM    9  O   UNL     1      40.260 -15.935   0.968  1.00  0.00    -0.264 OA
BRANCH   7  10
HETATM   10  N   UNL     1      42.626 -17.412   0.976  1.00  0.00    -0.184 NA
HETATM   11  C   UNL     1      43.629 -17.390   1.797  1.00  0.00     0.150 C 
BRANCH  11  12
HETATM   12  C   UNL     1      43.977 -18.563   2.624  1.00  0.00    -0.017 A 
HETATM   13  C   UNL     1      44.175 -18.433   4.004  1.00  0.00     0.014 A 
HETATM   14  C   UNL     1      44.479 -19.559   4.773  1.00  0.00     0.020 A 
HETATM   15  C   UNL     1      44.585 -20.806   4.159  1.00  0.00     0.011 A 
HETATM   16 BR   UNL     1      44.989 -22.330   5.201  1.00  0.00    -0.051 Br
HETATM   17  C   UNL     1      44.393 -20.940   2.783  1.00  0.00     0.020 A 
HETATM   18  C   UNL     1      44.086 -19.816   2.012  1.00  0.00     0.014 A 
ENDBRANCH  11  12
ENDBRANCH   7  10
ENDBRANCH   5   6
BRANCH   1  19
HETATM   19  C   UNL     1      42.093 -12.616   0.686  1.00  0.00     0.296 C 
BRANCH  19  20
HETATM   20  N   UNL     1      41.070 -11.991   1.625  1.00  0.00    -0.066 N 
HETATM   21  H   UNL     1      41.349 -10.991   1.701  1.00  0.00     0.280 HD
BRANCH  20  22
HETATM   22  C   UNL     1      41.122 -12.601   3.017  1.00  0.00     0.235 C 
BRANCH  22  23
HETATM   23  C   UNL     1      42.231 -13.631   3.221  1.00  0.00     0.023 C 
HETATM   24  C   UNL     1      41.779 -14.906   3.913  1.00  0.00     0.007 C 
ENDBRANCH  22  23
ENDBRANCH  20  22
BRANCH  20  25
HETATM   25  C   UNL     1      39.665 -12.049   1.047  1.00  0.00     0.235 C 
BRANCH  25  26
HETATM   26  C   UNL     1      38.710 -12.952   1.826  1.00  0.00     0.023 C 
HETATM   27  C   UNL     1      37.710 -13.700   0.959  1.00  0.00     0.007 C 
ENDBRANCH  25  26
ENDBRANCH  20  25
ENDBRANCH  19  20
ENDBRANCH   1  19
BRANCH   2  28
HETATM   28  C   UNL     1      41.608 -11.344  -2.206  1.00  0.00     0.225 A 
HETATM   29  N   UNL     1      41.444 -10.281  -1.417  1.00  0.00    -0.081 NA
HETATM   30  O   UNL     1      41.916  -9.216  -2.188  1.00  0.00    -0.103 OA
HETATM   31  N   UNL     1      42.377  -9.655  -3.421  1.00  0.00    -0.083 NA
HETATM   32  C   UNL     1      42.190 -10.973  -3.432  1.00  0.00     0.201 A 
BRANCH  32  33
HETATM   33  N   UNL     1      42.509 -11.776  -4.458  1.00  0.00    -0.379 N 
HETATM   34  H   UNL     1      41.999 -12.644  -4.606  1.00  0.00     0.158 HD
HETATM   35  H   UNL     1      43.095 -11.490  -5.241  1.00  0.00     0.158 HD
ENDBRANCH  32  33
ENDBRANCH   2  28
TORSDOF 11
ENDMDL
MODEL 10
REMARK VINA RESULT:      -6.7      2.288      4.551
REMARK  11 active torsions:
REMARK  status: ('A' for Active; 'I' for Inactive)
REMARK    1  A    between atoms: C_2  and  C_3 
REMARK    2  A    between atoms: C_3  and  N_4 
REMARK    3  A    between atoms: N_4  and  C_6 
REMARK    4  A    between atoms: N_4  and  C_30 
REMARK    5  A    between atoms: C_6  and  C_7 
REMARK    6  A    between atoms: N_8  and  C_9 
REMARK    7  A    between atoms: C_13  and  N_14 
REMARK    8  A    between atoms: C_17  and  C_18 
REMARK       I    between atoms: C_18  and  N_19 
REMARK    9  A    between atoms: N_19  and  N_20 
REMARK   10  A    between atoms: C_21  and  C_22 
REMARK   11  A    between atoms: C_30  and  C_31 
ROOT
HETATM    1  C   UNL     1      41.345 -12.558   6.105  1.00  0.00     0.096 A 
HETATM    2  N   UNL     1      40.474 -11.739   6.827  1.00  0.00    -0.215 N 
HETATM    3  N   UNL     1      39.201 -12.177   6.618  1.00  0.00     0.012 NA
HETATM    4  N   UNL     1      39.210 -13.161   5.735  1.00  0.00    -0.152 NA
HETATM    5  C   UNL     1      40.504 -13.402   5.391  1.00  0.00     0.170 A 
ENDROOT
BRANCH   5   6
HETATM    6  C   UNL     1      40.914 -14.414   4.428  1.00  0.00     0.293 C 
HETATM    7  N   UNL     1      40.606 -15.706   4.801  1.00  0.00    -0.242 N 
HETATM    8  H   UNL     1      40.120 -15.884   5.677  1.00  0.00     0.192 HD
HETATM    9  O   UNL     1      41.481 -14.068   3.393  1.00  0.00    -0.264 OA
BRANCH   7  10
HETATM   10  N   UNL     1      41.073 -16.747   4.056  1.00  0.00    -0.184 NA
HETATM   11  C   UNL     1      42.137 -17.331   4.511  1.00  0.00     0.150 C 
BRANCH  11  12
HETATM   12  C   UNL     1      42.784 -18.439   3.780  1.00  0.00    -0.017 A 
HETATM   13  C   UNL     1      43.720 -19.265   4.413  1.00  0.00     0.014 A 
HETATM   14  C   UNL     1      44.301 -20.324   3.712  1.00  0.00     0.020 A 
HETATM   15  C   UNL     1      43.945 -20.550   2.383  1.00  0.00     0.011 A 
HETATM   16 BR   UNL     1      44.728 -21.987   1.437  1.00  0.00    -0.051 Br
HETATM   17  C   UNL     1      43.016 -19.727   1.746  1.00  0.00     0.020 A 
HETATM   18  C   UNL     1      42.431 -18.668   2.446  1.00  0.00     0.014 A 
ENDBRANCH  11  12
ENDBRANCH   7  10
ENDBRANCH   5   6
BRANCH   1  19
HETATM   19  C   UNL     1      42.829 -12.561   6.192  1.00  0.00     0.296 C 
BRANCH  19  20
HETATM   20  N   UNL     1      43.431 -13.560   7.171  1.00  0.00    -0.066 N 
HETATM   21  H   UNL     1      42.644 -13.832   7.797  1.00  0.00     0.280 HD
BRANCH  20  22
HETATM   22  C   UNL     1      44.519 -12.935   8.030  1.00  0.00     0.235 C 
BRANCH  22  23
HETATM   23  C   UNL     1      45.925 -13.021   7.441  1.00  0.00     0.023 C 
HETATM   24  C   UNL     1      46.908 -12.018   8.021  1.00  0.00     0.007 C 
ENDBRANCH  22  23
ENDBRANCH  20  22
BRANCH  20  25
HETATM   25  C   UNL     1      43.930 -14.810   6.466  1.00  0.00     0.235 C 
BRANCH  25  26
HETATM   26  C   UNL     1      43.855 -16.076   7.319  1.00  0.00     0.023 C 
HETATM   27  C   UNL     1      44.853 -17.154   6.927  1.00  0.00     0.007 C 
ENDBRANCH  25  26
ENDBRANCH  20  25
ENDBRANCH  19  20
ENDBRANCH   1  19
BRANCH   2  28
HETATM   28  C   UNL     1      40.748 -10.599   7.620  1.00  0.00     0.225 A 
HETATM   29  N   UNL     1      41.339  -9.532   7.083  1.00  0.00    -0.081 NA
HETATM   30  O   UNL     1      41.416  -8.624   8.143  1.00  0.00    -0.103 OA
HETATM   31  N   UNL     1      40.851  -9.150   9.296  1.00  0.00    -0.083 NA
HETATM   32  C   UNL     1      40.434 -10.372   8.972  1.00  0.00     0.201 A 
BRANCH  32  33
HETATM   33  N   UNL     1      39.827 -11.216   9.821  1.00  0.00    -0.379 N 
HETATM   34  H   UNL     1      39.038 -11.776   9.507  1.00  0.00     0.158 HD
HETATM   35  H   UNL     1      40.221 -11.502  10.715  1.00  0.00     0.158 HD
ENDBRANCH  32  33
ENDBRANCH   2  28
TORSDOF 11
ENDMDL
