MODEL 1
REMARK VINA RESULT:      -8.6      0.000      0.000
REMARK  4 active torsions:
REMARK  status: ('A' for Active; 'I' for Inactive)
REMARK    1  A    between atoms: C_5  and  C_6 
REMARK    2  A    between atoms: C_6  and  N_7 
REMARK    3  A    between atoms: C_6  and  C_18 
REMARK    4  A    between atoms: N_7  and  C_8 
ROOT
HETATM    1  C   UNL     1      43.350 -18.410   4.607  1.00  0.00     0.290 C 
ENDROOT
BRANCH   1   2
HETATM    2  C   UNL     1      43.906 -19.814   4.483  1.00  0.00     0.021 A 
HETATM    3  C   UNL     1      44.149 -20.426   3.243  1.00  0.00     0.055 A 
HETATM    4  C   UNL     1      44.641 -21.728   3.189  1.00  0.00     0.117 A 
HETATM    5  C   UNL     1      44.891 -22.451   4.350  1.00  0.00     0.045 A 
HETATM    6  F   UNL     1      44.882 -22.288   1.997  1.00  0.00    -0.206 F 
HETATM    7  C   UNL     1      44.646 -21.863   5.588  1.00  0.00     0.046 A 
HETATM    8  C   UNL     1      44.157 -20.559   5.645  1.00  0.00     0.125 A 
HETATM    9  F   UNL     1      43.937 -20.005   6.846  1.00  0.00    -0.205 F 
ENDBRANCH   1   2
BRANCH   1  10
HETATM   10  N   UNL     1      44.245 -17.456   5.309  1.00  0.00     0.101 N 
HETATM   11  H   UNL     1      44.489 -16.728   4.641  1.00  0.00     0.317 HD
BRANCH  10  12
HETATM   12  C   UNL     1      43.750 -16.932   6.588  1.00  0.00     0.225 C 
HETATM   13  C   UNL     1      42.222 -16.722   6.667  1.00  0.00     0.069 C 
HETATM   14  C   UNL     1      41.778 -15.560   5.799  1.00  0.00     0.190 C 
HETATM   15  N   UNL     1      42.508 -14.321   6.243  1.00  0.00    -0.067 N 
HETATM   16  C   UNL     1      40.336 -15.113   5.931  1.00  0.00     0.035 C 
HETATM   17  H   UNL     1      42.340 -14.192   7.253  1.00  0.00     0.280 HD
HETATM   18  C   UNL     1      43.989 -14.423   6.053  1.00  0.00     0.237 C 
HETATM   19  C   UNL     1      41.800 -13.181   5.559  1.00  0.00     0.235 C 
HETATM   20  C   UNL     1      44.489 -15.604   6.881  1.00  0.00     0.063 C 
HETATM   21  C   UNL     1      40.367 -13.686   5.381  1.00  0.00     0.030 C 
ENDBRANCH  10  12
ENDBRANCH   1  10
BRANCH   1  22
HETATM   22  C   UNL     1      42.956 -17.839   3.249  1.00  0.00    -0.018 A 
HETATM   23  C   UNL     1      41.609 -17.805   2.864  1.00  0.00     0.029 A 
HETATM   24  C   UNL     1      41.278 -17.272   1.628  1.00  0.00     0.116 A 
HETATM   25  N   UNL     1      42.184 -16.781   0.759  1.00  0.00    -0.273 NA
HETATM   26  C   UNL     1      43.479 -16.844   1.128  1.00  0.00     0.116 A 
HETATM   27  C   UNL     1      43.909 -17.352   2.343  1.00  0.00     0.029 A 
ENDBRANCH   1  22
TORSDOF 4
ENDMDL
MODEL 2
REMARK VINA RESULT:      -8.5      1.947      4.022
REMARK  4 active torsions:
REMARK  status: ('A' for Active; 'I' for Inactive)
REMARK    1  A    between atoms: C_5  and  C_6 
REMARK    2  A    between atoms: C_6  and  N_7 
REMARK    3  A    between atoms: C_6  and  C_18 
REMARK    4  A    between atoms: N_7  and  C_8 
ROOT
HETATM    1  C   UNL     1      43.964 -18.381   3.783  1.00  0.00     0.290 C 
ENDROOT
BRANCH   1   2
HETATM    2  C   UNL     1      44.215 -19.872   3.673  1.00  0.00     0.021 A 
HETATM    3  C   UNL     1      44.637 -20.651   4.763  1.00  0.00     0.055 A 
HETATM    4  C   UNL     1      44.872 -22.014   4.599  1.00  0.00     0.117 A 
HETATM    5  C   UNL     1      44.707 -22.630   3.363  1.00  0.00     0.045 A 
HETATM    6  F   UNL     1      45.257 -22.743   5.654  1.00  0.00    -0.206 F 
HETATM    7  C   UNL     1      44.299 -21.869   2.270  1.00  0.00     0.046 A 
HETATM    8  C   UNL     1      44.059 -20.506   2.432  1.00  0.00     0.125 A 
HETATM    9  F   UNL     1      43.657 -19.793   1.370  1.00  0.00    -0.205 F 
ENDBRANCH   1   2
BRANCH   1  10
HETATM   10  N   UNL     1      42.896 -17.872   2.887  1.00  0.00     0.101 N 
HETATM   11  H   UNL     1      42.053 -17.779   3.449  1.00  0.00     0.317 HD
BRANCH  10  12
HETATM   12  C   UNL     1      43.221 -16.662   2.122  1.00  0.00     0.225 C 
HETATM   13  C   UNL     1      43.099 -15.335   2.903  1.00  0.00     0.069 C 
HETATM   14  C   UNL     1      41.651 -14.995   3.192  1.00  0.00     0.190 C 
HETATM   15  N   UNL     1      40.905 -14.912   1.886  1.00  0.00    -0.067 N 
HETATM   16  C   UNL     1      41.367 -13.626   3.777  1.00  0.00     0.035 C 
HETATM   17  H   UNL     1      41.393 -14.236   1.279  1.00  0.00     0.280 HD
HETATM   18  C   UNL     1      40.874 -16.218   1.155  1.00  0.00     0.237 C 
HETATM   19  C   UNL     1      39.582 -14.280   2.228  1.00  0.00     0.235 C 
HETATM   20  C   UNL     1      42.316 -16.629   0.867  1.00  0.00     0.063 C 
HETATM   21  C   UNL     1      39.889 -13.411   3.450  1.00  0.00     0.030 C 
ENDBRANCH  10  12
ENDBRANCH   1  10
BRANCH   1  22
HETATM   22  C   UNL     1      43.672 -17.963   5.220  1.00  0.00    -0.018 A 
HETATM   23  C   UNL     1      42.349 -17.781   5.645  1.00  0.00     0.029 A 
HETATM   24  C   UNL     1      42.113 -17.410   6.959  1.00  0.00     0.116 A 
HETATM   25  N   UNL     1      43.090 -17.207   7.866  1.00  0.00    -0.273 NA
HETATM   26  C   UNL     1      44.360 -17.359   7.438  1.00  0.00     0.116 A 
HETATM   27  C   UNL     1      44.697 -17.733   6.148  1.00  0.00     0.029 A 
ENDBRANCH   1  22
TORSDOF 4
ENDMDL
MODEL 3
REMARK VINA RESULT:      -8.0      2.570      6.368
REMARK  4 active torsions:
REMARK  status: ('A' for Active; 'I' for Inactive)
REMARK    1  A    between atoms: C_5  and  C_6 
REMARK    2  A    between atoms: C_6  and  N_7 
REMARK    3  A    between atoms: C_6  and  C_18 
REMARK    4  A    between atoms: N_7  and  C_8 
ROOT
HETATM    1  C   UNL     1      41.805 -16.732   5.018  1.00  0.00     0.290 C 
ENDROOT
BRANCH   1   2
HETATM    2  C   UNL     1      41.117 -16.199   3.778  1.00  0.00     0.021 A 
HETATM    3  C   UNL     1      41.399 -16.680   2.489  1.00  0.00     0.055 A 
HETATM    4  C   UNL     1      40.750 -16.138   1.382  1.00  0.00     0.117 A 
HETATM    5  C   UNL     1      39.824 -15.111   1.522  1.00  0.00     0.045 A 
HETATM    6  F   UNL     1      41.020 -16.622   0.163  1.00  0.00    -0.206 F 
HETATM    7  C   UNL     1      39.540 -14.615   2.792  1.00  0.00     0.046 A 
HETATM    8  C   UNL     1      40.184 -15.158   3.902  1.00  0.00     0.125 A 
HETATM    9  F   UNL     1      39.890 -14.675   5.118  1.00  0.00    -0.205 F 
ENDBRANCH   1   2
BRANCH   1  10
HETATM   10  N   UNL     1      42.421 -18.072   4.850  1.00  0.00     0.101 N 
HETATM   11  H   UNL     1      41.798 -18.615   4.257  1.00  0.00     0.317 HD
BRANCH  10  12
HETATM   12  C   UNL     1      43.817 -18.085   4.395  1.00  0.00     0.225 C 
HETATM   13  C   UNL     1      44.038 -18.616   2.962  1.00  0.00     0.069 C 
HETATM   14  C   UNL     1      43.796 -20.111   2.881  1.00  0.00     0.190 C 
HETATM   15  N   UNL     1      44.719 -20.800   3.851  1.00  0.00    -0.067 N 
HETATM   16  C   UNL     1      44.166 -20.801   1.584  1.00  0.00     0.035 C 
HETATM   17  H   UNL     1      45.685 -20.509   3.638  1.00  0.00     0.280 HD
HETATM   18  C   UNL     1      44.448 -20.423   5.274  1.00  0.00     0.237 C 
HETATM   19  C   UNL     1      44.641 -22.262   3.496  1.00  0.00     0.235 C 
HETATM   20  C   UNL     1      44.644 -18.915   5.406  1.00  0.00     0.063 C 
HETATM   21  C   UNL     1      44.309 -22.265   2.002  1.00  0.00     0.030 C 
ENDBRANCH  10  12
ENDBRANCH   1  10
BRANCH   1  22
HETATM   22  C   UNL     1      42.846 -15.751   5.549  1.00  0.00    -0.018 A 
HETATM   23  C   UNL     1      43.310 -15.863   6.866  1.00  0.00     0.029 A 
HETATM   24  C   UNL     1      44.262 -14.963   7.320  1.00  0.00     0.116 A 
HETATM   25  N   UNL     1      44.775 -13.973   6.562  1.00  0.00    -0.273 NA
HETATM   26  C   UNL     1      44.301 -13.858   5.305  1.00  0.00     0.116 A 
HETATM   27  C   UNL     1      43.354 -14.710   4.760  1.00  0.00     0.029 A 
ENDBRANCH   1  22
TORSDOF 4
ENDMDL
MODEL 4
REMARK VINA RESULT:      -7.9      2.874      5.533
REMARK  4 active torsions:
REMARK  status: ('A' for Active; 'I' for Inactive)
REMARK    1  A    between atoms: C_5  and  C_6 
REMARK    2  A    between atoms: C_6  and  N_7 
REMARK    3  A    between atoms: C_6  and  C_18 
REMARK    4  A    between atoms: N_7  and  C_8 
ROOT
HETATM    1  C   UNL     1      42.221 -17.749   2.898  1.00  0.00     0.290 C 
ENDROOT
BRANCH   1   2
HETATM    2  C   UNL     1      42.412 -16.903   4.140  1.00  0.00     0.021 A 
HETATM    3  C   UNL     1      43.326 -15.838   4.199  1.00  0.00     0.055 A 
HETATM    4  C   UNL     1      43.475 -15.107   5.374  1.00  0.00     0.117 A 
HETATM    5  C   UNL     1      42.738 -15.415   6.512  1.00  0.00     0.045 A 
HETATM    6  F   UNL     1      44.339 -14.085   5.405  1.00  0.00    -0.206 F 
HETATM    7  C   UNL     1      41.834 -16.474   6.475  1.00  0.00     0.046 A 
HETATM    8  C   UNL     1      41.680 -17.205   5.298  1.00  0.00     0.125 A 
HETATM    9  F   UNL     1      40.797 -18.215   5.279  1.00  0.00    -0.205 F 
ENDBRANCH   1   2
BRANCH   1  10
HETATM   10  N   UNL     1      42.407 -17.015   1.622  1.00  0.00     0.101 N 
HETATM   11  H   UNL     1      43.156 -17.481   1.115  1.00  0.00     0.317 HD
BRANCH  10  12
HETATM   12  C   UNL     1      41.197 -16.812   0.815  1.00  0.00     0.225 C 
HETATM   13  C   UNL     1      41.395 -15.982  -0.472  1.00  0.00     0.069 C 
HETATM   14  C   UNL     1      41.659 -14.524  -0.154  1.00  0.00     0.190 C 
HETATM   15  N   UNL     1      40.504 -13.989   0.650  1.00  0.00    -0.067 N 
HETATM   16  C   UNL     1      41.676 -13.556  -1.320  1.00  0.00     0.035 C 
HETATM   17  H   UNL     1      39.636 -14.163   0.122  1.00  0.00     0.280 HD
HETATM   18  C   UNL     1      40.359 -14.670   1.975  1.00  0.00     0.237 C 
HETATM   19  C   UNL     1      40.689 -12.494   0.658  1.00  0.00     0.235 C 
HETATM   20  C   UNL     1      40.123 -16.156   1.715  1.00  0.00     0.063 C 
HETATM   21  C   UNL     1      41.431 -12.204  -0.649  1.00  0.00     0.030 C 
ENDBRANCH  10  12
ENDBRANCH   1  10
BRANCH   1  22
HETATM   22  C   UNL     1      43.115 -18.984   2.916  1.00  0.00    -0.018 A 
HETATM   23  C   UNL     1      43.023 -19.934   1.890  1.00  0.00     0.029 A 
HETATM   24  C   UNL     1      43.855 -21.043   1.927  1.00  0.00     0.116 A 
HETATM   25  N   UNL     1      44.757 -21.268   2.903  1.00  0.00    -0.273 NA
HETATM   26  C   UNL     1      44.818 -20.361   3.899  1.00  0.00     0.116 A 
HETATM   27  C   UNL     1      44.033 -19.220   3.949  1.00  0.00     0.029 A 
ENDBRANCH   1  22
TORSDOF 4
ENDMDL
MODEL 5
REMARK VINA RESULT:      -7.9      2.584      4.620
REMARK  4 active torsions:
REMARK  status: ('A' for Active; 'I' for Inactive)
REMARK    1  A    between atoms: C_5  and  C_6 
REMARK    2  A    between atoms: C_6  and  N_7 
REMARK    3  A    between atoms: C_6  and  C_18 
REMARK    4  A    between atoms: N_7  and  C_8 
ROOT
HETATM    1  C   UNL     1      43.017 -16.961   3.907  1.00  0.00     0.290 C 
ENDROOT
BRANCH   1   2
HETATM    2  C   UNL     1      43.429 -18.346   3.450  1.00  0.00     0.021 A 
HETATM    3  C   UNL     1      44.268 -19.177   4.211  1.00  0.00     0.055 A 
HETATM    4  C   UNL     1      44.630 -20.433   3.732  1.00  0.00     0.117 A 
HETATM    5  C   UNL     1      44.184 -20.888   2.496  1.00  0.00     0.045 A 
HETATM    6  F   UNL     1      45.416 -21.218   4.479  1.00  0.00    -0.206 F 
HETATM    7  C   UNL     1      43.360 -20.073   1.723  1.00  0.00     0.046 A 
HETATM    8  C   UNL     1      42.992 -18.816   2.203  1.00  0.00     0.125 A 
HETATM    9  F   UNL     1      42.190 -18.050   1.450  1.00  0.00    -0.205 F 
ENDBRANCH   1   2
BRANCH   1  10
HETATM   10  N   UNL     1      41.637 -16.574   3.524  1.00  0.00     0.101 N 
HETATM   11  H   UNL     1      41.002 -17.182   4.037  1.00  0.00     0.317 HD
BRANCH  10  12
HETATM   12  C   UNL     1      41.309 -15.149   3.654  1.00  0.00     0.225 C 
HETATM   13  C   UNL     1      39.851 -14.774   3.309  1.00  0.00     0.069 C 
HETATM   14  C   UNL     1      39.585 -14.897   1.821  1.00  0.00     0.190 C 
HETATM   15  N   UNL     1      40.551 -14.007   1.085  1.00  0.00    -0.067 N 
HETATM   16  C   UNL     1      38.258 -14.372   1.312  1.00  0.00     0.035 C 
HETATM   17  H   UNL     1      40.458 -13.051   1.460  1.00  0.00     0.280 HD
HETATM   18  C   UNL     1      41.977 -14.420   1.275  1.00  0.00     0.237 C 
HETATM   19  C   UNL     1      40.031 -13.947  -0.328  1.00  0.00     0.235 C 
HETATM   20  C   UNL     1      42.291 -14.347   2.767  1.00  0.00     0.063 C 
HETATM   21  C   UNL     1      38.522 -14.155  -0.178  1.00  0.00     0.030 C 
ENDBRANCH  10  12
ENDBRANCH   1  10
BRANCH   1  22
HETATM   22  C   UNL     1      43.201 -16.786   5.411  1.00  0.00    -0.018 A 
HETATM   23  C   UNL     1      44.043 -15.781   5.905  1.00  0.00     0.029 A 
HETATM   24  C   UNL     1      44.185 -15.640   7.277  1.00  0.00     0.116 A 
HETATM   25  N   UNL     1      43.556 -16.422   8.177  1.00  0.00    -0.273 NA
HETATM   26  C   UNL     1      42.770 -17.403   7.690  1.00  0.00     0.116 A 
HETATM   27  C   UNL     1      42.561 -17.621   6.338  1.00  0.00     0.029 A 
ENDBRANCH   1  22
TORSDOF 4
ENDMDL
MODEL 6
REMARK VINA RESULT:      -7.8      1.821      3.772
REMARK  4 active torsions:
REMARK  status: ('A' for Active; 'I' for Inactive)
REMARK    1  A    between atoms: C_5  and  C_6 
REMARK    2  A    between atoms: C_6  and  N_7 
REMARK    3  A    between atoms: C_6  and  C_18 
REMARK    4  A    between atoms: N_7  and  C_8 
ROOT
HETATM    1  C   UNL     1      43.532 -17.871   3.242  1.00  0.00     0.290 C 
ENDROOT
BRANCH   1   2
HETATM    2  C   UNL     1      43.894 -19.340   3.156  1.00  0.00     0.021 A 
HETATM    3  C   UNL     1      43.482 -20.161   2.094  1.00  0.00     0.055 A 
HETATM    4  C   UNL     1      43.827 -21.510   2.077  1.00  0.00     0.117 A 
HETATM    5  C   UNL     1      44.571 -22.076   3.106  1.00  0.00     0.045 A 
HETATM    6  F   UNL     1      43.439 -22.273   1.047  1.00  0.00    -0.206 F 
HETATM    7  C   UNL     1      44.979 -21.278   4.173  1.00  0.00     0.046 A 
HETATM    8  C   UNL     1      44.639 -19.927   4.190  1.00  0.00     0.125 A 
HETATM    9  F   UNL     1      45.050 -19.173   5.220  1.00  0.00    -0.205 F 
ENDBRANCH   1   2
BRANCH   1  10
HETATM   10  N   UNL     1      42.653 -17.391   2.147  1.00  0.00     0.101 N 
HETATM   11  H   UNL     1      41.694 -17.472   2.476  1.00  0.00     0.317 HD
BRANCH  10  12
HETATM   12  C   UNL     1      42.972 -16.066   1.601  1.00  0.00     0.225 C 
HETATM   13  C   UNL     1      42.938 -14.907   2.620  1.00  0.00     0.069 C 
HETATM   14  C   UNL     1      41.519 -14.597   3.058  1.00  0.00     0.190 C 
HETATM   15  N   UNL     1      40.703 -14.257   1.840  1.00  0.00    -0.067 N 
HETATM   16  C   UNL     1      41.314 -13.357   3.903  1.00  0.00     0.035 C 
HETATM   17  H   UNL     1      41.176 -13.489   1.339  1.00  0.00     0.280 HD
HETATM   18  C   UNL     1      40.589 -15.402   0.882  1.00  0.00     0.237 C 
HETATM   19  C   UNL     1      39.422 -13.673   2.375  1.00  0.00     0.235 C 
HETATM   20  C   UNL     1      41.998 -15.781   0.433  1.00  0.00     0.063 C 
HETATM   21  C   UNL     1      39.827 -13.054   3.715  1.00  0.00     0.030 C 
ENDBRANCH  10  12
ENDBRANCH   1  10
BRANCH   1  22
HETATM   22  C   UNL     1      42.910 -17.523   4.590  1.00  0.00    -0.018 A 
HETATM   23  C   UNL     1      43.651 -16.815   5.546  1.00  0.00     0.029 A 
HETATM   24  C   UNL     1      43.056 -16.504   6.759  1.00  0.00     0.116 A 
HETATM   25  N   UNL     1      41.793 -16.848   7.083  1.00  0.00    -0.273 NA
HETATM   26  C   UNL     1      41.100 -17.553   6.166  1.00  0.00     0.116 A 
HETATM   27  C   UNL     1      41.604 -17.907   4.925  1.00  0.00     0.029 A 
ENDBRANCH   1  22
TORSDOF 4
ENDMDL
MODEL 7
REMARK VINA RESULT:      -7.7      2.444      4.651
REMARK  4 active torsions:
REMARK  status: ('A' for Active; 'I' for Inactive)
REMARK    1  A    between atoms: C_5  and  C_6 
REMARK    2  A    between atoms: C_6  and  N_7 
REMARK    3  A    between atoms: C_6  and  C_18 
REMARK    4  A    between atoms: N_7  and  C_8 
ROOT
HETATM    1  C   UNL     1      43.556 -16.666   4.327  1.00  0.00     0.290 C 
ENDROOT
BRANCH   1   2
HETATM    2  C   UNL     1      42.694 -16.803   3.089  1.00  0.00     0.021 A 
HETATM    3  C   UNL     1      41.291 -16.824   3.141  1.00  0.00     0.055 A 
HETATM    4  C   UNL     1      40.549 -16.974   1.972  1.00  0.00     0.117 A 
HETATM    5  C   UNL     1      41.172 -17.116   0.737  1.00  0.00     0.045 A 
HETATM    6  F   UNL     1      39.212 -16.974   2.040  1.00  0.00    -0.206 F 
HETATM    7  C   UNL     1      42.564 -17.107   0.668  1.00  0.00     0.046 A 
HETATM    8  C   UNL     1      43.309 -16.954   1.836  1.00  0.00     0.125 A 
HETATM    9  F   UNL     1      44.647 -16.938   1.749  1.00  0.00    -0.205 F 
ENDBRANCH   1   2
BRANCH   1  10
HETATM   10  N   UNL     1      43.060 -15.673   5.313  1.00  0.00     0.101 N 
HETATM   11  H   UNL     1      42.998 -16.148   6.210  1.00  0.00     0.317 HD
BRANCH  10  12
HETATM   12  C   UNL     1      43.796 -14.404   5.374  1.00  0.00     0.225 C 
HETATM   13  C   UNL     1      43.191 -13.336   6.310  1.00  0.00     0.069 C 
HETATM   14  C   UNL     1      41.897 -12.778   5.749  1.00  0.00     0.190 C 
HETATM   15  N   UNL     1      42.173 -12.197   4.388  1.00  0.00    -0.067 N 
HETATM   16  C   UNL     1      41.296 -11.583   6.461  1.00  0.00     0.035 C 
HETATM   17  H   UNL     1      42.934 -11.507   4.480  1.00  0.00     0.280 HD
HETATM   18  C   UNL     1      42.629 -13.227   3.402  1.00  0.00     0.237 C 
HETATM   19  C   UNL     1      40.939 -11.407   4.041  1.00  0.00     0.235 C 
HETATM   20  C   UNL     1      43.918 -13.849   3.935  1.00  0.00     0.063 C 
HETATM   21  C   UNL     1      40.379 -10.976   5.398  1.00  0.00     0.030 C 
ENDBRANCH  10  12
ENDBRANCH   1  10
BRANCH   1  22
HETATM   22  C   UNL     1      43.771 -18.009   5.015  1.00  0.00    -0.018 A 
HETATM   23  C   UNL     1      43.424 -18.173   6.363  1.00  0.00     0.029 A 
HETATM   24  C   UNL     1      43.622 -19.409   6.961  1.00  0.00     0.116 A 
HETATM   25  N   UNL     1      44.138 -20.476   6.318  1.00  0.00    -0.273 NA
HETATM   26  C   UNL     1      44.493 -20.298   5.029  1.00  0.00     0.116 A 
HETATM   27  C   UNL     1      44.330 -19.106   4.344  1.00  0.00     0.029 A 
ENDBRANCH   1  22
TORSDOF 4
ENDMDL
MODEL 8
REMARK VINA RESULT:      -7.7      2.193      4.431
REMARK  4 active torsions:
REMARK  status: ('A' for Active; 'I' for Inactive)
REMARK    1  A    between atoms: C_5  and  C_6 
REMARK    2  A    between atoms: C_6  and  N_7 
REMARK    3  A    between atoms: C_6  and  C_18 
REMARK    4  A    between atoms: N_7  and  C_8 
ROOT
HETATM    1  C   UNL     1      43.868 -17.640   3.281  1.00  0.00     0.290 C 
ENDROOT
BRANCH   1   2
HETATM    2  C   UNL     1      44.060 -19.138   3.165  1.00  0.00     0.021 A 
HETATM    3  C   UNL     1      43.549 -19.887   2.092  1.00  0.00     0.055 A 
HETATM    4  C   UNL     1      43.739 -21.266   2.049  1.00  0.00     0.117 A 
HETATM    5  C   UNL     1      44.422 -21.932   3.061  1.00  0.00     0.045 A 
HETATM    6  F   UNL     1      43.259 -21.961   1.009  1.00  0.00    -0.206 F 
HETATM    7  C   UNL     1      44.926 -21.205   4.137  1.00  0.00     0.046 A 
HETATM    8  C   UNL     1      44.742 -19.825   4.182  1.00  0.00     0.125 A 
HETATM    9  F   UNL     1      45.243 -19.141   5.220  1.00  0.00    -0.205 F 
ENDBRANCH   1   2
BRANCH   1  10
HETATM   10  N   UNL     1      43.371 -16.988   2.043  1.00  0.00     0.101 N 
HETATM   11  H   UNL     1      43.651 -17.576   1.262  1.00  0.00     0.317 HD
BRANCH  10  12
HETATM   12  C   UNL     1      41.944 -16.641   2.028  1.00  0.00     0.225 C 
HETATM   13  C   UNL     1      41.215 -16.911   0.694  1.00  0.00     0.069 C 
HETATM   14  C   UNL     1      41.658 -15.942  -0.385  1.00  0.00     0.190 C 
HETATM   15  N   UNL     1      41.394 -14.538   0.091  1.00  0.00    -0.067 N 
HETATM   16  C   UNL     1      40.885 -15.960  -1.688  1.00  0.00     0.035 C 
HETATM   17  H   UNL     1      40.398 -14.467   0.349  1.00  0.00     0.280 HD
HETATM   18  C   UNL     1      42.191 -14.181   1.306  1.00  0.00     0.237 C 
HETATM   19  C   UNL     1      41.567 -13.671  -1.129  1.00  0.00     0.235 C 
HETATM   20  C   UNL     1      41.808 -15.151   2.421  1.00  0.00     0.063 C 
HETATM   21  C   UNL     1      41.203 -14.593  -2.295  1.00  0.00     0.030 C 
ENDBRANCH  10  12
ENDBRANCH   1  10
BRANCH   1  22
HETATM   22  C   UNL     1      42.962 -17.277   4.452  1.00  0.00    -0.018 A 
HETATM   23  C   UNL     1      41.753 -17.959   4.644  1.00  0.00     0.029 A 
HETATM   24  C   UNL     1      40.953 -17.615   5.723  1.00  0.00     0.116 A 
HETATM   25  N   UNL     1      41.268 -16.649   6.609  1.00  0.00    -0.273 NA
HETATM   26  C   UNL     1      42.421 -15.981   6.398  1.00  0.00     0.116 A 
HETATM   27  C   UNL     1      43.288 -16.255   5.354  1.00  0.00     0.029 A 
ENDBRANCH   1  22
TORSDOF 4
ENDMDL
MODEL 9
REMARK VINA RESULT:      -7.7      2.943      6.083
REMARK  4 active torsions:
REMARK  status: ('A' for Active; 'I' for Inactive)
REMARK    1  A    between atoms: C_5  and  C_6 
REMARK    2  A    between atoms: C_6  and  N_7 
REMARK    3  A    between atoms: C_6  and  C_18 
REMARK    4  A    between atoms: N_7  and  C_8 
ROOT
HETATM    1  C   UNL     1      43.110 -14.934   2.680  1.00  0.00     0.290 C 
ENDROOT
BRANCH   1   2
HETATM    2  C   UNL     1      43.147 -16.411   3.017  1.00  0.00     0.021 A 
HETATM    3  C   UNL     1      42.435 -16.959   4.097  1.00  0.00     0.055 A 
HETATM    4  C   UNL     1      42.523 -18.321   4.373  1.00  0.00     0.117 A 
HETATM    5  C   UNL     1      43.318 -19.163   3.602  1.00  0.00     0.045 A 
HETATM    6  F   UNL     1      41.823 -18.829   5.395  1.00  0.00    -0.206 F 
HETATM    7  C   UNL     1      44.039 -18.633   2.534  1.00  0.00     0.046 A 
HETATM    8  C   UNL     1      43.950 -17.271   2.253  1.00  0.00     0.125 A 
HETATM    9  F   UNL     1      44.643 -16.782   1.215  1.00  0.00    -0.205 F 
ENDBRANCH   1   2
BRANCH   1  10
HETATM   10  N   UNL     1      42.175 -14.579   1.583  1.00  0.00     0.101 N 
HETATM   11  H   UNL     1      42.738 -14.237   0.809  1.00  0.00     0.317 HD
BRANCH  10  12
HETATM   12  C   UNL     1      41.218 -15.622   1.192  1.00  0.00     0.225 C 
HETATM   13  C   UNL     1      41.402 -16.184  -0.234  1.00  0.00     0.069 C 
HETATM   14  C   UNL     1      41.015 -15.164  -1.286  1.00  0.00     0.190 C 
HETATM   15  N   UNL     1      39.583 -14.757  -1.057  1.00  0.00    -0.067 N 
HETATM   16  C   UNL     1      40.956 -15.642  -2.723  1.00  0.00     0.035 C 
HETATM   17  H   UNL     1      39.003 -15.610  -1.051  1.00  0.00     0.280 HD
HETATM   18  C   UNL     1      39.380 -14.076   0.260  1.00  0.00     0.237 C 
HETATM   19  C   UNL     1      39.187 -13.998  -2.296  1.00  0.00     0.235 C 
HETATM   20  C   UNL     1      39.790 -15.051   1.361  1.00  0.00     0.063 C 
HETATM   21  C   UNL     1      40.065 -14.599  -3.397  1.00  0.00     0.030 C 
ENDBRANCH  10  12
ENDBRANCH   1  10
BRANCH   1  22
HETATM   22  C   UNL     1      42.808 -14.083   3.909  1.00  0.00    -0.018 A 
HETATM   23  C   UNL     1      41.703 -13.222   3.914  1.00  0.00     0.029 A 
HETATM   24  C   UNL     1      41.447 -12.467   5.048  1.00  0.00     0.116 A 
HETATM   25  N   UNL     1      42.208 -12.508   6.160  1.00  0.00    -0.273 NA
HETATM   26  C   UNL     1      43.284 -13.320   6.134  1.00  0.00     0.116 A 
HETATM   27  C   UNL     1      43.620 -14.116   5.051  1.00  0.00     0.029 A 
ENDBRANCH   1  22
TORSDOF 4
ENDMDL
MODEL 10
REMARK VINA RESULT:      -7.5      5.074      7.985
REMARK  4 active torsions:
REMARK  status: ('A' for Active; 'I' for Inactive)
REMARK    1  A    between atoms: C_5  and  C_6 
REMARK    2  A    between atoms: C_6  and  N_7 
REMARK    3  A    between atoms: C_6  and  C_18 
REMARK    4  A    between atoms: N_7  and  C_8 
ROOT
HETATM    1  C   UNL     1      41.617 -14.389  -0.619  1.00  0.00     0.290 C 
ENDROOT
BRANCH   1   2
HETATM    2  C   UNL     1      41.970 -12.916  -0.583  1.00  0.00     0.021 A 
HETATM    3  C   UNL     1      41.523 -12.054   0.432  1.00  0.00     0.055 A 
HETATM    4  C   UNL     1      41.862 -10.703   0.403  1.00  0.00     0.117 A 
HETATM    5  C   UNL     1      42.634 -10.177  -0.626  1.00  0.00     0.045 A 
HETATM    6  F   UNL     1      41.440  -9.901   1.388  1.00  0.00    -0.206 F 
HETATM    7  C   UNL     1      43.077 -11.016  -1.646  1.00  0.00     0.046 A 
HETATM    8  C   UNL     1      42.743 -12.368  -1.618  1.00  0.00     0.125 A 
HETATM    9  F   UNL     1      43.188 -13.162  -2.603  1.00  0.00    -0.205 F 
ENDBRANCH   1   2
BRANCH   1  10
HETATM   10  N   UNL     1      41.223 -14.957   0.695  1.00  0.00     0.101 N 
HETATM   11  H   UNL     1      40.346 -14.516   0.960  1.00  0.00     0.317 HD
BRANCH  10  12
HETATM   12  C   UNL     1      41.186 -16.422   0.776  1.00  0.00     0.225 C 
HETATM   13  C   UNL     1      40.586 -16.995   2.078  1.00  0.00     0.069 C 
HETATM   14  C   UNL     1      41.505 -16.761   3.261  1.00  0.00     0.190 C 
HETATM   15  N   UNL     1      42.838 -17.395   2.968  1.00  0.00    -0.067 N 
HETATM   16  C   UNL     1      41.139 -17.441   4.565  1.00  0.00     0.035 C 
HETATM   17  H   UNL     1      42.679 -18.388   2.737  1.00  0.00     0.280 HD
HETATM   18  C   UNL     1      43.527 -16.774   1.792  1.00  0.00     0.237 C 
HETATM   19  C   UNL     1      43.574 -17.390   4.282  1.00  0.00     0.235 C 
HETATM   20  C   UNL     1      42.626 -16.952   0.573  1.00  0.00     0.063 C 
HETATM   21  C   UNL     1      42.462 -17.452   5.331  1.00  0.00     0.030 C 
ENDBRANCH  10  12
ENDBRANCH   1  10
BRANCH   1  22
HETATM   22  C   UNL     1      40.534 -14.683  -1.651  1.00  0.00    -0.018 A 
HETATM   23  C   UNL     1      39.279 -14.069  -1.549  1.00  0.00     0.029 A 
HETATM   24  C   UNL     1      38.316 -14.348  -2.507  1.00  0.00     0.116 A 
HETATM   25  N   UNL     1      38.514 -15.187  -3.543  1.00  0.00    -0.273 NA
HETATM   26  C   UNL     1      39.717 -15.793  -3.616  1.00  0.00     0.116 A 
HETATM   27  C   UNL     1      40.743 -15.575  -2.712  1.00  0.00     0.029 A 
ENDBRANCH   1  22
TORSDOF 4
ENDMDL
