MODEL 1
REMARK VINA RESULT:      -9.0      0.000      0.000
REMARK  2 active torsions:
REMARK  status: ('A' for Active; 'I' for Inactive)
REMARK    1  A    between atoms: C_7  and  C_8 
REMARK    2  A    between atoms: C_13  and  C_18 
ROOT
HETATM    1  C   UNL     1      42.777 -18.341   2.346  1.00  0.00    -0.020 A 
HETATM    2  C   UNL     1      41.877 -17.829   3.295  1.00  0.00     0.015 A 
HETATM    3  C   UNL     1      41.216 -16.607   3.092  1.00  0.00     0.035 A 
HETATM    4  C   UNL     1      41.466 -15.897   1.911  1.00  0.00     0.085 A 
HETATM    5  N   UNL     1      40.953 -14.699   1.478  1.00  0.00    -0.233 NA
HETATM    6  C   UNL     1      41.496 -14.483   0.297  1.00  0.00     0.111 A 
HETATM    7  N   UNL     1      42.355 -15.506  -0.037  1.00  0.00    -0.342 N 
HETATM    8  H   UNL     1      42.875 -15.574  -0.902  1.00  0.00     0.167 HD
HETATM    9  C   UNL     1      42.356 -16.420   0.983  1.00  0.00     0.063 A 
HETATM   10  C   UNL     1      43.038 -17.627   1.164  1.00  0.00     0.044 A 
ENDROOT
BRANCH   6  11
HETATM   11  C   UNL     1      41.202 -13.312  -0.603  1.00  0.00     0.084 C 
HETATM   12  C   UNL     1      41.958 -13.355  -1.930  1.00  0.00     0.188 C 
HETATM   13  O   UNL     1      41.568 -14.445  -2.778  1.00  0.00    -0.350 OA
HETATM   14  C   UNL     1      40.216 -14.624  -2.904  1.00  0.00     0.075 A 
HETATM   15  C   UNL     1      39.803 -15.459  -3.943  1.00  0.00     0.037 A 
HETATM   16  C   UNL     1      39.278 -14.078  -2.022  1.00  0.00    -0.024 A 
HETATM   17  C   UNL     1      38.448 -15.731  -4.126  1.00  0.00     0.003 A 
HETATM   18  C   UNL     1      37.505 -15.173  -3.266  1.00  0.00     0.001 A 
HETATM   19  C   UNL     1      37.917 -14.348  -2.220  1.00  0.00     0.010 A 
HETATM   20  C   UNL     1      39.705 -13.191  -0.885  1.00  0.00     0.056 C 
ENDBRANCH   6  11
BRANCH   1  21
HETATM   21  C   UNL     1      43.453 -19.600   2.613  1.00  0.00     0.017 A 
HETATM   22  C   UNL     1      44.242 -19.892   3.713  1.00  0.00     0.036 A 
HETATM   23  C   UNL     1      44.654 -19.113   4.905  1.00  0.00     0.070 C 
HETATM   24  N   UNL     1      44.672 -21.180   3.526  1.00  0.00    -0.282 N 
HETATM   25  H   UNL     1      45.271 -21.733   4.132  1.00  0.00     0.189 HD
HETATM   26  N   UNL     1      44.241 -21.739   2.386  1.00  0.00    -0.186 NA
HETATM   27  C   UNL     1      43.504 -20.777   1.828  1.00  0.00     0.153 A 
ENDBRANCH   1  21
TORSDOF 2
ENDMDL
MODEL 2
REMARK VINA RESULT:      -8.4      2.129      3.337
REMARK  2 active torsions:
REMARK  status: ('A' for Active; 'I' for Inactive)
REMARK    1  A    between atoms: C_7  and  C_8 
REMARK    2  A    between atoms: C_13  and  C_18 
ROOT
HETATM    1  C   UNL     1      43.942 -19.131   3.262  1.00  0.00    -0.020 A 
HETATM    2  C   UNL     1      44.379 -18.655   2.014  1.00  0.00     0.015 A 
HETATM    3  C   UNL     1      43.996 -17.391   1.538  1.00  0.00     0.035 A 
HETATM    4  C   UNL     1      43.164 -16.597   2.337  1.00  0.00     0.085 A 
HETATM    5  N   UNL     1      42.657 -15.341   2.106  1.00  0.00    -0.233 NA
HETATM    6  C   UNL     1      41.948 -15.039   3.175  1.00  0.00     0.111 A 
HETATM    7  N   UNL     1      41.976 -16.072   4.084  1.00  0.00    -0.342 N 
HETATM    8  H   UNL     1      41.523 -16.068   4.989  1.00  0.00     0.167 HD
HETATM    9  C   UNL     1      42.743 -17.082   3.568  1.00  0.00     0.063 A 
HETATM   10  C   UNL     1      43.098 -18.341   4.062  1.00  0.00     0.044 A 
ENDROOT
BRANCH   6  11
HETATM   11  C   UNL     1      41.236 -13.735   3.414  1.00  0.00     0.084 C 
HETATM   12  C   UNL     1      41.780 -12.577   2.578  1.00  0.00     0.188 C 
HETATM   13  O   UNL     1      41.570 -12.740   1.167  1.00  0.00    -0.350 OA
HETATM   14  C   UNL     1      40.308 -13.134   0.813  1.00  0.00     0.075 A 
HETATM   15  C   UNL     1      39.983 -13.003  -0.538  1.00  0.00     0.037 A 
HETATM   16  C   UNL     1      39.395 -13.703   1.706  1.00  0.00    -0.024 A 
HETATM   17  C   UNL     1      38.733 -13.414  -1.000  1.00  0.00     0.003 A 
HETATM   18  C   UNL     1      37.809 -13.961  -0.113  1.00  0.00     0.001 A 
HETATM   19  C   UNL     1      38.137 -14.103   1.235  1.00  0.00     0.010 A 
HETATM   20  C   UNL     1      39.733 -13.868   3.163  1.00  0.00     0.056 C 
ENDBRANCH   6  11
BRANCH   1  21
HETATM   21  C   UNL     1      44.348 -20.456   3.701  1.00  0.00     0.017 A 
HETATM   22  C   UNL     1      44.350 -21.610   2.935  1.00  0.00     0.036 A 
HETATM   23  C   UNL     1      43.974 -21.901   1.531  1.00  0.00     0.070 C 
HETATM   24  N   UNL     1      44.794 -22.604   3.769  1.00  0.00    -0.282 N 
HETATM   25  H   UNL     1      44.925 -23.587   3.554  1.00  0.00     0.189 HD
HETATM   26  N   UNL     1      45.061 -22.190   5.016  1.00  0.00    -0.186 NA
HETATM   27  C   UNL     1      44.786 -20.885   4.976  1.00  0.00     0.153 A 
ENDBRANCH   1  21
TORSDOF 2
ENDMDL
MODEL 3
REMARK VINA RESULT:      -8.4      1.607      3.434
REMARK  2 active torsions:
REMARK  status: ('A' for Active; 'I' for Inactive)
REMARK    1  A    between atoms: C_7  and  C_8 
REMARK    2  A    between atoms: C_13  and  C_18 
ROOT
HETATM    1  C   UNL     1      42.876 -18.089   2.802  1.00  0.00    -0.020 A 
HETATM    2  C   UNL     1      41.813 -17.546   3.542  1.00  0.00     0.015 A 
HETATM    3  C   UNL     1      40.936 -16.604   2.981  1.00  0.00     0.035 A 
HETATM    4  C   UNL     1      41.135 -16.210   1.652  1.00  0.00     0.085 A 
HETATM    5  N   UNL     1      40.428 -15.321   0.880  1.00  0.00    -0.233 NA
HETATM    6  C   UNL     1      41.014 -15.325  -0.300  1.00  0.00     0.111 A 
HETATM    7  N   UNL     1      42.089 -16.185  -0.305  1.00  0.00    -0.342 N 
HETATM    8  H   UNL     1      42.684 -16.374  -1.102  1.00  0.00     0.167 HD
HETATM    9  C   UNL     1      42.190 -16.759   0.934  1.00  0.00     0.063 A 
HETATM   10  C   UNL     1      43.085 -17.690   1.471  1.00  0.00     0.044 A 
ENDROOT
BRANCH   6  11
HETATM   11  C   UNL     1      40.565 -14.542  -1.505  1.00  0.00     0.084 C 
HETATM   12  C   UNL     1      39.381 -13.618  -1.227  1.00  0.00     0.188 C 
HETATM   13  O   UNL     1      39.687 -12.550  -0.316  1.00  0.00    -0.350 OA
HETATM   14  C   UNL     1      40.858 -11.890  -0.573  1.00  0.00     0.075 A 
HETATM   15  C   UNL     1      41.032 -10.673   0.087  1.00  0.00     0.037 A 
HETATM   16  C   UNL     1      41.874 -12.403  -1.387  1.00  0.00    -0.024 A 
HETATM   17  C   UNL     1      42.210  -9.946  -0.083  1.00  0.00     0.003 A 
HETATM   18  C   UNL     1      43.217 -10.438  -0.909  1.00  0.00     0.001 A 
HETATM   19  C   UNL     1      43.050 -11.660  -1.561  1.00  0.00     0.010 A 
HETATM   20  C   UNL     1      41.712 -13.721  -2.093  1.00  0.00     0.056 C 
ENDBRANCH   6  11
BRANCH   1  21
HETATM   21  C   UNL     1      43.770 -19.045   3.435  1.00  0.00     0.017 A 
HETATM   22  C   UNL     1      44.083 -20.311   2.968  1.00  0.00     0.036 A 
HETATM   23  C   UNL     1      43.667 -21.088   1.776  1.00  0.00     0.070 C 
HETATM   24  N   UNL     1      44.945 -20.841   3.894  1.00  0.00    -0.282 N 
HETATM   25  H   UNL     1      45.385 -21.755   3.885  1.00  0.00     0.189 HD
HETATM   26  N   UNL     1      45.199 -20.029   4.931  1.00  0.00    -0.186 NA
HETATM   27  C   UNL     1      44.481 -18.939   4.654  1.00  0.00     0.153 A 
ENDBRANCH   1  21
TORSDOF 2
ENDMDL
MODEL 4
REMARK VINA RESULT:      -8.3      1.826      3.054
REMARK  2 active torsions:
REMARK  status: ('A' for Active; 'I' for Inactive)
REMARK    1  A    between atoms: C_7  and  C_8 
REMARK    2  A    between atoms: C_13  and  C_18 
ROOT
HETATM    1  C   UNL     1      43.479 -18.939   2.977  1.00  0.00    -0.020 A 
HETATM    2  C   UNL     1      43.964 -18.361   1.792  1.00  0.00     0.015 A 
HETATM    3  C   UNL     1      43.352 -17.233   1.224  1.00  0.00     0.035 A 
HETATM    4  C   UNL     1      42.238 -16.679   1.866  1.00  0.00     0.085 A 
HETATM    5  N   UNL     1      41.473 -15.591   1.522  1.00  0.00    -0.233 NA
HETATM    6  C   UNL     1      40.560 -15.482   2.467  1.00  0.00     0.111 A 
HETATM    7  N   UNL     1      40.710 -16.479   3.404  1.00  0.00    -0.342 N 
HETATM    8  H   UNL     1      40.141 -16.594   4.232  1.00  0.00     0.167 HD
HETATM    9  C   UNL     1      41.773 -17.261   3.038  1.00  0.00     0.063 A 
HETATM   10  C   UNL     1      42.355 -18.391   3.620  1.00  0.00     0.044 A 
ENDROOT
BRANCH   6  11
HETATM   11  C   UNL     1      39.516 -14.402   2.556  1.00  0.00     0.084 C 
HETATM   12  C   UNL     1      40.099 -12.995   2.674  1.00  0.00     0.188 C 
HETATM   13  O   UNL     1      40.819 -12.572   1.505  1.00  0.00    -0.350 OA
HETATM   14  C   UNL     1      40.182 -12.810   0.317  1.00  0.00     0.075 A 
HETATM   15  C   UNL     1      40.697 -12.147  -0.797  1.00  0.00     0.037 A 
HETATM   16  C   UNL     1      39.121 -13.711   0.174  1.00  0.00    -0.024 A 
HETATM   17  C   UNL     1      40.138 -12.357  -2.057  1.00  0.00     0.003 A 
HETATM   18  C   UNL     1      39.067 -13.234  -2.205  1.00  0.00     0.001 A 
HETATM   19  C   UNL     1      38.558 -13.907  -1.094  1.00  0.00     0.010 A 
HETATM   20  C   UNL     1      38.564 -14.448   1.361  1.00  0.00     0.056 C 
ENDBRANCH   6  11
BRANCH   1  21
HETATM   21  C   UNL     1      44.134 -20.120   3.514  1.00  0.00     0.017 A 
HETATM   22  C   UNL     1      44.295 -21.335   2.869  1.00  0.00     0.036 A 
HETATM   23  C   UNL     1      43.898 -21.837   1.531  1.00  0.00     0.070 C 
HETATM   24  N   UNL     1      44.951 -22.142   3.762  1.00  0.00    -0.282 N 
HETATM   25  H   UNL     1      45.240 -23.107   3.636  1.00  0.00     0.189 HD
HETATM   26  N   UNL     1      45.211 -21.554   4.939  1.00  0.00    -0.186 NA
HETATM   27  C   UNL     1      44.710 -20.327   4.790  1.00  0.00     0.153 A 
ENDBRANCH   1  21
TORSDOF 2
ENDMDL
MODEL 5
REMARK VINA RESULT:      -7.9      1.982      2.957
REMARK  2 active torsions:
REMARK  status: ('A' for Active; 'I' for Inactive)
REMARK    1  A    between atoms: C_7  and  C_8 
REMARK    2  A    between atoms: C_13  and  C_18 
ROOT
HETATM    1  C   UNL     1      43.675 -18.646   2.981  1.00  0.00    -0.020 A 
HETATM    2  C   UNL     1      44.102 -18.519   1.649  1.00  0.00     0.015 A 
HETATM    3  C   UNL     1      43.650 -17.470   0.832  1.00  0.00     0.035 A 
HETATM    4  C   UNL     1      42.758 -16.536   1.372  1.00  0.00     0.085 A 
HETATM    5  N   UNL     1      42.179 -15.433   0.794  1.00  0.00    -0.233 NA
HETATM    6  C   UNL     1      41.436 -14.883   1.733  1.00  0.00     0.111 A 
HETATM    7  N   UNL     1      41.513 -15.610   2.900  1.00  0.00    -0.342 N 
HETATM    8  H   UNL     1      41.046 -15.376   3.767  1.00  0.00     0.167 HD
HETATM    9  C   UNL     1      42.348 -16.675   2.692  1.00  0.00     0.063 A 
HETATM   10  C   UNL     1      42.772 -17.715   3.524  1.00  0.00     0.044 A 
ENDROOT
BRANCH   6  11
HETATM   11  C   UNL     1      40.641 -13.613   1.591  1.00  0.00     0.084 C 
HETATM   12  C   UNL     1      41.463 -12.347   1.826  1.00  0.00     0.188 C 
HETATM   13  O   UNL     1      42.484 -12.133   0.838  1.00  0.00    -0.350 OA
HETATM   14  C   UNL     1      42.075 -12.296  -0.458  1.00  0.00     0.075 A 
HETATM   15  C   UNL     1      42.938 -11.804  -1.438  1.00  0.00     0.037 A 
HETATM   16  C   UNL     1      40.906 -12.973  -0.823  1.00  0.00    -0.024 A 
HETATM   17  C   UNL     1      42.625 -11.959  -2.788  1.00  0.00     0.003 A 
HETATM   18  C   UNL     1      41.451 -12.611  -3.160  1.00  0.00     0.001 A 
HETATM   19  C   UNL     1      40.594 -13.114  -2.182  1.00  0.00     0.010 A 
HETATM   20  C   UNL     1      39.972 -13.526   0.219  1.00  0.00     0.056 C 
ENDBRANCH   6  11
BRANCH   1  21
HETATM   21  C   UNL     1      44.154 -19.762   3.780  1.00  0.00     0.017 A 
HETATM   22  C   UNL     1      44.568 -19.710   5.100  1.00  0.00     0.036 A 
HETATM   23  C   UNL     1      44.671 -18.612   6.092  1.00  0.00     0.070 C 
HETATM   24  N   UNL     1      44.941 -20.990   5.420  1.00  0.00    -0.282 N 
HETATM   25  H   UNL     1      45.298 -21.333   6.306  1.00  0.00     0.189 HD
HETATM   26  N   UNL     1      44.820 -21.862   4.409  1.00  0.00    -0.186 NA
HETATM   27  C   UNL     1      44.347 -21.115   3.410  1.00  0.00     0.153 A 
ENDBRANCH   1  21
TORSDOF 2
ENDMDL
MODEL 6
REMARK VINA RESULT:      -7.8      2.306      3.891
REMARK  2 active torsions:
REMARK  status: ('A' for Active; 'I' for Inactive)
REMARK    1  A    between atoms: C_7  and  C_8 
REMARK    2  A    between atoms: C_13  and  C_18 
ROOT
HETATM    1  C   UNL     1      43.245 -17.717   3.686  1.00  0.00    -0.020 A 
HETATM    2  C   UNL     1      43.980 -18.126   2.561  1.00  0.00     0.015 A 
HETATM    3  C   UNL     1      43.638 -17.698   1.268  1.00  0.00     0.035 A 
HETATM    4  C   UNL     1      42.541 -16.843   1.113  1.00  0.00     0.085 A 
HETATM    5  N   UNL     1      42.010 -16.288  -0.026  1.00  0.00    -0.233 NA
HETATM    6  C   UNL     1      40.996 -15.547   0.375  1.00  0.00     0.111 A 
HETATM    7  N   UNL     1      40.854 -15.619   1.742  1.00  0.00    -0.342 N 
HETATM    8  H   UNL     1      40.159 -15.122   2.285  1.00  0.00     0.167 HD
HETATM    9  C   UNL     1      41.827 -16.447   2.236  1.00  0.00     0.063 A 
HETATM   10  C   UNL     1      42.137 -16.866   3.533  1.00  0.00     0.044 A 
ENDROOT
BRANCH   6  11
HETATM   11  C   UNL     1      40.129 -14.695  -0.512  1.00  0.00     0.084 C 
HETATM   12  C   UNL     1      39.357 -13.614   0.243  1.00  0.00     0.188 C 
HETATM   13  O   UNL     1      40.200 -12.611   0.832  1.00  0.00    -0.350 OA
HETATM   14  C   UNL     1      41.177 -12.121   0.007  1.00  0.00     0.075 A 
HETATM   15  C   UNL     1      41.804 -10.949   0.430  1.00  0.00     0.037 A 
HETATM   16  C   UNL     1      41.598 -12.765  -1.162  1.00  0.00    -0.024 A 
HETATM   17  C   UNL     1      42.837 -10.396  -0.325  1.00  0.00     0.003 A 
HETATM   18  C   UNL     1      43.248 -11.018  -1.502  1.00  0.00     0.001 A 
HETATM   19  C   UNL     1      42.630 -12.196  -1.921  1.00  0.00     0.010 A 
HETATM   20  C   UNL     1      40.946 -14.039  -1.625  1.00  0.00     0.056 C 
ENDBRANCH   6  11
BRANCH   1  21
HETATM   21  C   UNL     1      43.626 -18.204   5.002  1.00  0.00     0.017 A 
HETATM   22  C   UNL     1      43.937 -17.430   6.106  1.00  0.00     0.036 A 
HETATM   23  C   UNL     1      43.999 -15.967   6.339  1.00  0.00     0.070 C 
HETATM   24  N   UNL     1      44.243 -18.319   7.104  1.00  0.00    -0.282 N 
HETATM   25  H   UNL     1      44.520 -18.114   8.059  1.00  0.00     0.189 HD
HETATM   26  N   UNL     1      44.174 -19.604   6.730  1.00  0.00    -0.186 NA
HETATM   27  C   UNL     1      43.803 -19.535   5.450  1.00  0.00     0.153 A 
ENDBRANCH   1  21
TORSDOF 2
ENDMDL
MODEL 7
REMARK VINA RESULT:      -7.6      1.993      3.480
REMARK  2 active torsions:
REMARK  status: ('A' for Active; 'I' for Inactive)
REMARK    1  A    between atoms: C_7  and  C_8 
REMARK    2  A    between atoms: C_13  and  C_18 
ROOT
HETATM    1  C   UNL     1      43.740 -18.608   3.272  1.00  0.00    -0.020 A 
HETATM    2  C   UNL     1      43.630 -17.580   4.224  1.00  0.00     0.015 A 
HETATM    3  C   UNL     1      43.197 -16.294   3.866  1.00  0.00     0.035 A 
HETATM    4  C   UNL     1      42.866 -16.046   2.528  1.00  0.00     0.085 A 
HETATM    5  N   UNL     1      42.420 -14.893   1.930  1.00  0.00    -0.233 NA
HETATM    6  C   UNL     1      42.240 -15.194   0.660  1.00  0.00     0.111 A 
HETATM    7  N   UNL     1      42.569 -16.509   0.422  1.00  0.00    -0.342 N 
HETATM    8  H   UNL     1      42.496 -16.979  -0.472  1.00  0.00     0.167 HD
HETATM    9  C   UNL     1      42.978 -17.073   1.601  1.00  0.00     0.063 A 
HETATM   10  C   UNL     1      43.418 -18.360   1.927  1.00  0.00     0.044 A 
ENDROOT
BRANCH   6  11
HETATM   11  C   UNL     1      41.706 -14.262  -0.395  1.00  0.00     0.084 C 
HETATM   12  C   UNL     1      40.282 -14.591  -0.838  1.00  0.00     0.188 C 
HETATM   13  O   UNL     1      39.302 -14.409   0.196  1.00  0.00    -0.350 OA
HETATM   14  C   UNL     1      39.409 -13.235   0.893  1.00  0.00     0.075 A 
HETATM   15  C   UNL     1      38.311 -12.888   1.680  1.00  0.00     0.037 A 
HETATM   16  C   UNL     1      40.560 -12.440   0.898  1.00  0.00    -0.024 A 
HETATM   17  C   UNL     1      38.343 -11.730   2.455  1.00  0.00     0.003 A 
HETATM   18  C   UNL     1      39.476 -10.920   2.448  1.00  0.00     0.001 A 
HETATM   19  C   UNL     1      40.580 -11.271   1.671  1.00  0.00     0.010 A 
HETATM   20  C   UNL     1      41.761 -12.807   0.070  1.00  0.00     0.056 C 
ENDBRANCH   6  11
BRANCH   1  21
HETATM   21  C   UNL     1      44.215 -19.918   3.688  1.00  0.00     0.017 A 
HETATM   22  C   UNL     1      44.146 -21.088   2.952  1.00  0.00     0.036 A 
HETATM   23  C   UNL     1      43.615 -21.415   1.607  1.00  0.00     0.070 C 
HETATM   24  N   UNL     1      44.700 -22.057   3.749  1.00  0.00    -0.282 N 
HETATM   25  H   UNL     1      44.821 -23.043   3.541  1.00  0.00     0.189 HD
HETATM   26  N   UNL     1      45.104 -21.612   4.948  1.00  0.00    -0.186 NA
HETATM   27  C   UNL     1      44.805 -20.312   4.913  1.00  0.00     0.153 A 
ENDBRANCH   1  21
TORSDOF 2
ENDMDL
MODEL 8
REMARK VINA RESULT:      -7.6      3.454      7.879
REMARK  2 active torsions:
REMARK  status: ('A' for Active; 'I' for Inactive)
REMARK    1  A    between atoms: C_7  and  C_8 
REMARK    2  A    between atoms: C_13  and  C_18 
ROOT
HETATM    1  C   UNL     1      39.964 -14.023  -1.904  1.00  0.00    -0.020 A 
HETATM    2  C   UNL     1      41.157 -13.363  -2.244  1.00  0.00     0.015 A 
HETATM    3  C   UNL     1      42.048 -12.909  -1.260  1.00  0.00     0.035 A 
HETATM    4  C   UNL     1      41.731 -13.129   0.086  1.00  0.00     0.085 A 
HETATM    5  N   UNL     1      42.425 -12.792   1.223  1.00  0.00    -0.233 NA
HETATM    6  C   UNL     1      41.704 -13.241   2.230  1.00  0.00     0.111 A 
HETATM    7  N   UNL     1      40.556 -13.849   1.772  1.00  0.00    -0.342 N 
HETATM    8  H   UNL     1      39.855 -14.288   2.354  1.00  0.00     0.167 HD
HETATM    9  C   UNL     1      40.549 -13.785   0.404  1.00  0.00     0.063 A 
HETATM   10  C   UNL     1      39.637 -14.237  -0.554  1.00  0.00     0.044 A 
ENDROOT
BRANCH   6  11
HETATM   11  C   UNL     1      42.080 -13.155   3.685  1.00  0.00     0.084 C 
HETATM   12  C   UNL     1      40.922 -13.454   4.636  1.00  0.00     0.188 C 
HETATM   13  O   UNL     1      40.453 -14.809   4.563  1.00  0.00    -0.350 OA
HETATM   14  C   UNL     1      41.437 -15.761   4.572  1.00  0.00     0.075 A 
HETATM   15  C   UNL     1      41.020 -17.070   4.812  1.00  0.00     0.037 A 
HETATM   16  C   UNL     1      42.781 -15.489   4.292  1.00  0.00    -0.024 A 
HETATM   17  C   UNL     1      41.945 -18.113   4.802  1.00  0.00     0.003 A 
HETATM   18  C   UNL     1      43.288 -17.848   4.547  1.00  0.00     0.001 A 
HETATM   19  C   UNL     1      43.706 -16.542   4.295  1.00  0.00     0.010 A 
HETATM   20  C   UNL     1      43.247 -14.086   4.013  1.00  0.00     0.056 C 
ENDBRANCH   6  11
BRANCH   1  21
HETATM   21  C   UNL     1      39.062 -14.454  -2.960  1.00  0.00     0.017 A 
HETATM   22  C   UNL     1      37.955 -13.766  -3.426  1.00  0.00     0.036 A 
HETATM   23  C   UNL     1      37.333 -12.470  -3.061  1.00  0.00     0.070 C 
HETATM   24  N   UNL     1      37.414 -14.560  -4.405  1.00  0.00    -0.282 N 
HETATM   25  H   UNL     1      36.591 -14.380  -4.971  1.00  0.00     0.189 HD
HETATM   26  N   UNL     1      38.070 -15.714  -4.596  1.00  0.00    -0.186 NA
HETATM   27  C   UNL     1      39.070 -15.652  -3.714  1.00  0.00     0.153 A 
ENDBRANCH   1  21
TORSDOF 2
ENDMDL
MODEL 9
REMARK VINA RESULT:      -7.5      8.282     10.805
REMARK  2 active torsions:
REMARK  status: ('A' for Active; 'I' for Inactive)
REMARK    1  A    between atoms: C_7  and  C_8 
REMARK    2  A    between atoms: C_13  and  C_18 
ROOT
HETATM    1  C   UNL     1      41.087  -9.698  10.379  1.00  0.00    -0.020 A 
HETATM    2  C   UNL     1      39.687  -9.816  10.391  1.00  0.00     0.015 A 
HETATM    3  C   UNL     1      38.995 -10.427   9.333  1.00  0.00     0.035 A 
HETATM    4  C   UNL     1      39.729 -10.928   8.251  1.00  0.00     0.085 A 
HETATM    5  N   UNL     1      39.298 -11.562   7.112  1.00  0.00    -0.233 NA
HETATM    6  C   UNL     1      40.387 -11.846   6.426  1.00  0.00     0.111 A 
HETATM    7  N   UNL     1      41.508 -11.400   7.089  1.00  0.00    -0.342 N 
HETATM    8  H   UNL     1      42.461 -11.519   6.771  1.00  0.00     0.167 HD
HETATM    9  C   UNL     1      41.112 -10.805   8.257  1.00  0.00     0.063 A 
HETATM   10  C   UNL     1      41.827 -10.192   9.290  1.00  0.00     0.044 A 
ENDROOT
BRANCH   6  11
HETATM   11  C   UNL     1      40.430 -12.592   5.119  1.00  0.00     0.084 C 
HETATM   12  C   UNL     1      41.809 -12.595   4.461  1.00  0.00     0.188 C 
HETATM   13  O   UNL     1      42.802 -13.313   5.210  1.00  0.00    -0.350 OA
HETATM   14  C   UNL     1      42.403 -14.541   5.667  1.00  0.00     0.075 A 
HETATM   15  C   UNL     1      43.418 -15.384   6.122  1.00  0.00     0.037 A 
HETATM   16  C   UNL     1      41.064 -14.937   5.756  1.00  0.00    -0.024 A 
HETATM   17  C   UNL     1      43.105 -16.639   6.642  1.00  0.00     0.003 A 
HETATM   18  C   UNL     1      41.777 -17.051   6.712  1.00  0.00     0.001 A 
HETATM   19  C   UNL     1      40.760 -16.205   6.269  1.00  0.00     0.010 A 
HETATM   20  C   UNL     1      39.955 -14.036   5.287  1.00  0.00     0.056 C 
ENDBRANCH   6  11
BRANCH   1  21
HETATM   21  C   UNL     1      41.756  -9.038  11.488  1.00  0.00     0.017 A 
HETATM   22  C   UNL     1      42.472  -9.655  12.500  1.00  0.00     0.036 A 
HETATM   23  C   UNL     1      42.789 -11.071  12.805  1.00  0.00     0.070 C 
HETATM   24  N   UNL     1      42.903  -8.641  13.316  1.00  0.00    -0.282 N 
HETATM   25  H   UNL     1      43.459  -8.715  14.162  1.00  0.00     0.189 HD
HETATM   26  N   UNL     1      42.508  -7.421  12.925  1.00  0.00    -0.186 NA
HETATM   27  C   UNL     1      41.807  -7.662  11.816  1.00  0.00     0.153 A 
ENDBRANCH   1  21
TORSDOF 2
ENDMDL
MODEL 10
REMARK VINA RESULT:      -7.5      1.959      3.241
REMARK  2 active torsions:
REMARK  status: ('A' for Active; 'I' for Inactive)
REMARK    1  A    between atoms: C_7  and  C_8 
REMARK    2  A    between atoms: C_13  and  C_18 
ROOT
HETATM    1  C   UNL     1      42.124 -17.421   3.990  1.00  0.00    -0.020 A 
HETATM    2  C   UNL     1      41.581 -16.510   4.911  1.00  0.00     0.015 A 
HETATM    3  C   UNL     1      40.748 -15.459   4.498  1.00  0.00     0.035 A 
HETATM    4  C   UNL     1      40.459 -15.328   3.134  1.00  0.00     0.085 A 
HETATM    5  N   UNL     1      39.681 -14.403   2.483  1.00  0.00    -0.233 NA
HETATM    6  C   UNL     1      39.722 -14.734   1.207  1.00  0.00     0.111 A 
HETATM    7  N   UNL     1      40.515 -15.843   1.020  1.00  0.00    -0.342 N 
HETATM    8  H   UNL     1      40.685 -16.297   0.132  1.00  0.00     0.167 HD
HETATM    9  C   UNL     1      41.002 -16.238   2.237  1.00  0.00     0.063 A 
HETATM   10  C   UNL     1      41.843 -17.288   2.619  1.00  0.00     0.044 A 
ENDROOT
BRANCH   6  11
HETATM   11  C   UNL     1      38.978 -14.041   0.098  1.00  0.00     0.084 C 
HETATM   12  C   UNL     1      38.803 -12.540   0.322  1.00  0.00     0.188 C 
HETATM   13  O   UNL     1      40.039 -11.809   0.310  1.00  0.00    -0.350 OA
HETATM   14  C   UNL     1      40.883 -12.121  -0.722  1.00  0.00     0.075 A 
HETATM   15  C   UNL     1      41.935 -11.230  -0.943  1.00  0.00     0.037 A 
HETATM   16  C   UNL     1      40.774 -13.287  -1.487  1.00  0.00    -0.024 A 
HETATM   17  C   UNL     1      42.868 -11.484  -1.946  1.00  0.00     0.003 A 
HETATM   18  C   UNL     1      42.754 -12.631  -2.728  1.00  0.00     0.001 A 
HETATM   19  C   UNL     1      41.710 -13.528  -2.502  1.00  0.00     0.010 A 
HETATM   20  C   UNL     1      39.658 -14.267  -1.253  1.00  0.00     0.056 C 
ENDBRANCH   6  11
BRANCH   1  21
HETATM   21  C   UNL     1      42.999 -18.480   4.465  1.00  0.00     0.017 A 
HETATM   22  C   UNL     1      43.774 -19.319   3.682  1.00  0.00     0.036 A 
HETATM   23  C   UNL     1      43.979 -19.443   2.219  1.00  0.00     0.070 C 
HETATM   24  N   UNL     1      44.411 -20.157   4.560  1.00  0.00    -0.282 N 
HETATM   25  H   UNL     1      45.063 -20.905   4.347  1.00  0.00     0.189 HD
HETATM   26  N   UNL     1      44.098 -19.941   5.846  1.00  0.00    -0.186 NA
HETATM   27  C   UNL     1      43.235 -18.925   5.788  1.00  0.00     0.153 A 
ENDBRANCH   1  21
TORSDOF 2
ENDMDL
