MODEL 1
REMARK VINA RESULT:      -8.7      0.000      0.000
REMARK  9 active torsions:
REMARK  status: ('A' for Active; 'I' for Inactive)
REMARK    1  A    between atoms: C_2  and  C_3 
REMARK    2  A    between atoms: C_3  and  C_4 
REMARK    3  A    between atoms: C_4  and  C_5 
REMARK    4  A    between atoms: C_5  and  N_6 
REMARK    5  A    between atoms: C_9  and  C_10 
REMARK       I    between atoms: C_10  and  N_11 
REMARK    6  A    between atoms: N_11  and  N_12 
REMARK    7  A    between atoms: C_13  and  C_14 
REMARK    8  A    between atoms: C_24  and  O_25 
REMARK    9  A    between atoms: C_28  and  O_29 
ROOT
HETATM    1  C   UNL     1      41.221 -13.397   3.982  1.00  0.00     0.280 C 
HETATM    2  N   UNL     1      39.863 -13.561   3.740  1.00  0.00    -0.242 N 
HETATM    3  O   UNL     1      41.846 -12.346   3.929  1.00  0.00    -0.266 OA
HETATM    4  H   UNL     1      39.466 -14.497   3.717  1.00  0.00     0.192 HD
ENDROOT
BRANCH   1   5
HETATM    5  C   UNL     1      41.895 -14.689   4.241  1.00  0.00     0.135 A 
HETATM    6  C   UNL     1      41.764 -15.782   3.250  1.00  0.00     0.266 A 
HETATM    7  N   UNL     1      42.446 -16.974   3.502  1.00  0.00    -0.313 N 
HETATM    8  O   UNL     1      41.096 -15.600   2.232  1.00  0.00    -0.267 OA
HETATM    9  C   UNL     1      43.287 -17.131   4.651  1.00  0.00     0.050 A 
HETATM   10  C   UNL     1      43.382 -16.075   5.580  1.00  0.00     0.025 A 
HETATM   11  C   UNL     1      44.033 -18.299   4.888  1.00  0.00     0.031 A 
HETATM   12  C   UNL     1      42.632 -14.832   5.353  1.00  0.00     0.099 A 
HETATM   13  C   UNL     1      44.200 -16.219   6.716  1.00  0.00     0.016 A 
HETATM   14  C   UNL     1      44.924 -17.387   6.937  1.00  0.00     0.001 A 
HETATM   15  C   UNL     1      44.842 -18.425   6.020  1.00  0.00     0.002 A 
BRANCH   7  16
HETATM   16  C   UNL     1      42.246 -18.057   2.536  1.00  0.00     0.132 C 
BRANCH  16  17
HETATM   17  C   UNL     1      43.350 -18.169   1.475  1.00  0.00     0.020 C 
BRANCH  17  18
HETATM   18  C   UNL     1      44.242 -19.401   1.627  1.00  0.00     0.001 C 
BRANCH  18  19
HETATM   19  C   UNL     1      43.409 -20.636   1.977  1.00  0.00    -0.004 C 
HETATM   20  C   UNL     1      44.138 -21.922   1.630  1.00  0.00     0.005 C 
ENDBRANCH  18  19
ENDBRANCH  17  18
ENDBRANCH  16  17
ENDBRANCH   7  16
BRANCH  12  21
HETATM   21  O   UNL     1      42.773 -13.861   6.330  1.00  0.00    -0.359 OA
HETATM   22  H   UNL     1      42.390 -13.016   6.025  1.00  0.00     0.218 HD
ENDBRANCH  12  21
ENDBRANCH   1   5
BRANCH   2  23
HETATM   23  N   UNL     1      39.074 -12.470   3.528  1.00  0.00    -0.176 NA
HETATM   24  C   UNL     1      38.801 -12.084   2.318  1.00  0.00     0.069 C 
HETATM   25  C   UNL     1      37.947 -10.840   2.194  1.00  0.00     0.073 C 
BRANCH  24  26
HETATM   26  C   UNL     1      39.218 -12.736   1.038  1.00  0.00     0.092 A 
HETATM   27  C   UNL     1      38.354 -13.789   0.428  1.00  0.00     0.261 A 
HETATM   28  O   UNL     1      37.288 -14.123   0.934  1.00  0.00    -0.267 OA
HETATM   29  N   UNL     1      38.789 -14.365  -0.733  1.00  0.00    -0.322 N 
HETATM   30  C   UNL     1      39.980 -14.013  -1.374  1.00  0.00     0.048 A 
HETATM   31  H   UNL     1      38.182 -15.070  -1.132  1.00  0.00     0.169 HD
HETATM   32  C   UNL     1      40.807 -13.037  -0.803  1.00  0.00     0.025 A 
HETATM   33  C   UNL     1      40.318 -14.633  -2.578  1.00  0.00     0.030 A 
HETATM   34  C   UNL     1      41.986 -12.684  -1.472  1.00  0.00     0.016 A 
HETATM   35  C   UNL     1      40.396 -12.414   0.469  1.00  0.00     0.096 A 
HETATM   36  C   UNL     1      42.325 -13.296  -2.681  1.00  0.00     0.001 A 
HETATM   37  C   UNL     1      41.495 -14.271  -3.232  1.00  0.00     0.002 A 
BRANCH  35  38
HETATM   38  O   UNL     1      41.281 -11.479   0.977  1.00  0.00    -0.359 OA
HETATM   39  H   UNL     1      41.365 -11.578   1.948  1.00  0.00     0.218 HD
ENDBRANCH  35  38
ENDBRANCH  24  26
ENDBRANCH   2  23
TORSDOF 9
ENDMDL
MODEL 2
REMARK VINA RESULT:      -8.7      1.828      2.859
REMARK  9 active torsions:
REMARK  status: ('A' for Active; 'I' for Inactive)
REMARK    1  A    between atoms: C_2  and  C_3 
REMARK    2  A    between atoms: C_3  and  C_4 
REMARK    3  A    between atoms: C_4  and  C_5 
REMARK    4  A    between atoms: C_5  and  N_6 
REMARK    5  A    between atoms: C_9  and  C_10 
REMARK       I    between atoms: C_10  and  N_11 
REMARK    6  A    between atoms: N_11  and  N_12 
REMARK    7  A    between atoms: C_13  and  C_14 
REMARK    8  A    between atoms: C_24  and  O_25 
REMARK    9  A    between atoms: C_28  and  O_29 
ROOT
HETATM    1  C   UNL     1      43.310 -14.157   5.763  1.00  0.00     0.280 C 
HETATM    2  N   UNL     1      42.293 -13.580   5.013  1.00  0.00    -0.242 N 
HETATM    3  O   UNL     1      44.073 -13.574   6.521  1.00  0.00    -0.266 OA
HETATM    4  H   UNL     1      41.781 -14.146   4.341  1.00  0.00     0.192 HD
ENDROOT
BRANCH   1   5
HETATM    5  C   UNL     1      43.447 -15.604   5.485  1.00  0.00     0.135 A 
HETATM    6  C   UNL     1      43.629 -16.055   4.085  1.00  0.00     0.266 A 
HETATM    7  N   UNL     1      43.798 -17.423   3.859  1.00  0.00    -0.313 N 
HETATM    8  O   UNL     1      43.660 -15.222   3.180  1.00  0.00    -0.267 OA
HETATM    9  C   UNL     1      43.845 -18.364   4.938  1.00  0.00     0.050 A 
HETATM   10  C   UNL     1      43.658 -17.903   6.257  1.00  0.00     0.025 A 
HETATM   11  C   UNL     1      44.080 -19.735   4.736  1.00  0.00     0.031 A 
HETATM   12  C   UNL     1      43.432 -16.473   6.507  1.00  0.00     0.099 A 
HETATM   13  C   UNL     1      43.696 -18.818   7.326  1.00  0.00     0.016 A 
HETATM   14  C   UNL     1      43.922 -20.173   7.104  1.00  0.00     0.001 A 
HETATM   15  C   UNL     1      44.116 -20.630   5.809  1.00  0.00     0.002 A 
BRANCH   7  16
HETATM   16  C   UNL     1      43.913 -17.843   2.461  1.00  0.00     0.132 C 
BRANCH  16  17
HETATM   17  C   UNL     1      42.588 -18.285   1.823  1.00  0.00     0.020 C 
BRANCH  17  18
HETATM   18  C   UNL     1      41.912 -17.210   0.973  1.00  0.00     0.001 C 
BRANCH  18  19
HETATM   19  C   UNL     1      40.460 -17.003   1.411  1.00  0.00    -0.004 C 
HETATM   20  C   UNL     1      40.372 -16.236   2.720  1.00  0.00     0.005 C 
ENDBRANCH  18  19
ENDBRANCH  17  18
ENDBRANCH  16  17
ENDBRANCH   7  16
BRANCH  12  21
HETATM   21  O   UNL     1      43.239 -16.120   7.832  1.00  0.00    -0.359 OA
HETATM   22  H   UNL     1      42.447 -16.568   8.189  1.00  0.00     0.218 HD
ENDBRANCH  12  21
ENDBRANCH   1   5
BRANCH   2  23
HETATM   23  N   UNL     1      41.994 -12.261   5.176  1.00  0.00    -0.176 NA
HETATM   24  C   UNL     1      41.294 -11.632   4.280  1.00  0.00     0.069 C 
HETATM   25  C   UNL     1      41.049 -10.160   4.539  1.00  0.00     0.073 C 
BRANCH  24  26
HETATM   26  C   UNL     1      40.690 -12.198   3.035  1.00  0.00     0.092 A 
HETATM   27  C   UNL     1      39.206 -12.280   2.903  1.00  0.00     0.261 A 
HETATM   28  O   UNL     1      38.455 -11.870   3.783  1.00  0.00    -0.267 OA
HETATM   29  N   UNL     1      38.705 -12.821   1.752  1.00  0.00    -0.322 N 
HETATM   30  C   UNL     1      39.502 -13.284   0.702  1.00  0.00     0.048 A 
HETATM   31  H   UNL     1      37.695 -12.859   1.682  1.00  0.00     0.169 HD
HETATM   32  C   UNL     1      40.898 -13.226   0.820  1.00  0.00     0.025 A 
HETATM   33  C   UNL     1      38.894 -13.784  -0.451  1.00  0.00     0.030 A 
HETATM   34  C   UNL     1      41.679 -13.675  -0.253  1.00  0.00     0.016 A 
HETATM   35  C   UNL     1      41.483 -12.684   2.060  1.00  0.00     0.096 A 
HETATM   36  C   UNL     1      41.075 -14.170  -1.411  1.00  0.00     0.001 A 
HETATM   37  C   UNL     1      39.686 -14.227  -1.509  1.00  0.00     0.002 A 
BRANCH  35  38
HETATM   38  O   UNL     1      42.867 -12.686   2.104  1.00  0.00    -0.359 OA
HETATM   39  H   UNL     1      43.226 -13.410   1.551  1.00  0.00     0.218 HD
ENDBRANCH  35  38
ENDBRANCH  24  26
ENDBRANCH   2  23
TORSDOF 9
ENDMDL
MODEL 3
REMARK VINA RESULT:      -8.4      2.329      5.366
REMARK  9 active torsions:
REMARK  status: ('A' for Active; 'I' for Inactive)
REMARK    1  A    between atoms: C_2  and  C_3 
REMARK    2  A    between atoms: C_3  and  C_4 
REMARK    3  A    between atoms: C_4  and  C_5 
REMARK    4  A    between atoms: C_5  and  N_6 
REMARK    5  A    between atoms: C_9  and  C_10 
REMARK       I    between atoms: C_10  and  N_11 
REMARK    6  A    between atoms: N_11  and  N_12 
REMARK    7  A    between atoms: C_13  and  C_14 
REMARK    8  A    between atoms: C_24  and  O_25 
REMARK    9  A    between atoms: C_28  and  O_29 
ROOT
HETATM    1  C   UNL     1      43.598 -16.956   1.902  1.00  0.00     0.280 C 
HETATM    2  N   UNL     1      42.342 -16.463   1.573  1.00  0.00    -0.242 N 
HETATM    3  O   UNL     1      44.573 -17.009   1.165  1.00  0.00    -0.266 OA
HETATM    4  H   UNL     1      41.576 -16.557   2.235  1.00  0.00     0.192 HD
ENDROOT
BRANCH   1   5
HETATM    5  C   UNL     1      43.629 -17.517   3.271  1.00  0.00     0.135 A 
HETATM    6  C   UNL     1      43.208 -16.666   4.409  1.00  0.00     0.266 A 
HETATM    7  N   UNL     1      43.208 -17.236   5.683  1.00  0.00    -0.313 N 
HETATM    8  O   UNL     1      42.844 -15.510   4.197  1.00  0.00    -0.267 OA
HETATM    9  C   UNL     1      43.554 -18.610   5.892  1.00  0.00     0.050 A 
HETATM   10  C   UNL     1      43.960 -19.390   4.790  1.00  0.00     0.025 A 
HETATM   11  C   UNL     1      43.496 -19.220   7.158  1.00  0.00     0.031 A 
HETATM   12  C   UNL     1      44.011 -18.791   3.450  1.00  0.00     0.099 A 
HETATM   13  C   UNL     1      44.308 -20.740   4.983  1.00  0.00     0.016 A 
HETATM   14  C   UNL     1      44.253 -21.323   6.246  1.00  0.00     0.001 A 
HETATM   15  C   UNL     1      43.844 -20.563   7.332  1.00  0.00     0.002 A 
BRANCH   7  16
HETATM   16  C   UNL     1      42.847 -16.352   6.793  1.00  0.00     0.132 C 
BRANCH  16  17
HETATM   17  C   UNL     1      44.027 -15.571   7.388  1.00  0.00     0.020 C 
BRANCH  17  18
HETATM   18  C   UNL     1      44.137 -14.129   6.895  1.00  0.00     0.001 C 
BRANCH  18  19
HETATM   19  C   UNL     1      45.348 -13.431   7.521  1.00  0.00    -0.004 C 
HETATM   20  C   UNL     1      44.950 -12.581   8.716  1.00  0.00     0.005 C 
ENDBRANCH  18  19
ENDBRANCH  17  18
ENDBRANCH  16  17
ENDBRANCH   7  16
BRANCH  12  21
HETATM   21  O   UNL     1      44.441 -19.630   2.436  1.00  0.00    -0.359 OA
HETATM   22  H   UNL     1      45.393 -19.824   2.539  1.00  0.00     0.218 HD
ENDBRANCH  12  21
ENDBRANCH   1   5
BRANCH   2  23
HETATM   23  N   UNL     1      42.142 -15.865   0.365  1.00  0.00    -0.176 NA
HETATM   24  C   UNL     1      41.445 -14.771   0.283  1.00  0.00     0.069 C 
HETATM   25  C   UNL     1      41.252 -14.209  -1.110  1.00  0.00     0.073 C 
BRANCH  24  26
HETATM   26  C   UNL     1      40.830 -13.998   1.405  1.00  0.00     0.092 A 
HETATM   27  C   UNL     1      39.344 -13.918   1.521  1.00  0.00     0.261 A 
HETATM   28  O   UNL     1      38.602 -14.494   0.732  1.00  0.00    -0.267 OA
HETATM   29  N   UNL     1      38.832 -13.184   2.555  1.00  0.00    -0.322 N 
HETATM   30  C   UNL     1      39.620 -12.524   3.501  1.00  0.00     0.048 A 
HETATM   31  H   UNL     1      37.822 -13.151   2.618  1.00  0.00     0.169 HD
HETATM   32  C   UNL     1      41.016 -12.579   3.394  1.00  0.00     0.025 A 
HETATM   33  C   UNL     1      39.001 -11.832   4.543  1.00  0.00     0.030 A 
HETATM   34  C   UNL     1      41.788 -11.929   4.366  1.00  0.00     0.016 A 
HETATM   35  C   UNL     1      41.613 -13.329   2.273  1.00  0.00     0.096 A 
HETATM   36  C   UNL     1      41.174 -11.240   5.415  1.00  0.00     0.001 A 
HETATM   37  C   UNL     1      39.783 -11.190   5.502  1.00  0.00     0.002 A 
BRANCH  35  38
HETATM   38  O   UNL     1      42.996 -13.312   2.228  1.00  0.00    -0.359 OA
HETATM   39  H   UNL     1      43.371 -13.554   3.100  1.00  0.00     0.218 HD
ENDBRANCH  35  38
ENDBRANCH  24  26
ENDBRANCH   2  23
TORSDOF 9
ENDMDL
MODEL 4
REMARK VINA RESULT:      -8.4      4.305      7.330
REMARK  9 active torsions:
REMARK  status: ('A' for Active; 'I' for Inactive)
REMARK    1  A    between atoms: C_2  and  C_3 
REMARK    2  A    between atoms: C_3  and  C_4 
REMARK    3  A    between atoms: C_4  and  C_5 
REMARK    4  A    between atoms: C_5  and  N_6 
REMARK    5  A    between atoms: C_9  and  C_10 
REMARK       I    between atoms: C_10  and  N_11 
REMARK    6  A    between atoms: N_11  and  N_12 
REMARK    7  A    between atoms: C_13  and  C_14 
REMARK    8  A    between atoms: C_24  and  O_25 
REMARK    9  A    between atoms: C_28  and  O_29 
ROOT
HETATM    1  C   UNL     1      40.638 -11.879   4.976  1.00  0.00     0.280 C 
HETATM    2  N   UNL     1      39.658 -11.701   5.944  1.00  0.00    -0.242 N 
HETATM    3  O   UNL     1      40.981 -11.062   4.131  1.00  0.00    -0.266 OA
HETATM    4  H   UNL     1      39.387 -12.483   6.534  1.00  0.00     0.192 HD
ENDROOT
BRANCH   1   5
HETATM    5  C   UNL     1      41.203 -13.246   5.008  1.00  0.00     0.135 A 
HETATM    6  C   UNL     1      40.722 -14.248   4.028  1.00  0.00     0.266 A 
HETATM    7  N   UNL     1      41.304 -15.517   4.055  1.00  0.00    -0.313 N 
HETATM    8  O   UNL     1      39.861 -13.928   3.209  1.00  0.00    -0.267 OA
HETATM    9  C   UNL     1      42.365 -15.838   4.962  1.00  0.00     0.050 A 
HETATM   10  C   UNL     1      42.793 -14.866   5.888  1.00  0.00     0.025 A 
HETATM   11  C   UNL     1      43.008 -17.088   4.960  1.00  0.00     0.031 A 
HETATM   12  C   UNL     1      42.157 -13.541   5.904  1.00  0.00     0.099 A 
HETATM   13  C   UNL     1      43.831 -15.170   6.789  1.00  0.00     0.016 A 
HETATM   14  C   UNL     1      44.449 -16.417   6.777  1.00  0.00     0.001 A 
HETATM   15  C   UNL     1      44.039 -17.374   5.860  1.00  0.00     0.002 A 
BRANCH   7  16
HETATM   16  C   UNL     1      40.763 -16.503   3.117  1.00  0.00     0.132 C 
BRANCH  16  17
HETATM   17  C   UNL     1      41.596 -16.682   1.840  1.00  0.00     0.020 C 
BRANCH  17  18
HETATM   18  C   UNL     1      41.874 -18.139   1.472  1.00  0.00     0.001 C 
BRANCH  18  19
HETATM   19  C   UNL     1      43.363 -18.462   1.619  1.00  0.00    -0.004 C 
HETATM   20  C   UNL     1      44.225 -17.222   1.450  1.00  0.00     0.005 C 
ENDBRANCH  18  19
ENDBRANCH  17  18
ENDBRANCH  16  17
ENDBRANCH   7  16
BRANCH  12  21
HETATM   21  O   UNL     1      42.631 -12.661   6.862  1.00  0.00    -0.359 OA
HETATM   22  H   UNL     1      42.515 -13.039   7.755  1.00  0.00     0.218 HD
ENDBRANCH  12  21
ENDBRANCH   1   5
BRANCH   2  23
HETATM   23  N   UNL     1      39.061 -10.484   6.091  1.00  0.00    -0.176 NA
HETATM   24  C   UNL     1      39.298  -9.762   7.145  1.00  0.00     0.069 C 
HETATM   25  C   UNL     1      38.555  -8.445   7.228  1.00  0.00     0.073 C 
BRANCH  24  26
HETATM   26  C   UNL     1      40.229 -10.074   8.272  1.00  0.00     0.092 A 
HETATM   27  C   UNL     1      41.703  -9.953   8.070  1.00  0.00     0.261 A 
HETATM   28  O   UNL     1      42.180  -9.577   7.004  1.00  0.00    -0.267 OA
HETATM   29  N   UNL     1      42.511 -10.266   9.127  1.00  0.00    -0.322 N 
HETATM   30  C   UNL     1      42.032 -10.676  10.374  1.00  0.00     0.048 A 
HETATM   31  H   UNL     1      43.506 -10.168   8.969  1.00  0.00     0.169 HD
HETATM   32  C   UNL     1      40.650 -10.808  10.572  1.00  0.00     0.025 A 
HETATM   33  C   UNL     1      42.938 -10.936  11.404  1.00  0.00     0.030 A 
HETATM   34  C   UNL     1      40.190 -11.200  11.835  1.00  0.00     0.016 A 
HETATM   35  C   UNL     1      39.742 -10.517   9.448  1.00  0.00     0.096 A 
HETATM   36  C   UNL     1      41.092 -11.455  12.871  1.00  0.00     0.001 A 
HETATM   37  C   UNL     1      42.463 -11.325  12.655  1.00  0.00     0.002 A 
BRANCH  35  38
HETATM   38  O   UNL     1      38.396 -10.696   9.720  1.00  0.00    -0.359 OA
HETATM   39  H   UNL     1      38.197 -10.439  10.644  1.00  0.00     0.218 HD
ENDBRANCH  35  38
ENDBRANCH  24  26
ENDBRANCH   2  23
TORSDOF 9
ENDMDL
MODEL 5
REMARK VINA RESULT:      -8.3      2.103      3.685
REMARK  9 active torsions:
REMARK  status: ('A' for Active; 'I' for Inactive)
REMARK    1  A    between atoms: C_2  and  C_3 
REMARK    2  A    between atoms: C_3  and  C_4 
REMARK    3  A    between atoms: C_4  and  C_5 
REMARK    4  A    between atoms: C_5  and  N_6 
REMARK    5  A    between atoms: C_9  and  C_10 
REMARK       I    between atoms: C_10  and  N_11 
REMARK    6  A    between atoms: N_11  and  N_12 
REMARK    7  A    between atoms: C_13  and  C_14 
REMARK    8  A    between atoms: C_24  and  O_25 
REMARK    9  A    between atoms: C_28  and  O_29 
ROOT
HETATM    1  C   UNL     1      41.055 -16.497   1.775  1.00  0.00     0.280 C 
HETATM    2  N   UNL     1      41.818 -16.103   0.683  1.00  0.00    -0.242 N 
HETATM    3  O   UNL     1      39.877 -16.828   1.756  1.00  0.00    -0.266 OA
HETATM    4  H   UNL     1      42.762 -15.755   0.829  1.00  0.00     0.192 HD
ENDROOT
BRANCH   1   5
HETATM    5  C   UNL     1      41.812 -16.395   3.043  1.00  0.00     0.135 A 
HETATM    6  C   UNL     1      42.335 -17.631   3.671  1.00  0.00     0.266 A 
HETATM    7  N   UNL     1      43.081 -17.499   4.843  1.00  0.00    -0.313 N 
HETATM    8  O   UNL     1      42.129 -18.717   3.132  1.00  0.00    -0.267 OA
HETATM    9  C   UNL     1      43.380 -16.215   5.405  1.00  0.00     0.050 A 
HETATM   10  C   UNL     1      42.859 -15.060   4.788  1.00  0.00     0.025 A 
HETATM   11  C   UNL     1      44.185 -16.058   6.546  1.00  0.00     0.031 A 
HETATM   12  C   UNL     1      42.032 -15.185   3.580  1.00  0.00     0.099 A 
HETATM   13  C   UNL     1      43.141 -13.792   5.332  1.00  0.00     0.016 A 
HETATM   14  C   UNL     1      43.933 -13.658   6.469  1.00  0.00     0.001 A 
HETATM   15  C   UNL     1      44.457 -14.792   7.073  1.00  0.00     0.002 A 
BRANCH   7  16
HETATM   16  C   UNL     1      43.531 -18.742   5.474  1.00  0.00     0.132 C 
BRANCH  16  17
HETATM   17  C   UNL     1      44.887 -19.253   4.967  1.00  0.00     0.020 C 
BRANCH  17  18
HETATM   18  C   UNL     1      44.833 -20.637   4.320  1.00  0.00     0.001 C 
BRANCH  18  19
HETATM   19  C   UNL     1      44.816 -20.523   2.794  1.00  0.00    -0.004 C 
HETATM   20  C   UNL     1      44.497 -21.854   2.135  1.00  0.00     0.005 C 
ENDBRANCH  18  19
ENDBRANCH  17  18
ENDBRANCH  16  17
ENDBRANCH   7  16
BRANCH  12  21
HETATM   21  O   UNL     1      41.549 -13.997   3.059  1.00  0.00    -0.359 OA
HETATM   22  H   UNL     1      40.572 -14.003   3.053  1.00  0.00     0.218 HD
ENDBRANCH  12  21
ENDBRANCH   1   5
BRANCH   2  23
HETATM   23  N   UNL     1      41.295 -16.177  -0.573  1.00  0.00    -0.176 NA
HETATM   24  C   UNL     1      41.014 -15.092  -1.231  1.00  0.00     0.069 C 
HETATM   25  C   UNL     1      40.402 -15.287  -2.603  1.00  0.00     0.073 C 
BRANCH  24  26
HETATM   26  C   UNL     1      41.241 -13.680  -0.797  1.00  0.00     0.092 A 
HETATM   27  C   UNL     1      40.371 -13.080   0.257  1.00  0.00     0.261 A 
HETATM   28  O   UNL     1      39.481 -13.724   0.804  1.00  0.00    -0.267 OA
HETATM   29  N   UNL     1      40.609 -11.780   0.606  1.00  0.00    -0.322 N 
HETATM   30  C   UNL     1      41.620 -10.999   0.041  1.00  0.00     0.048 A 
HETATM   31  H   UNL     1      40.011 -11.398   1.328  1.00  0.00     0.169 HD
HETATM   32  C   UNL     1      42.435 -11.546  -0.961  1.00  0.00     0.025 A 
HETATM   33  C   UNL     1      41.809  -9.692   0.492  1.00  0.00     0.030 A 
HETATM   34  C   UNL     1      43.456 -10.753  -1.499  1.00  0.00     0.016 A 
HETATM   35  C   UNL     1      42.190 -12.934  -1.395  1.00  0.00     0.096 A 
HETATM   36  C   UNL     1      43.654  -9.447  -1.045  1.00  0.00     0.001 A 
HETATM   37  C   UNL     1      42.830  -8.916  -0.054  1.00  0.00     0.002 A 
BRANCH  35  38
HETATM   38  O   UNL     1      43.022 -13.387  -2.404  1.00  0.00    -0.359 OA
HETATM   39  H   UNL     1      42.506 -13.567  -3.218  1.00  0.00     0.218 HD
ENDBRANCH  35  38
ENDBRANCH  24  26
ENDBRANCH   2  23
TORSDOF 9
ENDMDL
MODEL 6
REMARK VINA RESULT:      -8.3      2.290      3.422
REMARK  9 active torsions:
REMARK  status: ('A' for Active; 'I' for Inactive)
REMARK    1  A    between atoms: C_2  and  C_3 
REMARK    2  A    between atoms: C_3  and  C_4 
REMARK    3  A    between atoms: C_4  and  C_5 
REMARK    4  A    between atoms: C_5  and  N_6 
REMARK    5  A    between atoms: C_9  and  C_10 
REMARK       I    between atoms: C_10  and  N_11 
REMARK    6  A    between atoms: N_11  and  N_12 
REMARK    7  A    between atoms: C_13  and  C_14 
REMARK    8  A    between atoms: C_24  and  O_25 
REMARK    9  A    between atoms: C_28  and  O_29 
ROOT
HETATM    1  C   UNL     1      41.001 -12.602   1.594  1.00  0.00     0.280 C 
HETATM    2  N   UNL     1      42.168 -12.335   0.891  1.00  0.00    -0.242 N 
HETATM    3  O   UNL     1      40.038 -11.856   1.713  1.00  0.00    -0.266 OA
HETATM    4  H   UNL     1      42.945 -12.989   0.939  1.00  0.00     0.192 HD
ENDROOT
BRANCH   1   5
HETATM    5  C   UNL     1      41.064 -13.905   2.292  1.00  0.00     0.135 A 
HETATM    6  C   UNL     1      41.388 -15.125   1.515  1.00  0.00     0.266 A 
HETATM    7  N   UNL     1      41.481 -16.332   2.209  1.00  0.00    -0.313 N 
HETATM    8  O   UNL     1      41.594 -15.034   0.306  1.00  0.00    -0.267 OA
HETATM    9  C   UNL     1      41.321 -16.398   3.631  1.00  0.00     0.050 A 
HETATM   10  C   UNL     1      41.004 -15.221   4.339  1.00  0.00     0.025 A 
HETATM   11  C   UNL     1      41.477 -17.593   4.355  1.00  0.00     0.031 A 
HETATM   12  C   UNL     1      40.855 -13.951   3.617  1.00  0.00     0.099 A 
HETATM   13  C   UNL     1      40.838 -15.272   5.736  1.00  0.00     0.016 A 
HETATM   14  C   UNL     1      40.988 -16.467   6.434  1.00  0.00     0.001 A 
HETATM   15  C   UNL     1      41.310 -17.626   5.743  1.00  0.00     0.002 A 
BRANCH   7  16
HETATM   16  C   UNL     1      41.740 -17.529   1.404  1.00  0.00     0.132 C 
BRANCH  16  17
HETATM   17  C   UNL     1      43.199 -17.684   0.954  1.00  0.00     0.020 C 
BRANCH  17  18
HETATM   18  C   UNL     1      44.137 -18.214   2.037  1.00  0.00     0.001 C 
BRANCH  18  19
HETATM   19  C   UNL     1      43.852 -19.690   2.327  1.00  0.00    -0.004 C 
HETATM   20  C   UNL     1      44.460 -20.130   3.648  1.00  0.00     0.005 C 
ENDBRANCH  18  19
ENDBRANCH  17  18
ENDBRANCH  16  17
ENDBRANCH   7  16
BRANCH  12  21
HETATM   21  O   UNL     1      40.523 -12.855   4.396  1.00  0.00    -0.359 OA
HETATM   22  H   UNL     1      41.095 -12.095   4.171  1.00  0.00     0.218 HD
ENDBRANCH  12  21
ENDBRANCH   1   5
BRANCH   2  23
HETATM   23  N   UNL     1      42.268 -11.196   0.147  1.00  0.00    -0.176 NA
HETATM   24  C   UNL     1      41.894 -11.192  -1.097  1.00  0.00     0.069 C 
HETATM   25  C   UNL     1      42.082  -9.888  -1.843  1.00  0.00     0.073 C 
BRANCH  24  26
HETATM   26  C   UNL     1      41.285 -12.319  -1.869  1.00  0.00     0.092 A 
HETATM   27  C   UNL     1      42.156 -13.208  -2.692  1.00  0.00     0.261 A 
HETATM   28  O   UNL     1      43.373 -13.060  -2.736  1.00  0.00    -0.267 OA
HETATM   29  N   UNL     1      41.548 -14.213  -3.391  1.00  0.00    -0.322 N 
HETATM   30  C   UNL     1      40.172 -14.452  -3.365  1.00  0.00     0.048 A 
HETATM   31  H   UNL     1      42.160 -14.808  -3.936  1.00  0.00     0.169 HD
HETATM   32  C   UNL     1      39.341 -13.615  -2.608  1.00  0.00     0.025 A 
HETATM   33  C   UNL     1      39.650 -15.529  -4.085  1.00  0.00     0.030 A 
HETATM   34  C   UNL     1      37.967 -13.884  -2.578  1.00  0.00     0.016 A 
HETATM   35  C   UNL     1      39.949 -12.495  -1.866  1.00  0.00     0.096 A 
HETATM   36  C   UNL     1      37.441 -14.965  -3.291  1.00  0.00     0.001 A 
HETATM   37  C   UNL     1      38.280 -15.784  -4.045  1.00  0.00     0.002 A 
BRANCH  35  38
HETATM   38  O   UNL     1      39.056 -11.703  -1.165  1.00  0.00    -0.359 OA
HETATM   39  H   UNL     1      38.427 -11.270  -1.779  1.00  0.00     0.218 HD
ENDBRANCH  35  38
ENDBRANCH  24  26
ENDBRANCH   2  23
TORSDOF 9
ENDMDL
MODEL 7
REMARK VINA RESULT:      -8.3      2.066      5.110
REMARK  9 active torsions:
REMARK  status: ('A' for Active; 'I' for Inactive)
REMARK    1  A    between atoms: C_2  and  C_3 
REMARK    2  A    between atoms: C_3  and  C_4 
REMARK    3  A    between atoms: C_4  and  C_5 
REMARK    4  A    between atoms: C_5  and  N_6 
REMARK    5  A    between atoms: C_9  and  C_10 
REMARK       I    between atoms: C_10  and  N_11 
REMARK    6  A    between atoms: N_11  and  N_12 
REMARK    7  A    between atoms: C_13  and  C_14 
REMARK    8  A    between atoms: C_24  and  O_25 
REMARK    9  A    between atoms: C_28  and  O_29 
ROOT
HETATM    1  C   UNL     1      41.446 -17.128   1.113  1.00  0.00     0.280 C 
HETATM    2  N   UNL     1      41.912 -15.873   0.741  1.00  0.00    -0.242 N 
HETATM    3  O   UNL     1      40.614 -17.799   0.517  1.00  0.00    -0.266 OA
HETATM    4  H   UNL     1      42.533 -15.363   1.363  1.00  0.00     0.192 HD
ENDROOT
BRANCH   1   5
HETATM    5  C   UNL     1      42.015 -17.566   2.407  1.00  0.00     0.135 A 
HETATM    6  C   UNL     1      41.534 -16.933   3.657  1.00  0.00     0.266 A 
HETATM    7  N   UNL     1      42.059 -17.397   4.865  1.00  0.00    -0.313 N 
HETATM    8  O   UNL     1      40.676 -16.053   3.599  1.00  0.00    -0.267 OA
HETATM    9  C   UNL     1      42.994 -18.482   4.912  1.00  0.00     0.050 A 
HETATM   10  C   UNL     1      43.438 -19.056   3.703  1.00  0.00     0.025 A 
HETATM   11  C   UNL     1      43.483 -19.007   6.121  1.00  0.00     0.031 A 
HETATM   12  C   UNL     1      42.931 -18.546   2.422  1.00  0.00     0.099 A 
HETATM   13  C   UNL     1      44.360 -20.119   3.735  1.00  0.00     0.016 A 
HETATM   14  C   UNL     1      44.839 -20.618   4.942  1.00  0.00     0.001 A 
HETATM   15  C   UNL     1      44.397 -20.063   6.135  1.00  0.00     0.002 A 
BRANCH   7  16
HETATM   16  C   UNL     1      41.612 -16.709   6.078  1.00  0.00     0.132 C 
BRANCH  16  17
HETATM   17  C   UNL     1      42.587 -15.642   6.595  1.00  0.00     0.020 C 
BRANCH  17  18
HETATM   18  C   UNL     1      42.522 -14.314   5.841  1.00  0.00     0.001 C 
BRANCH  18  19
HETATM   19  C   UNL     1      43.780 -14.108   4.994  1.00  0.00    -0.004 C 
HETATM   20  C   UNL     1      43.438 -13.810   3.544  1.00  0.00     0.005 C 
ENDBRANCH  18  19
ENDBRANCH  17  18
ENDBRANCH  16  17
ENDBRANCH   7  16
BRANCH  12  21
HETATM   21  O   UNL     1      43.441 -19.160   1.290  1.00  0.00    -0.359 OA
HETATM   22  H   UNL     1      44.400 -19.317   1.394  1.00  0.00     0.218 HD
ENDBRANCH  12  21
ENDBRANCH   1   5
BRANCH   2  23
HETATM   23  N   UNL     1      41.529 -15.332  -0.450  1.00  0.00    -0.176 NA
HETATM   24  C   UNL     1      41.102 -14.105  -0.503  1.00  0.00     0.069 C 
HETATM   25  C   UNL     1      40.666 -13.613  -1.868  1.00  0.00     0.073 C 
BRANCH  24  26
HETATM   26  C   UNL     1      41.009 -13.123   0.620  1.00  0.00     0.092 A 
HETATM   27  C   UNL     1      41.941 -11.959   0.664  1.00  0.00     0.261 A 
HETATM   28  O   UNL     1      42.776 -11.765  -0.215  1.00  0.00    -0.267 OA
HETATM   29  N   UNL     1      41.826 -11.100   1.721  1.00  0.00    -0.322 N 
HETATM   30  C   UNL     1      40.883 -11.249   2.741  1.00  0.00     0.048 A 
HETATM   31  H   UNL     1      42.464 -10.313   1.725  1.00  0.00     0.169 HD
HETATM   32  C   UNL     1      40.011 -12.346   2.719  1.00  0.00     0.025 A 
HETATM   33  C   UNL     1      40.819 -10.295   3.758  1.00  0.00     0.030 A 
HETATM   34  C   UNL     1      39.059 -12.465   3.739  1.00  0.00     0.016 A 
HETATM   35  C   UNL     1      40.124 -13.319   1.617  1.00  0.00     0.096 A 
HETATM   36  C   UNL     1      38.986 -11.509   4.756  1.00  0.00     0.001 A 
HETATM   37  C   UNL     1      39.865 -10.428   4.767  1.00  0.00     0.002 A 
BRANCH  35  38
HETATM   38  O   UNL     1      39.243 -14.385   1.684  1.00  0.00    -0.359 OA
HETATM   39  H   UNL     1      38.468 -14.225   1.107  1.00  0.00     0.218 HD
ENDBRANCH  35  38
ENDBRANCH  24  26
ENDBRANCH   2  23
TORSDOF 9
ENDMDL
MODEL 8
REMARK VINA RESULT:      -8.2      2.859      5.350
REMARK  9 active torsions:
REMARK  status: ('A' for Active; 'I' for Inactive)
REMARK    1  A    between atoms: C_2  and  C_3 
REMARK    2  A    between atoms: C_3  and  C_4 
REMARK    3  A    between atoms: C_4  and  C_5 
REMARK    4  A    between atoms: C_5  and  N_6 
REMARK    5  A    between atoms: C_9  and  C_10 
REMARK       I    between atoms: C_10  and  N_11 
REMARK    6  A    between atoms: N_11  and  N_12 
REMARK    7  A    between atoms: C_13  and  C_14 
REMARK    8  A    between atoms: C_24  and  O_25 
REMARK    9  A    between atoms: C_28  and  O_29 
ROOT
HETATM    1  C   UNL     1      39.819 -14.638   2.764  1.00  0.00     0.280 C 
HETATM    2  N   UNL     1      39.987 -13.291   3.060  1.00  0.00    -0.242 N 
HETATM    3  O   UNL     1      38.897 -15.132   2.130  1.00  0.00    -0.266 OA
HETATM    4  H   UNL     1      40.741 -13.003   3.678  1.00  0.00     0.192 HD
ENDROOT
BRANCH   1   5
HETATM    5  C   UNL     1      40.867 -15.475   3.389  1.00  0.00     0.135 A 
HETATM    6  C   UNL     1      41.979 -15.983   2.550  1.00  0.00     0.266 A 
HETATM    7  N   UNL     1      42.975 -16.734   3.177  1.00  0.00    -0.313 N 
HETATM    8  O   UNL     1      42.009 -15.704   1.352  1.00  0.00    -0.267 OA
HETATM    9  C   UNL     1      42.962 -16.973   4.590  1.00  0.00     0.050 A 
HETATM   10  C   UNL     1      41.885 -16.483   5.356  1.00  0.00     0.025 A 
HETATM   11  C   UNL     1      43.990 -17.670   5.248  1.00  0.00     0.031 A 
HETATM   12  C   UNL     1      40.804 -15.732   4.704  1.00  0.00     0.099 A 
HETATM   13  C   UNL     1      41.857 -16.715   6.745  1.00  0.00     0.016 A 
HETATM   14  C   UNL     1      42.880 -17.416   7.377  1.00  0.00     0.001 A 
HETATM   15  C   UNL     1      43.947 -17.890   6.628  1.00  0.00     0.002 A 
BRANCH   7  16
HETATM   16  C   UNL     1      44.025 -17.275   2.311  1.00  0.00     0.132 C 
BRANCH  16  17
HETATM   17  C   UNL     1      43.573 -18.442   1.422  1.00  0.00     0.020 C 
BRANCH  17  18
HETATM   18  C   UNL     1      43.072 -19.661   2.194  1.00  0.00     0.001 C 
BRANCH  18  19
HETATM   19  C   UNL     1      44.230 -20.605   2.530  1.00  0.00    -0.004 C 
HETATM   20  C   UNL     1      44.182 -21.872   1.694  1.00  0.00     0.005 C 
ENDBRANCH  18  19
ENDBRANCH  17  18
ENDBRANCH  16  17
ENDBRANCH   7  16
BRANCH  12  21
HETATM   21  O   UNL     1      39.781 -15.310   5.537  1.00  0.00    -0.359 OA
HETATM   22  H   UNL     1      38.962 -15.807   5.343  1.00  0.00     0.218 HD
ENDBRANCH  12  21
ENDBRANCH   1   5
BRANCH   2  23
HETATM   23  N   UNL     1      39.138 -12.367   2.527  1.00  0.00    -0.176 NA
HETATM   24  C   UNL     1      38.956 -11.227   3.122  1.00  0.00     0.069 C 
HETATM   25  C   UNL     1      37.964 -10.288   2.467  1.00  0.00     0.073 C 
BRANCH  24  26
HETATM   26  C   UNL     1      39.623 -10.730   4.364  1.00  0.00     0.092 A 
HETATM   27  C   UNL     1      40.616  -9.619   4.277  1.00  0.00     0.261 A 
HETATM   28  O   UNL     1      40.888  -9.077   3.210  1.00  0.00    -0.267 OA
HETATM   29  N   UNL     1      41.210  -9.214   5.439  1.00  0.00    -0.322 N 
HETATM   30  C   UNL     1      40.929  -9.771   6.689  1.00  0.00     0.048 A 
HETATM   31  H   UNL     1      41.874  -8.454   5.356  1.00  0.00     0.169 HD
HETATM   32  C   UNL     1      40.009 -10.825   6.782  1.00  0.00     0.025 A 
HETATM   33  C   UNL     1      41.561  -9.261   7.824  1.00  0.00     0.030 A 
HETATM   34  C   UNL     1      39.725 -11.355   8.046  1.00  0.00     0.016 A 
HETATM   35  C   UNL     1      39.370 -11.320   5.548  1.00  0.00     0.096 A 
HETATM   36  C   UNL     1      40.349 -10.843   9.187  1.00  0.00     0.001 A 
HETATM   37  C   UNL     1      41.267  -9.800   9.076  1.00  0.00     0.002 A 
BRANCH  35  38
HETATM   38  O   UNL     1      38.495 -12.378   5.725  1.00  0.00    -0.359 OA
HETATM   39  H   UNL     1      38.162 -12.396   6.647  1.00  0.00     0.218 HD
ENDBRANCH  35  38
ENDBRANCH  24  26
ENDBRANCH   2  23
TORSDOF 9
ENDMDL
MODEL 9
REMARK VINA RESULT:      -8.2      1.190      1.941
REMARK  9 active torsions:
REMARK  status: ('A' for Active; 'I' for Inactive)
REMARK    1  A    between atoms: C_2  and  C_3 
REMARK    2  A    between atoms: C_3  and  C_4 
REMARK    3  A    between atoms: C_4  and  C_5 
REMARK    4  A    between atoms: C_5  and  N_6 
REMARK    5  A    between atoms: C_9  and  C_10 
REMARK       I    between atoms: C_10  and  N_11 
REMARK    6  A    between atoms: N_11  and  N_12 
REMARK    7  A    between atoms: C_13  and  C_14 
REMARK    8  A    between atoms: C_24  and  O_25 
REMARK    9  A    between atoms: C_28  and  O_29 
ROOT
HETATM    1  C   UNL     1      41.640 -13.325   3.894  1.00  0.00     0.280 C 
HETATM    2  N   UNL     1      40.422 -13.177   3.242  1.00  0.00    -0.242 N 
HETATM    3  O   UNL     1      42.445 -12.437   4.138  1.00  0.00    -0.266 OA
HETATM    4  H   UNL     1      39.875 -14.000   3.006  1.00  0.00     0.192 HD
ENDROOT
BRANCH   1   5
HETATM    5  C   UNL     1      41.928 -14.742   4.209  1.00  0.00     0.135 A 
HETATM    6  C   UNL     1      41.905 -15.743   3.116  1.00  0.00     0.266 A 
HETATM    7  N   UNL     1      42.223 -17.064   3.437  1.00  0.00    -0.313 N 
HETATM    8  O   UNL     1      41.645 -15.380   1.970  1.00  0.00    -0.267 OA
HETATM    9  C   UNL     1      42.606 -17.445   4.764  1.00  0.00     0.050 A 
HETATM   10  C   UNL     1      42.608 -16.471   5.782  1.00  0.00     0.025 A 
HETATM   11  C   UNL     1      42.993 -18.756   5.092  1.00  0.00     0.031 A 
HETATM   12  C   UNL     1      42.230 -15.085   5.470  1.00  0.00     0.099 A 
HETATM   13  C   UNL     1      42.978 -16.832   7.091  1.00  0.00     0.016 A 
HETATM   14  C   UNL     1      43.349 -18.138   7.398  1.00  0.00     0.001 A 
HETATM   15  C   UNL     1      43.359 -19.098   6.396  1.00  0.00     0.002 A 
BRANCH   7  16
HETATM   16  C   UNL     1      42.130 -18.039   2.349  1.00  0.00     0.132 C 
BRANCH  16  17
HETATM   17  C   UNL     1      43.437 -18.243   1.570  1.00  0.00     0.020 C 
BRANCH  17  18
HETATM   18  C   UNL     1      44.278 -19.424   2.054  1.00  0.00     0.001 C 
BRANCH  18  19
HETATM   19  C   UNL     1      43.516 -20.741   1.880  1.00  0.00    -0.004 C 
HETATM   20  C   UNL     1      44.350 -21.933   2.317  1.00  0.00     0.005 C 
ENDBRANCH  18  19
ENDBRANCH  17  18
ENDBRANCH  16  17
ENDBRANCH   7  16
BRANCH  12  21
HETATM   21  O   UNL     1      42.243 -14.206   6.540  1.00  0.00    -0.359 OA
HETATM   22  H   UNL     1      42.874 -14.512   7.221  1.00  0.00     0.218 HD
ENDBRANCH  12  21
ENDBRANCH   1   5
BRANCH   2  23
HETATM   23  N   UNL     1      39.973 -11.932   2.918  1.00  0.00    -0.176 NA
HETATM   24  C   UNL     1      39.886 -11.571   1.673  1.00  0.00     0.069 C 
HETATM   25  C   UNL     1      39.411 -10.155   1.423  1.00  0.00     0.073 C 
BRANCH  24  26
HETATM   26  C   UNL     1      40.184 -12.396   0.462  1.00  0.00     0.092 A 
HETATM   27  C   UNL     1      41.601 -12.637   0.060  1.00  0.00     0.261 A 
HETATM   28  O   UNL     1      42.542 -12.194   0.713  1.00  0.00    -0.267 OA
HETATM   29  N   UNL     1      41.819 -13.384  -1.063  1.00  0.00    -0.322 N 
HETATM   30  C   UNL     1      40.795 -13.936  -1.837  1.00  0.00     0.048 A 
HETATM   31  H   UNL     1      42.788 -13.540  -1.312  1.00  0.00     0.169 HD
HETATM   32  C   UNL     1      39.459 -13.706  -1.478  1.00  0.00     0.025 A 
HETATM   33  C   UNL     1      41.120 -14.718  -2.946  1.00  0.00     0.030 A 
HETATM   34  C   UNL     1      38.449 -14.286  -2.254  1.00  0.00     0.016 A 
HETATM   35  C   UNL     1      39.176 -12.874  -0.294  1.00  0.00     0.096 A 
HETATM   36  C   UNL     1      38.769 -15.075  -3.362  1.00  0.00     0.001 A 
HETATM   37  C   UNL     1      40.102 -15.289  -3.709  1.00  0.00     0.002 A 
BRANCH  35  38
HETATM   38  O   UNL     1      37.833 -12.676  -0.025  1.00  0.00    -0.359 OA
HETATM   39  H   UNL     1      37.330 -12.564  -0.858  1.00  0.00     0.218 HD
ENDBRANCH  35  38
ENDBRANCH  24  26
ENDBRANCH   2  23
TORSDOF 9
ENDMDL
MODEL 10
REMARK VINA RESULT:      -8.1      2.061      3.185
REMARK  9 active torsions:
REMARK  status: ('A' for Active; 'I' for Inactive)
REMARK    1  A    between atoms: C_2  and  C_3 
REMARK    2  A    between atoms: C_3  and  C_4 
REMARK    3  A    between atoms: C_4  and  C_5 
REMARK    4  A    between atoms: C_5  and  N_6 
REMARK    5  A    between atoms: C_9  and  C_10 
REMARK       I    between atoms: C_10  and  N_11 
REMARK    6  A    between atoms: N_11  and  N_12 
REMARK    7  A    between atoms: C_13  and  C_14 
REMARK    8  A    between atoms: C_24  and  O_25 
REMARK    9  A    between atoms: C_28  and  O_29 
ROOT
HETATM    1  C   UNL     1      43.373 -14.336   5.833  1.00  0.00     0.280 C 
HETATM    2  N   UNL     1      42.099 -13.789   5.744  1.00  0.00    -0.242 N 
HETATM    3  O   UNL     1      44.429 -13.719   5.841  1.00  0.00    -0.266 OA
HETATM    4  H   UNL     1      41.294 -14.402   5.648  1.00  0.00     0.192 HD
ENDROOT
BRANCH   1   5
HETATM    5  C   UNL     1      43.338 -15.816   5.833  1.00  0.00     0.135 A 
HETATM    6  C   UNL     1      43.096 -16.532   4.559  1.00  0.00     0.266 A 
HETATM    7  N   UNL     1      43.112 -17.927   4.584  1.00  0.00    -0.313 N 
HETATM    8  O   UNL     1      42.925 -15.886   3.526  1.00  0.00    -0.267 OA
HETATM    9  C   UNL     1      43.399 -18.656   5.784  1.00  0.00     0.050 A 
HETATM   10  C   UNL     1      43.615 -17.944   6.981  1.00  0.00     0.025 A 
HETATM   11  C   UNL     1      43.484 -20.059   5.815  1.00  0.00     0.031 A 
HETATM   12  C   UNL     1      43.555 -16.476   6.981  1.00  0.00     0.099 A 
HETATM   13  C   UNL     1      43.893 -18.648   8.169  1.00  0.00     0.016 A 
HETATM   14  C   UNL     1      43.964 -20.038   8.180  1.00  0.00     0.001 A 
HETATM   15  C   UNL     1      43.763 -20.742   7.002  1.00  0.00     0.002 A 
BRANCH   7  16
HETATM   16  C   UNL     1      42.807 -18.606   3.322  1.00  0.00     0.132 C 
BRANCH  16  17
HETATM   17  C   UNL     1      43.963 -19.447   2.762  1.00  0.00     0.020 C 
BRANCH  17  18
HETATM   18  C   UNL     1      43.522 -20.580   1.836  1.00  0.00     0.001 C 
BRANCH  18  19
HETATM   19  C   UNL     1      44.493 -21.760   1.922  1.00  0.00    -0.004 C 
HETATM   20  C   UNL     1      44.481 -22.398   3.301  1.00  0.00     0.005 C 
ENDBRANCH  18  19
ENDBRANCH  17  18
ENDBRANCH  16  17
ENDBRANCH   7  16
BRANCH  12  21
HETATM   21  O   UNL     1      43.760 -15.869   8.208  1.00  0.00    -0.359 OA
HETATM   22  H   UNL     1      44.407 -16.379   8.734  1.00  0.00     0.218 HD
ENDBRANCH  12  21
ENDBRANCH   1   5
BRANCH   2  23
HETATM   23  N   UNL     1      41.937 -12.436   5.779  1.00  0.00    -0.176 NA
HETATM   24  C   UNL     1      41.483 -11.804   4.738  1.00  0.00     0.069 C 
HETATM   25  C   UNL     1      41.377 -10.299   4.868  1.00  0.00     0.073 C 
BRANCH  24  26
HETATM   26  C   UNL     1      41.039 -12.393   3.437  1.00  0.00     0.092 A 
HETATM   27  C   UNL     1      42.050 -12.958   2.496  1.00  0.00     0.261 A 
HETATM   28  O   UNL     1      43.246 -12.979   2.769  1.00  0.00    -0.267 OA
HETATM   29  N   UNL     1      41.593 -13.469   1.314  1.00  0.00    -0.322 N 
HETATM   30  C   UNL     1      40.244 -13.498   0.952  1.00  0.00     0.048 A 
HETATM   31  H   UNL     1      42.296 -13.854   0.695  1.00  0.00     0.169 HD
HETATM   32  C   UNL     1      39.286 -12.957   1.820  1.00  0.00     0.025 A 
HETATM   33  C   UNL     1      39.873 -14.077  -0.263  1.00  0.00     0.030 A 
HETATM   34  C   UNL     1      37.937 -13.016   1.449  1.00  0.00     0.016 A 
HETATM   35  C   UNL     1      39.737 -12.362   3.092  1.00  0.00     0.096 A 
HETATM   36  C   UNL     1      37.560 -13.600   0.237  1.00  0.00     0.001 A 
HETATM   37  C   UNL     1      38.526 -14.128  -0.618  1.00  0.00     0.002 A 
BRANCH  35  38
HETATM   38  O   UNL     1      38.731 -11.828   3.878  1.00  0.00    -0.359 OA
HETATM   39  H   UNL     1      38.321 -12.526   4.431  1.00  0.00     0.218 HD
ENDBRANCH  35  38
ENDBRANCH  24  26
ENDBRANCH   2  23
TORSDOF 9
ENDMDL
