MODEL 1
REMARK VINA RESULT:      -8.1      0.000      0.000
REMARK  5 active torsions:
REMARK  status: ('A' for Active; 'I' for Inactive)
REMARK    1  A    between atoms: C_2  and  O_3 
REMARK    2  A    between atoms: C_4  and  C_5 
REMARK    3  A    between atoms: C_5  and  O_6 
REMARK    4  A    between atoms: C_9  and  C_10 
REMARK    5  A    between atoms: C_22  and  O_23 
ROOT
HETATM    1  C   UNL     1      40.247 -14.920   4.226  1.00  0.00     0.047 C 
HETATM    2  C   UNL     1      41.232 -16.006   4.691  1.00  0.00     0.073 C 
HETATM    3  C   UNL     1      42.585 -15.946   3.907  1.00  0.00     0.133 C 
HETATM    4  C   UNL     1      43.755 -16.821   4.447  1.00  0.00     0.074 C 
HETATM    5  C   UNL     1      43.638 -17.083   5.907  1.00  0.00     0.030 A 
HETATM    6  C   UNL     1      42.565 -16.696   6.682  1.00  0.00     0.042 A 
HETATM    7  N   UNL     1      42.846 -17.071   7.965  1.00  0.00    -0.279 N 
HETATM    8  H   UNL     1      42.290 -16.933   8.804  1.00  0.00     0.189 HD
HETATM    9  N   UNL     1      44.045 -17.680   8.080  1.00  0.00    -0.149 NA
HETATM   10  C   UNL     1      44.510 -17.649   6.840  1.00  0.00     0.190 A 
HETATM   11  C   UNL     1      41.368 -15.939   6.239  1.00  0.00     0.097 C 
ENDROOT
BRANCH   4  12
HETATM   12  C   UNL     1      43.889 -18.161   3.725  1.00  0.00    -0.048 A 
HETATM   13  C   UNL     1      43.510 -18.216   2.369  1.00  0.00     0.009 A 
HETATM   14  C   UNL     1      43.596 -19.406   1.640  1.00  0.00     0.024 A 
HETATM   15  C   UNL     1      44.052 -20.564   2.259  1.00  0.00     0.034 A 
HETATM   16 CL   UNL     1      44.161 -22.029   1.364  1.00  0.00    -0.084 Cl
HETATM   17  C   UNL     1      44.425 -20.541   3.599  1.00  0.00     0.024 A 
HETATM   18  C   UNL     1      44.346 -19.348   4.326  1.00  0.00     0.009 A 
ENDBRANCH   4  12
BRANCH   3  19
HETATM   19  C   UNL     1      43.094 -14.520   3.859  1.00  0.00     0.266 C 
HETATM   20  O   UNL     1      43.351 -13.835   4.839  1.00  0.00    -0.265 OA
BRANCH  19  21
HETATM   21  O   UNL     1      43.221 -14.109   2.566  1.00  0.00    -0.326 OA
HETATM   22  C   UNL     1      42.419 -12.976   2.227  1.00  0.00     0.213 C 
ENDBRANCH  19  21
ENDBRANCH   3  19
BRANCH   2  23
HETATM   23  O   UNL     1      40.569 -17.240   4.342  1.00  0.00    -0.389 OA
HETATM   24  H   UNL     1      39.661 -17.027   4.070  1.00  0.00     0.210 HD
ENDBRANCH   2  23
BRANCH  10  25
HETATM   25  O   UNL     1      45.728 -18.151   6.673  1.00  0.00    -0.343 OA
HETATM   26  H   UNL     1      46.323 -17.389   6.777  1.00  0.00     0.219 HD
ENDBRANCH  10  25
TORSDOF 5
ENDMDL
MODEL 2
REMARK VINA RESULT:      -7.6      3.112      4.372
REMARK  5 active torsions:
REMARK  status: ('A' for Active; 'I' for Inactive)
REMARK    1  A    between atoms: C_2  and  O_3 
REMARK    2  A    between atoms: C_4  and  C_5 
REMARK    3  A    between atoms: C_5  and  O_6 
REMARK    4  A    between atoms: C_9  and  C_10 
REMARK    5  A    between atoms: C_22  and  O_23 
ROOT
HETATM    1  C   UNL     1      37.931 -14.306   0.865  1.00  0.00     0.047 C 
HETATM    2  C   UNL     1      39.205 -14.523   1.702  1.00  0.00     0.073 C 
HETATM    3  C   UNL     1      40.459 -14.783   0.804  1.00  0.00     0.133 C 
HETATM    4  C   UNL     1      41.849 -14.769   1.507  1.00  0.00     0.074 C 
HETATM    5  C   UNL     1      41.851 -13.928   2.736  1.00  0.00     0.030 A 
HETATM    6  C   UNL     1      40.732 -13.319   3.262  1.00  0.00     0.042 A 
HETATM    7  N   UNL     1      41.144 -12.604   4.351  1.00  0.00    -0.279 N 
HETATM    8  H   UNL     1      40.593 -12.020   4.973  1.00  0.00     0.189 HD
HETATM    9  N   UNL     1      42.471 -12.707   4.571  1.00  0.00    -0.149 NA
HETATM   10  C   UNL     1      42.875 -13.481   3.574  1.00  0.00     0.190 A 
HETATM   11  C   UNL     1      39.355 -13.349   2.712  1.00  0.00     0.097 C 
ENDROOT
BRANCH   4  12
HETATM   12  C   UNL     1      42.353 -16.163   1.875  1.00  0.00    -0.048 A 
HETATM   13  C   UNL     1      43.172 -16.831   0.944  1.00  0.00     0.009 A 
HETATM   14  C   UNL     1      43.669 -18.112   1.202  1.00  0.00     0.024 A 
HETATM   15  C   UNL     1      43.344 -18.751   2.393  1.00  0.00     0.034 A 
HETATM   16 CL   UNL     1      43.955 -20.327   2.715  1.00  0.00    -0.084 Cl
HETATM   17  C   UNL     1      42.531 -18.119   3.328  1.00  0.00     0.024 A 
HETATM   18  C   UNL     1      42.041 -16.834   3.072  1.00  0.00     0.009 A 
ENDBRANCH   4  12
BRANCH   3  19
HETATM   19  C   UNL     1      40.524 -13.757  -0.309  1.00  0.00     0.266 C 
HETATM   20  O   UNL     1      40.872 -12.593  -0.169  1.00  0.00    -0.265 OA
BRANCH  19  21
HETATM   21  O   UNL     1      40.133 -14.317  -1.489  1.00  0.00    -0.326 OA
HETATM   22  C   UNL     1      40.941 -15.416  -1.914  1.00  0.00     0.213 C 
ENDBRANCH  19  21
ENDBRANCH   3  19
BRANCH   2  23
HETATM   23  O   UNL     1      38.926 -15.730   2.441  1.00  0.00    -0.389 OA
HETATM   24  H   UNL     1      38.799 -16.452   1.802  1.00  0.00     0.210 HD
ENDBRANCH   2  23
BRANCH  10  25
HETATM   25  O   UNL     1      44.182 -13.708   3.520  1.00  0.00    -0.343 OA
HETATM   26  H   UNL     1      44.440 -13.878   4.442  1.00  0.00     0.219 HD
ENDBRANCH  10  25
TORSDOF 5
ENDMDL
MODEL 3
REMARK VINA RESULT:      -7.5      3.665      5.298
REMARK  5 active torsions:
REMARK  status: ('A' for Active; 'I' for Inactive)
REMARK    1  A    between atoms: C_2  and  O_3 
REMARK    2  A    between atoms: C_4  and  C_5 
REMARK    3  A    between atoms: C_5  and  O_6 
REMARK    4  A    between atoms: C_9  and  C_10 
REMARK    5  A    between atoms: C_22  and  O_23 
ROOT
HETATM    1  C   UNL     1      42.113 -12.252   4.337  1.00  0.00     0.047 C 
HETATM    2  C   UNL     1      42.262 -13.254   3.179  1.00  0.00     0.073 C 
HETATM    3  C   UNL     1      41.383 -14.531   3.392  1.00  0.00     0.133 C 
HETATM    4  C   UNL     1      41.246 -15.506   2.185  1.00  0.00     0.074 C 
HETATM    5  C   UNL     1      41.429 -14.817   0.878  1.00  0.00     0.030 A 
HETATM    6  C   UNL     1      41.788 -13.493   0.743  1.00  0.00     0.042 A 
HETATM    7  N   UNL     1      41.807 -13.222  -0.597  1.00  0.00    -0.279 N 
HETATM    8  H   UNL     1      42.013 -12.344  -1.064  1.00  0.00     0.189 HD
HETATM    9  N   UNL     1      41.477 -14.291  -1.350  1.00  0.00    -0.149 NA
HETATM   10  C   UNL     1      41.229 -15.224  -0.442  1.00  0.00     0.190 A 
HETATM   11  C   UNL     1      42.025 -12.514   1.832  1.00  0.00     0.097 C 
ENDROOT
BRANCH   4  12
HETATM   12  C   UNL     1      42.216 -16.685   2.249  1.00  0.00    -0.048 A 
HETATM   13  C   UNL     1      41.954 -17.700   3.190  1.00  0.00     0.009 A 
HETATM   14  C   UNL     1      42.797 -18.808   3.316  1.00  0.00     0.024 A 
HETATM   15  C   UNL     1      43.924 -18.913   2.509  1.00  0.00     0.034 A 
HETATM   16 CL   UNL     1      44.963 -20.277   2.660  1.00  0.00    -0.084 Cl
HETATM   17  C   UNL     1      44.212 -17.923   1.576  1.00  0.00     0.024 A 
HETATM   18  C   UNL     1      43.363 -16.817   1.446  1.00  0.00     0.009 A 
ENDBRANCH   4  12
BRANCH   3  19
HETATM   19  C   UNL     1      39.977 -14.133   3.791  1.00  0.00     0.266 C 
HETATM   20  O   UNL     1      39.118 -13.727   3.020  1.00  0.00    -0.265 OA
BRANCH  19  21
HETATM   21  O   UNL     1      39.807 -14.289   5.134  1.00  0.00    -0.326 OA
HETATM   22  C   UNL     1      40.539 -15.379   5.698  1.00  0.00     0.213 C 
ENDBRANCH  19  21
ENDBRANCH   3  19
BRANCH   2  23
HETATM   23  O   UNL     1      43.648 -13.651   3.246  1.00  0.00    -0.389 OA
HETATM   24  H   UNL     1      44.103 -13.051   3.861  1.00  0.00     0.210 HD
ENDBRANCH   2  23
BRANCH  10  25
HETATM   25  O   UNL     1      40.824 -16.395  -0.921  1.00  0.00    -0.343 OA
HETATM   26  H   UNL     1      40.450 -16.859  -0.152  1.00  0.00     0.219 HD
ENDBRANCH  10  25
TORSDOF 5
ENDMDL
MODEL 4
REMARK VINA RESULT:      -7.1      4.490      6.593
REMARK  5 active torsions:
REMARK  status: ('A' for Active; 'I' for Inactive)
REMARK    1  A    between atoms: C_2  and  O_3 
REMARK    2  A    between atoms: C_4  and  C_5 
REMARK    3  A    between atoms: C_5  and  O_6 
REMARK    4  A    between atoms: C_9  and  C_10 
REMARK    5  A    between atoms: C_22  and  O_23 
ROOT
HETATM    1  C   UNL     1      41.868 -12.918  -3.258  1.00  0.00     0.047 C 
HETATM    2  C   UNL     1      41.307 -13.676  -2.042  1.00  0.00     0.073 C 
HETATM    3  C   UNL     1      42.035 -13.278  -0.715  1.00  0.00     0.133 C 
HETATM    4  C   UNL     1      41.404 -13.780   0.617  1.00  0.00     0.074 C 
HETATM    5  C   UNL     1      39.937 -14.008   0.497  1.00  0.00     0.030 A 
HETATM    6  C   UNL     1      39.229 -13.899  -0.681  1.00  0.00     0.042 A 
HETATM    7  N   UNL     1      37.917 -14.133  -0.379  1.00  0.00    -0.279 N 
HETATM    8  H   UNL     1      37.111 -14.121  -0.996  1.00  0.00     0.189 HD
HETATM    9  N   UNL     1      37.721 -14.387   0.932  1.00  0.00    -0.149 NA
HETATM   10  C   UNL     1      38.942 -14.278   1.437  1.00  0.00     0.190 A 
HETATM   11  C   UNL     1      39.760 -13.515  -2.012  1.00  0.00     0.097 C 
ENDROOT
BRANCH   4  12
HETATM   12  C   UNL     1      42.049 -15.059   1.148  1.00  0.00    -0.048 A 
HETATM   13  C   UNL     1      42.816 -14.967   2.326  1.00  0.00     0.009 A 
HETATM   14  C   UNL     1      43.445 -16.089   2.872  1.00  0.00     0.024 A 
HETATM   15  C   UNL     1      43.327 -17.322   2.241  1.00  0.00     0.034 A 
HETATM   16 CL   UNL     1      44.098 -18.706   2.911  1.00  0.00    -0.084 Cl
HETATM   17  C   UNL     1      42.583 -17.442   1.071  1.00  0.00     0.024 A 
HETATM   18  C   UNL     1      41.947 -16.318   0.530  1.00  0.00     0.009 A 
ENDBRANCH   4  12
BRANCH   3  19
HETATM   19  C   UNL     1      42.136 -11.770  -0.610  1.00  0.00     0.266 C 
HETATM   20  O   UNL     1      41.191 -11.018  -0.417  1.00  0.00    -0.265 OA
BRANCH  19  21
HETATM   21  O   UNL     1      43.430 -11.373  -0.764  1.00  0.00    -0.326 OA
HETATM   22  C   UNL     1      43.582 -10.029  -1.225  1.00  0.00     0.213 C 
ENDBRANCH  19  21
ENDBRANCH   3  19
BRANCH   2  23
HETATM   23  O   UNL     1      41.619 -15.055  -2.326  1.00  0.00    -0.389 OA
HETATM   24  H   UNL     1      41.258 -15.601  -1.607  1.00  0.00     0.210 HD
ENDBRANCH   2  23
BRANCH  10  25
HETATM   25  O   UNL     1      39.031 -14.435   2.753  1.00  0.00    -0.343 OA
HETATM   26  H   UNL     1      39.878 -14.021   2.992  1.00  0.00     0.219 HD
ENDBRANCH  10  25
TORSDOF 5
ENDMDL
MODEL 5
REMARK VINA RESULT:      -6.9      3.806      5.796
REMARK  5 active torsions:
REMARK  status: ('A' for Active; 'I' for Inactive)
REMARK    1  A    between atoms: C_2  and  O_3 
REMARK    2  A    between atoms: C_4  and  C_5 
REMARK    3  A    between atoms: C_5  and  O_6 
REMARK    4  A    between atoms: C_9  and  C_10 
REMARK    5  A    between atoms: C_22  and  O_23 
ROOT
HETATM    1  C   UNL     1      41.361 -10.524   5.053  1.00  0.00     0.047 C 
HETATM    2  C   UNL     1      41.227 -11.855   4.293  1.00  0.00     0.073 C 
HETATM    3  C   UNL     1      40.543 -12.961   5.163  1.00  0.00     0.133 C 
HETATM    4  C   UNL     1      40.121 -14.272   4.437  1.00  0.00     0.074 C 
HETATM    5  C   UNL     1      39.856 -14.056   2.988  1.00  0.00     0.030 A 
HETATM    6  C   UNL     1      40.064 -12.862   2.331  1.00  0.00     0.042 A 
HETATM    7  N   UNL     1      39.663 -13.045   1.038  1.00  0.00    -0.279 N 
HETATM    8  H   UNL     1      39.658 -12.377   0.273  1.00  0.00     0.189 HD
HETATM    9  N   UNL     1      39.199 -14.291   0.807  1.00  0.00    -0.149 NA
HETATM   10  C   UNL     1      39.299 -14.866   1.997  1.00  0.00     0.190 A 
HETATM   11  C   UNL     1      40.547 -11.588   2.920  1.00  0.00     0.097 C 
ENDROOT
BRANCH   4  12
HETATM   12  C   UNL     1      41.145 -15.397   4.577  1.00  0.00    -0.048 A 
HETATM   13  C   UNL     1      40.963 -16.323   5.624  1.00  0.00     0.009 A 
HETATM   14  C   UNL     1      41.860 -17.376   5.825  1.00  0.00     0.024 A 
HETATM   15  C   UNL     1      42.961 -17.514   4.988  1.00  0.00     0.034 A 
HETATM   16 CL   UNL     1      44.066 -18.811   5.230  1.00  0.00    -0.084 Cl
HETATM   17  C   UNL     1      43.170 -16.611   3.951  1.00  0.00     0.024 A 
HETATM   18  C   UNL     1      42.267 -15.561   3.746  1.00  0.00     0.009 A 
ENDBRANCH   4  12
BRANCH   3  19
HETATM   19  C   UNL     1      39.296 -12.407   5.822  1.00  0.00     0.266 C 
HETATM   20  O   UNL     1      38.401 -11.812   5.238  1.00  0.00    -0.265 OA
BRANCH  19  21
HETATM   21  O   UNL     1      39.317 -12.663   7.160  1.00  0.00    -0.326 OA
HETATM   22  C   UNL     1      39.422 -11.498   7.981  1.00  0.00     0.213 C 
ENDBRANCH  19  21
ENDBRANCH   3  19
BRANCH   2  23
HETATM   23  O   UNL     1      42.594 -12.253   4.058  1.00  0.00    -0.389 OA
HETATM   24  H   UNL     1      42.873 -11.883   3.204  1.00  0.00     0.210 HD
ENDBRANCH   2  23
BRANCH  10  25
HETATM   25  O   UNL     1      38.852 -16.115   2.067  1.00  0.00    -0.343 OA
HETATM   26  H   UNL     1      39.427 -16.544   2.723  1.00  0.00     0.219 HD
ENDBRANCH  10  25
TORSDOF 5
ENDMDL
MODEL 6
REMARK VINA RESULT:      -6.7      5.269      7.310
REMARK  5 active torsions:
REMARK  status: ('A' for Active; 'I' for Inactive)
REMARK    1  A    between atoms: C_2  and  O_3 
REMARK    2  A    between atoms: C_4  and  C_5 
REMARK    3  A    between atoms: C_5  and  O_6 
REMARK    4  A    between atoms: C_9  and  C_10 
REMARK    5  A    between atoms: C_22  and  O_23 
ROOT
HETATM    1  C   UNL     1      41.064 -10.585   0.598  1.00  0.00     0.047 C 
HETATM    2  C   UNL     1      41.290 -12.006   0.053  1.00  0.00     0.073 C 
HETATM    3  C   UNL     1      40.176 -12.999   0.523  1.00  0.00     0.133 C 
HETATM    4  C   UNL     1      40.145 -14.401  -0.155  1.00  0.00     0.074 C 
HETATM    5  C   UNL     1      40.732 -14.380  -1.523  1.00  0.00     0.030 A 
HETATM    6  C   UNL     1      41.338 -13.279  -2.091  1.00  0.00     0.042 A 
HETATM    7  N   UNL     1      41.702 -13.636  -3.358  1.00  0.00    -0.279 N 
HETATM    8  H   UNL     1      42.158 -13.073  -4.071  1.00  0.00     0.189 HD
HETATM    9  N   UNL     1      41.368 -14.908  -3.658  1.00  0.00    -0.149 NA
HETATM   10  C   UNL     1      40.764 -15.321  -2.554  1.00  0.00     0.190 A 
HETATM   11  C   UNL     1      41.493 -11.932  -1.488  1.00  0.00     0.097 C 
ENDROOT
BRANCH   4  12
HETATM   12  C   UNL     1      40.855 -15.482   0.659  1.00  0.00    -0.048 A 
HETATM   13  C   UNL     1      40.174 -16.020   1.769  1.00  0.00     0.009 A 
HETATM   14  C   UNL     1      40.757 -17.007   2.568  1.00  0.00     0.024 A 
HETATM   15  C   UNL     1      42.037 -17.464   2.277  1.00  0.00     0.034 A 
HETATM   16 CL   UNL     1      42.758 -18.681   3.257  1.00  0.00    -0.084 Cl
HETATM   17  C   UNL     1      42.737 -16.945   1.192  1.00  0.00     0.024 A 
HETATM   18  C   UNL     1      42.148 -15.962   0.387  1.00  0.00     0.009 A 
ENDBRANCH   4  12
BRANCH   3  19
HETATM   19  C   UNL     1      38.808 -12.383   0.314  1.00  0.00     0.266 C 
HETATM   20  O   UNL     1      38.347 -12.053  -0.770  1.00  0.00    -0.265 OA
BRANCH  19  21
HETATM   21  O   UNL     1      38.166 -12.245   1.508  1.00  0.00    -0.326 OA
HETATM   22  C   UNL     1      37.381 -11.057   1.621  1.00  0.00     0.213 C 
ENDBRANCH  19  21
ENDBRANCH   3  19
BRANCH   2  23
HETATM   23  O   UNL     1      42.535 -12.411   0.660  1.00  0.00    -0.389 OA
HETATM   24  H   UNL     1      42.591 -13.380   0.615  1.00  0.00     0.210 HD
ENDBRANCH   2  23
BRANCH  10  25
HETATM   25  O   UNL     1      40.278 -16.556  -2.595  1.00  0.00    -0.343 OA
HETATM   26  H   UNL     1      40.262 -16.782  -3.541  1.00  0.00     0.219 HD
ENDBRANCH  10  25
TORSDOF 5
ENDMDL
MODEL 7
REMARK VINA RESULT:      -6.6      4.969      7.469
REMARK  5 active torsions:
REMARK  status: ('A' for Active; 'I' for Inactive)
REMARK    1  A    between atoms: C_2  and  O_3 
REMARK    2  A    between atoms: C_4  and  C_5 
REMARK    3  A    between atoms: C_5  and  O_6 
REMARK    4  A    between atoms: C_9  and  C_10 
REMARK    5  A    between atoms: C_22  and  O_23 
ROOT
HETATM    1  C   UNL     1      43.305 -14.377   3.348  1.00  0.00     0.047 C 
HETATM    2  C   UNL     1      42.271 -13.930   2.299  1.00  0.00     0.073 C 
HETATM    3  C   UNL     1      42.292 -14.844   1.029  1.00  0.00     0.133 C 
HETATM    4  C   UNL     1      41.133 -14.659   0.004  1.00  0.00     0.074 C 
HETATM    5  C   UNL     1      39.896 -14.128   0.640  1.00  0.00     0.030 A 
HETATM    6  C   UNL     1      39.809 -13.736   1.959  1.00  0.00     0.042 A 
HETATM    7  N   UNL     1      38.514 -13.357   2.176  1.00  0.00    -0.279 N 
HETATM    8  H   UNL     1      38.083 -13.026   3.034  1.00  0.00     0.189 HD
HETATM    9  N   UNL     1      37.743 -13.480   1.075  1.00  0.00    -0.149 NA
HETATM   10  C   UNL     1      38.588 -13.970   0.179  1.00  0.00     0.190 A 
HETATM   11  C   UNL     1      40.881 -13.792   2.983  1.00  0.00     0.097 C 
ENDROOT
BRANCH   4  12
HETATM   12  C   UNL     1      41.502 -13.750  -1.167  1.00  0.00    -0.048 A 
HETATM   13  C   UNL     1      41.198 -14.201  -2.467  1.00  0.00     0.009 A 
HETATM   14  C   UNL     1      41.510 -13.432  -3.592  1.00  0.00     0.024 A 
HETATM   15  C   UNL     1      42.142 -12.204  -3.436  1.00  0.00     0.034 A 
HETATM   16 CL   UNL     1      42.525 -11.254  -4.818  1.00  0.00    -0.084 Cl
HETATM   17  C   UNL     1      42.461 -11.737  -2.165  1.00  0.00     0.024 A 
HETATM   18  C   UNL     1      42.142 -12.504  -1.038  1.00  0.00     0.009 A 
ENDBRANCH   4  12
BRANCH   3  19
HETATM   19  C   UNL     1      42.283 -16.303   1.438  1.00  0.00     0.266 C 
HETATM   20  O   UNL     1      41.390 -16.847   2.071  1.00  0.00    -0.265 OA
BRANCH  19  21
HETATM   21  O   UNL     1      43.417 -16.920   1.002  1.00  0.00    -0.326 OA
HETATM   22  C   UNL     1      44.028 -17.779   1.967  1.00  0.00     0.213 C 
ENDBRANCH  19  21
ENDBRANCH   3  19
BRANCH   2  23
HETATM   23  O   UNL     1      42.723 -12.616   1.911  1.00  0.00    -0.389 OA
HETATM   24  H   UNL     1      43.480 -12.724   1.309  1.00  0.00     0.210 HD
ENDBRANCH   2  23
BRANCH  10  25
HETATM   25  O   UNL     1      38.065 -14.240  -1.012  1.00  0.00    -0.343 OA
HETATM   26  H   UNL     1      38.247 -15.186  -1.150  1.00  0.00     0.219 HD
ENDBRANCH  10  25
TORSDOF 5
ENDMDL
MODEL 8
REMARK VINA RESULT:      -6.5      6.143      8.857
REMARK  5 active torsions:
REMARK  status: ('A' for Active; 'I' for Inactive)
REMARK    1  A    between atoms: C_2  and  O_3 
REMARK    2  A    between atoms: C_4  and  C_5 
REMARK    3  A    between atoms: C_5  and  O_6 
REMARK    4  A    between atoms: C_9  and  C_10 
REMARK    5  A    between atoms: C_22  and  O_23 
ROOT
HETATM    1  C   UNL     1      39.439 -12.997   2.405  1.00  0.00     0.047 C 
HETATM    2  C   UNL     1      39.826 -12.946   0.917  1.00  0.00     0.073 C 
HETATM    3  C   UNL     1      41.366 -12.756   0.718  1.00  0.00     0.133 C 
HETATM    4  C   UNL     1      41.922 -12.938  -0.726  1.00  0.00     0.074 C 
HETATM    5  C   UNL     1      41.070 -13.841  -1.549  1.00  0.00     0.030 A 
HETATM    6  C   UNL     1      39.869 -14.370  -1.129  1.00  0.00     0.042 A 
HETATM    7  N   UNL     1      39.417 -15.178  -2.135  1.00  0.00    -0.279 N 
HETATM    8  H   UNL     1      38.573 -15.741  -2.167  1.00  0.00     0.189 HD
HETATM    9  N   UNL     1      40.256 -15.212  -3.192  1.00  0.00    -0.149 NA
HETATM   10  C   UNL     1      41.249 -14.426  -2.804  1.00  0.00     0.190 A 
HETATM   11  C   UNL     1      39.220 -14.182   0.192  1.00  0.00     0.097 C 
ENDROOT
BRANCH   4  12
HETATM   12  C   UNL     1      42.094 -11.619  -1.478  1.00  0.00    -0.048 A 
HETATM   13  C   UNL     1      43.262 -10.871  -1.230  1.00  0.00     0.009 A 
HETATM   14  C   UNL     1      43.492  -9.651  -1.872  1.00  0.00     0.024 A 
HETATM   15  C   UNL     1      42.550  -9.153  -2.764  1.00  0.00     0.034 A 
HETATM   16 CL   UNL     1      42.830  -7.651  -3.557  1.00  0.00    -0.084 Cl
HETATM   17  C   UNL     1      41.383  -9.865  -3.022  1.00  0.00     0.024 A 
HETATM   18  C   UNL     1      41.158 -11.091  -2.385  1.00  0.00     0.009 A 
ENDBRANCH   4  12
BRANCH   3  19
HETATM   19  C   UNL     1      42.128 -13.722   1.602  1.00  0.00     0.266 C 
HETATM   20  O   UNL     1      42.051 -14.941   1.536  1.00  0.00    -0.265 OA
BRANCH  19  21
HETATM   21  O   UNL     1      42.907 -13.037   2.486  1.00  0.00    -0.326 OA
HETATM   22  C   UNL     1      43.347 -13.810   3.605  1.00  0.00     0.213 C 
ENDBRANCH  19  21
ENDBRANCH   3  19
BRANCH   2  23
HETATM   23  O   UNL     1      39.164 -11.759   0.432  1.00  0.00    -0.389 OA
HETATM   24  H   UNL     1      38.910 -11.221   1.201  1.00  0.00     0.210 HD
ENDBRANCH   2  23
BRANCH  10  25
HETATM   25  O   UNL     1      42.261 -14.320  -3.658  1.00  0.00    -0.343 OA
HETATM   26  H   UNL     1      43.010 -14.742  -3.204  1.00  0.00     0.219 HD
ENDBRANCH  10  25
TORSDOF 5
ENDMDL
MODEL 9
REMARK VINA RESULT:      -6.5      4.400      6.272
REMARK  5 active torsions:
REMARK  status: ('A' for Active; 'I' for Inactive)
REMARK    1  A    between atoms: C_2  and  O_3 
REMARK    2  A    between atoms: C_4  and  C_5 
REMARK    3  A    between atoms: C_5  and  O_6 
REMARK    4  A    between atoms: C_9  and  C_10 
REMARK    5  A    between atoms: C_22  and  O_23 
ROOT
HETATM    1  C   UNL     1      40.925 -10.538   1.226  1.00  0.00     0.047 C 
HETATM    2  C   UNL     1      41.236 -12.033   1.417  1.00  0.00     0.073 C 
HETATM    3  C   UNL     1      40.208 -12.730   2.368  1.00  0.00     0.133 C 
HETATM    4  C   UNL     1      40.258 -14.285   2.448  1.00  0.00     0.074 C 
HETATM    5  C   UNL     1      40.807 -14.897   1.207  1.00  0.00     0.030 A 
HETATM    6  C   UNL     1      41.318 -14.178   0.148  1.00  0.00     0.042 A 
HETATM    7  N   UNL     1      41.674 -15.083  -0.812  1.00  0.00    -0.279 N 
HETATM    8  H   UNL     1      42.070 -14.912  -1.732  1.00  0.00     0.189 HD
HETATM    9  N   UNL     1      41.422 -16.357  -0.446  1.00  0.00    -0.149 NA
HETATM   10  C   UNL     1      40.878 -16.216   0.754  1.00  0.00     0.190 A 
HETATM   11  C   UNL     1      41.393 -12.701   0.021  1.00  0.00     0.097 C 
ENDROOT
BRANCH   4  12
HETATM   12  C   UNL     1      41.064 -14.803   3.639  1.00  0.00    -0.048 A 
HETATM   13  C   UNL     1      40.373 -15.043   4.843  1.00  0.00     0.009 A 
HETATM   14  C   UNL     1      41.039 -15.510   5.980  1.00  0.00     0.024 A 
HETATM   15  C   UNL     1      42.410 -15.734   5.934  1.00  0.00     0.034 A 
HETATM   16 CL   UNL     1      43.232 -16.312   7.331  1.00  0.00    -0.084 Cl
HETATM   17  C   UNL     1      43.119 -15.498   4.761  1.00  0.00     0.024 A 
HETATM   18  C   UNL     1      42.450 -15.037   3.621  1.00  0.00     0.009 A 
ENDBRANCH   4  12
BRANCH   3  19
HETATM   19  C   UNL     1      38.795 -12.359   1.967  1.00  0.00     0.266 C 
HETATM   20  O   UNL     1      38.213 -12.786   0.980  1.00  0.00    -0.265 OA
BRANCH  19  21
HETATM   21  O   UNL     1      38.267 -11.479   2.864  1.00  0.00    -0.326 OA
HETATM   22  C   UNL     1      38.805 -11.588   4.183  1.00  0.00     0.213 C 
ENDBRANCH  19  21
ENDBRANCH   3  19
BRANCH   2  23
HETATM   23  O   UNL     1      42.522 -12.033   2.072  1.00  0.00    -0.389 OA
HETATM   24  H   UNL     1      42.489 -11.388   2.799  1.00  0.00     0.210 HD
ENDBRANCH   2  23
BRANCH  10  25
HETATM   25  O   UNL     1      40.480 -17.340   1.338  1.00  0.00    -0.343 OA
HETATM   26  H   UNL     1      41.091 -18.019   1.004  1.00  0.00     0.219 HD
ENDBRANCH  10  25
TORSDOF 5
ENDMDL
MODEL 10
REMARK VINA RESULT:      -6.4      3.336      5.004
REMARK  5 active torsions:
REMARK  status: ('A' for Active; 'I' for Inactive)
REMARK    1  A    between atoms: C_2  and  O_3 
REMARK    2  A    between atoms: C_4  and  C_5 
REMARK    3  A    between atoms: C_5  and  O_6 
REMARK    4  A    between atoms: C_9  and  C_10 
REMARK    5  A    between atoms: C_22  and  O_23 
ROOT
HETATM    1  C   UNL     1      42.099 -15.511   0.377  1.00  0.00     0.047 C 
HETATM    2  C   UNL     1      42.744 -16.124   1.632  1.00  0.00     0.073 C 
HETATM    3  C   UNL     1      41.805 -16.028   2.880  1.00  0.00     0.133 C 
HETATM    4  C   UNL     1      42.228 -16.829   4.147  1.00  0.00     0.074 C 
HETATM    5  C   UNL     1      43.070 -18.011   3.814  1.00  0.00     0.030 A 
HETATM    6  C   UNL     1      43.522 -18.309   2.546  1.00  0.00     0.042 A 
HETATM    7  N   UNL     1      44.214 -19.484   2.637  1.00  0.00    -0.279 N 
HETATM    8  H   UNL     1      44.672 -20.010   1.899  1.00  0.00     0.189 HD
HETATM    9  N   UNL     1      44.240 -19.977   3.893  1.00  0.00    -0.149 NA
HETATM   10  C   UNL     1      43.525 -19.092   4.571  1.00  0.00     0.190 A 
HETATM   11  C   UNL     1      43.244 -17.558   1.297  1.00  0.00     0.097 C 
ENDROOT
BRANCH   4  12
HETATM   12  C   UNL     1      42.974 -15.981   5.177  1.00  0.00    -0.048 A 
HETATM   13  C   UNL     1      43.397 -14.695   4.784  1.00  0.00     0.009 A 
HETATM   14  C   UNL     1      44.091 -13.860   5.664  1.00  0.00     0.024 A 
HETATM   15  C   UNL     1      44.383 -14.301   6.949  1.00  0.00     0.034 A 
HETATM   16 CL   UNL     1      45.235 -13.275   8.036  1.00  0.00    -0.084 Cl
HETATM   17  C   UNL     1      43.984 -15.568   7.362  1.00  0.00     0.024 A 
HETATM   18  C   UNL     1      43.283 -16.401   6.483  1.00  0.00     0.009 A 
ENDBRANCH   4  12
BRANCH   3  19
HETATM   19  C   UNL     1      40.409 -16.493   2.517  1.00  0.00     0.266 C 
HETATM   20  O   UNL     1      40.142 -17.569   2.002  1.00  0.00    -0.265 OA
BRANCH  19  21
HETATM   21  O   UNL     1      39.495 -15.537   2.844  1.00  0.00    -0.326 OA
HETATM   22  C   UNL     1      38.790 -14.991   1.728  1.00  0.00     0.213 C 
ENDBRANCH  19  21
ENDBRANCH   3  19
BRANCH   2  23
HETATM   23  O   UNL     1      43.891 -15.283   1.872  1.00  0.00    -0.389 OA
HETATM   24  H   UNL     1      43.904 -15.053   2.816  1.00  0.00     0.210 HD
ENDBRANCH   2  23
BRANCH  10  25
HETATM   25  O   UNL     1      43.345 -19.368   5.858  1.00  0.00    -0.343 OA
HETATM   26  H   UNL     1      42.396 -19.218   6.010  1.00  0.00     0.219 HD
ENDBRANCH  10  25
TORSDOF 5
ENDMDL
