MODEL 1
REMARK VINA RESULT:      -9.2      0.000      0.000
REMARK  6 active torsions:
REMARK  status: ('A' for Active; 'I' for Inactive)
REMARK    1  A    between atoms: C_3  and  C_4 
REMARK    2  A    between atoms: C_4  and  C_5 
REMARK    3  A    between atoms: N_8  and  C_10 
REMARK    4  A    between atoms: C_10  and  C_11 
REMARK    5  A    between atoms: N_24  and  C_25 
REMARK    6  A    between atoms: C_25  and  C_26 
ROOT
HETATM    1  C   UNL     1      41.346 -14.624   5.036  1.00  0.00     0.149 C 
HETATM    2  N   UNL     1      42.779 -14.525   4.790  1.00  0.00    -0.220 NA
HETATM    3  C   UNL     1      43.055 -14.307   3.463  1.00  0.00     0.304 C 
HETATM    4  O   UNL     1      44.167 -14.024   3.056  1.00  0.00    -0.253 OA
HETATM    5  N   UNL     1      41.922 -14.488   2.743  1.00  0.00    -0.270 N 
HETATM    6  C   UNL     1      40.843 -14.595   3.575  1.00  0.00     0.257 C 
HETATM    7  O   UNL     1      39.674 -14.706   3.232  1.00  0.00    -0.270 OA
HETATM    8  H   UNL     1      43.330 -13.942   5.419  1.00  0.00     0.134 HD
ENDROOT
BRANCH   1   9
HETATM    9  C   UNL     1      40.923 -13.404   5.851  1.00  0.00     0.067 A 
HETATM   10  C   UNL     1      39.633 -13.223   6.341  1.00  0.00     0.030 A 
HETATM   11  C   UNL     1      39.352 -12.081   7.086  1.00  0.00     0.003 A 
HETATM   12  C   UNL     1      40.359 -11.155   7.337  1.00  0.00     0.019 A 
HETATM   13  C   UNL     1      41.621 -11.411   6.837  1.00  0.00     0.117 A 
HETATM   14  N   UNL     1      41.928 -12.511   6.112  1.00  0.00    -0.263 NA
ENDBRANCH   1   9
BRANCH   1  15
HETATM   15  C   UNL     1      40.939 -15.963   5.747  1.00  0.00     0.028 C 
HETATM   16  C   UNL     1      41.930 -16.451   6.817  1.00  0.00     0.035 C 
HETATM   17  C   UNL     1      43.237 -16.984   6.248  1.00  0.00     0.235 C 
HETATM   18  N   UNL     1      43.008 -18.030   5.180  1.00  0.00    -0.067 N 
HETATM   19  H   UNL     1      42.735 -18.897   5.666  1.00  0.00     0.280 HD
HETATM   20  C   UNL     1      41.925 -17.727   4.167  1.00  0.00     0.235 C 
HETATM   21  C   UNL     1      40.676 -17.166   4.821  1.00  0.00     0.035 C 
BRANCH  18  22
HETATM   22  C   UNL     1      44.294 -18.356   4.418  1.00  0.00     0.278 C 
BRANCH  22  23
HETATM   23  C   UNL     1      44.314 -19.676   3.708  1.00  0.00     0.028 A 
HETATM   24  C   UNL     1      44.042 -19.825   2.339  1.00  0.00     0.045 A 
HETATM   25 CL   UNL     1      43.711 -18.470   1.323  1.00  0.00    -0.084 Cl
HETATM   26  C   UNL     1      44.056 -21.090   1.743  1.00  0.00     0.024 A 
HETATM   27  C   UNL     1      44.343 -22.222   2.505  1.00  0.00     0.005 A 
HETATM   28  C   UNL     1      44.625 -22.089   3.862  1.00  0.00     0.043 A 
HETATM   29  C   UNL     1      44.609 -20.827   4.444  1.00  0.00     0.126 A 
HETATM   30  F   UNL     1      44.911 -20.701   5.745  1.00  0.00    -0.205 F 
ENDBRANCH  22  23
ENDBRANCH  18  22
ENDBRANCH   1  15
BRANCH   5  31
HETATM   31  C   UNL     1      41.883 -14.526   1.290  1.00  0.00     0.168 C 
BRANCH  31  32
HETATM   32  C   UNL     1      41.372 -13.195   0.708  1.00  0.00     0.140 C 
HETATM   33  O   UNL     1      42.473 -12.252   0.615  1.00  0.00    -0.384 OA
HETATM   34  C   UNL     1      42.535 -11.785  -0.742  1.00  0.00     0.168 C 
HETATM   35  C   UNL     1      41.906 -12.868  -1.584  1.00  0.00     0.029 C 
HETATM   36  C   UNL     1      40.791 -13.348  -0.692  1.00  0.00     0.036 C 
ENDBRANCH  31  32
ENDBRANCH   5  31
TORSDOF 6
ENDMDL
MODEL 2
REMARK VINA RESULT:      -9.0      2.452      5.004
REMARK  6 active torsions:
REMARK  status: ('A' for Active; 'I' for Inactive)
REMARK    1  A    between atoms: C_3  and  C_4 
REMARK    2  A    between atoms: C_4  and  C_5 
REMARK    3  A    between atoms: N_8  and  C_10 
REMARK    4  A    between atoms: C_10  and  C_11 
REMARK    5  A    between atoms: N_24  and  C_25 
REMARK    6  A    between atoms: C_25  and  C_26 
ROOT
HETATM    1  C   UNL     1      40.899 -15.383   1.905  1.00  0.00     0.149 C 
HETATM    2  N   UNL     1      40.343 -15.941   3.132  1.00  0.00    -0.220 NA
HETATM    3  C   UNL     1      40.760 -15.248   4.241  1.00  0.00     0.304 C 
HETATM    4  O   UNL     1      40.290 -15.430   5.350  1.00  0.00    -0.253 OA
HETATM    5  N   UNL     1      41.753 -14.400   3.884  1.00  0.00    -0.270 N 
HETATM    6  C   UNL     1      41.857 -14.339   2.522  1.00  0.00     0.257 C 
HETATM    7  O   UNL     1      42.616 -13.621   1.886  1.00  0.00    -0.270 OA
HETATM    8  H   UNL     1      39.350 -16.166   3.144  1.00  0.00     0.134 HD
ENDROOT
BRANCH   1   9
HETATM    9  C   UNL     1      39.753 -14.765   1.108  1.00  0.00     0.067 A 
HETATM   10  C   UNL     1      38.474 -14.584   1.627  1.00  0.00     0.030 A 
HETATM   11  C   UNL     1      37.500 -13.998   0.822  1.00  0.00     0.003 A 
HETATM   12  C   UNL     1      37.821 -13.597  -0.470  1.00  0.00     0.019 A 
HETATM   13  C   UNL     1      39.116 -13.791  -0.911  1.00  0.00     0.117 A 
HETATM   14  N   UNL     1      40.087 -14.354  -0.154  1.00  0.00    -0.263 NA
ENDBRANCH   1   9
BRANCH   1  15
HETATM   15  C   UNL     1      41.689 -16.441   1.056  1.00  0.00     0.028 C 
HETATM   16  C   UNL     1      41.427 -17.906   1.447  1.00  0.00     0.035 C 
HETATM   17  C   UNL     1      42.043 -18.306   2.779  1.00  0.00     0.235 C 
HETATM   18  N   UNL     1      43.514 -17.962   2.852  1.00  0.00    -0.067 N 
HETATM   19  H   UNL     1      44.012 -18.662   2.284  1.00  0.00     0.280 HD
HETATM   20  C   UNL     1      43.909 -16.599   2.329  1.00  0.00     0.235 C 
HETATM   21  C   UNL     1      43.219 -16.271   1.018  1.00  0.00     0.035 C 
BRANCH  18  22
HETATM   22  C   UNL     1      44.061 -18.103   4.274  1.00  0.00     0.278 C 
BRANCH  22  23
HETATM   23  C   UNL     1      44.217 -19.507   4.778  1.00  0.00     0.028 A 
HETATM   24  C   UNL     1      43.925 -19.895   6.094  1.00  0.00     0.045 A 
HETATM   25 CL   UNL     1      43.294 -18.785   7.255  1.00  0.00    -0.084 Cl
HETATM   26  C   UNL     1      44.115 -21.219   6.505  1.00  0.00     0.024 A 
HETATM   27  C   UNL     1      44.598 -22.171   5.607  1.00  0.00     0.005 A 
HETATM   28  C   UNL     1      44.881 -21.802   4.295  1.00  0.00     0.043 A 
HETATM   29  C   UNL     1      44.688 -20.484   3.897  1.00  0.00     0.126 A 
HETATM   30  F   UNL     1      44.935 -20.141   2.624  1.00  0.00    -0.205 F 
ENDBRANCH  22  23
ENDBRANCH  18  22
ENDBRANCH   1  15
BRANCH   5  31
HETATM   31  C   UNL     1      42.558 -13.649   4.832  1.00  0.00     0.168 C 
BRANCH  31  32
HETATM   32  C   UNL     1      43.804 -14.443   5.265  1.00  0.00     0.140 C 
HETATM   33  O   UNL     1      44.920 -13.533   5.448  1.00  0.00    -0.384 OA
HETATM   34  C   UNL     1      45.438 -13.739   6.772  1.00  0.00     0.168 C 
HETATM   35  C   UNL     1      44.295 -14.296   7.585  1.00  0.00     0.029 C 
HETATM   36  C   UNL     1      43.604 -15.183   6.582  1.00  0.00     0.036 C 
ENDBRANCH  31  32
ENDBRANCH   5  31
TORSDOF 6
ENDMDL
MODEL 3
REMARK VINA RESULT:      -8.8      2.813      7.294
REMARK  6 active torsions:
REMARK  status: ('A' for Active; 'I' for Inactive)
REMARK    1  A    between atoms: C_3  and  C_4 
REMARK    2  A    between atoms: C_4  and  C_5 
REMARK    3  A    between atoms: N_8  and  C_10 
REMARK    4  A    between atoms: C_10  and  C_11 
REMARK    5  A    between atoms: N_24  and  C_25 
REMARK    6  A    between atoms: C_25  and  C_26 
ROOT
HETATM    1  C   UNL     1      42.282 -16.983   2.952  1.00  0.00     0.149 C 
HETATM    2  N   UNL     1      43.117 -15.910   2.427  1.00  0.00    -0.220 NA
HETATM    3  C   UNL     1      43.253 -14.883   3.329  1.00  0.00     0.304 C 
HETATM    4  O   UNL     1      44.038 -13.966   3.173  1.00  0.00    -0.253 OA
HETATM    5  N   UNL     1      42.375 -15.068   4.343  1.00  0.00    -0.270 N 
HETATM    6  C   UNL     1      41.814 -16.312   4.263  1.00  0.00     0.257 C 
HETATM    7  O   UNL     1      41.029 -16.805   5.062  1.00  0.00    -0.270 OA
HETATM    8  H   UNL     1      43.991 -16.167   1.972  1.00  0.00     0.134 HD
ENDROOT
BRANCH   1   9
HETATM    9  C   UNL     1      43.171 -18.204   3.173  1.00  0.00     0.067 A 
HETATM   10  C   UNL     1      43.383 -19.180   2.203  1.00  0.00     0.030 A 
HETATM   11  C   UNL     1      44.223 -20.250   2.499  1.00  0.00     0.003 A 
HETATM   12  C   UNL     1      44.841 -20.319   3.743  1.00  0.00     0.019 A 
HETATM   13  C   UNL     1      44.599 -19.305   4.649  1.00  0.00     0.117 A 
HETATM   14  N   UNL     1      43.792 -18.250   4.393  1.00  0.00    -0.263 NA
ENDBRANCH   1   9
BRANCH   1  15
HETATM   15  C   UNL     1      41.062 -17.317   2.022  1.00  0.00     0.028 C 
HETATM   16  C   UNL     1      41.349 -17.201   0.516  1.00  0.00     0.035 C 
HETATM   17  C   UNL     1      41.510 -15.768   0.029  1.00  0.00     0.235 C 
HETATM   18  N   UNL     1      40.350 -14.893   0.446  1.00  0.00    -0.067 N 
HETATM   19  H   UNL     1      39.559 -15.132  -0.170  1.00  0.00     0.280 HD
HETATM   20  C   UNL     1      39.869 -15.052   1.872  1.00  0.00     0.235 C 
HETATM   21  C   UNL     1      39.775 -16.511   2.280  1.00  0.00     0.035 C 
BRANCH  18  22
HETATM   22  C   UNL     1      40.641 -13.410   0.205  1.00  0.00     0.278 C 
BRANCH  22  23
HETATM   23  C   UNL     1      40.856 -13.010  -1.224  1.00  0.00     0.028 A 
HETATM   24  C   UNL     1      39.920 -13.243  -2.243  1.00  0.00     0.045 A 
HETATM   25 CL   UNL     1      38.387 -13.970  -1.926  1.00  0.00    -0.084 Cl
HETATM   26  C   UNL     1      40.194 -12.864  -3.561  1.00  0.00     0.024 A 
HETATM   27  C   UNL     1      41.404 -12.248  -3.879  1.00  0.00     0.005 A 
HETATM   28  C   UNL     1      42.337 -12.001  -2.876  1.00  0.00     0.043 A 
HETATM   29  C   UNL     1      42.055 -12.381  -1.569  1.00  0.00     0.126 A 
HETATM   30  F   UNL     1      42.945 -12.115  -0.602  1.00  0.00    -0.205 F 
ENDBRANCH  22  23
ENDBRANCH  18  22
ENDBRANCH   1  15
BRANCH   5  31
HETATM   31  C   UNL     1      42.109 -14.081   5.376  1.00  0.00     0.168 C 
BRANCH  31  32
HETATM   32  C   UNL     1      40.975 -13.125   4.960  1.00  0.00     0.140 C 
HETATM   33  O   UNL     1      39.708 -13.630   5.458  1.00  0.00    -0.384 OA
HETATM   34  C   UNL     1      39.091 -12.582   6.224  1.00  0.00     0.168 C 
HETATM   35  C   UNL     1      40.217 -11.698   6.702  1.00  0.00     0.029 C 
HETATM   36  C   UNL     1      41.153 -11.720   5.521  1.00  0.00     0.036 C 
ENDBRANCH  31  32
ENDBRANCH   5  31
TORSDOF 6
ENDMDL
MODEL 4
REMARK VINA RESULT:      -8.7      3.165      6.434
REMARK  6 active torsions:
REMARK  status: ('A' for Active; 'I' for Inactive)
REMARK    1  A    between atoms: C_3  and  C_4 
REMARK    2  A    between atoms: C_4  and  C_5 
REMARK    3  A    between atoms: N_8  and  C_10 
REMARK    4  A    between atoms: C_10  and  C_11 
REMARK    5  A    between atoms: N_24  and  C_25 
REMARK    6  A    between atoms: C_25  and  C_26 
ROOT
HETATM    1  C   UNL     1      42.458 -16.420   3.859  1.00  0.00     0.149 C 
HETATM    2  N   UNL     1      43.271 -15.496   3.077  1.00  0.00    -0.220 NA
HETATM    3  C   UNL     1      43.006 -14.187   3.399  1.00  0.00     0.304 C 
HETATM    4  O   UNL     1      43.682 -13.258   2.997  1.00  0.00    -0.253 OA
HETATM    5  N   UNL     1      41.898 -14.140   4.175  1.00  0.00    -0.270 N 
HETATM    6  C   UNL     1      41.545 -15.399   4.574  1.00  0.00     0.257 C 
HETATM    7  O   UNL     1      40.626 -15.688   5.329  1.00  0.00    -0.270 OA
HETATM    8  H   UNL     1      44.265 -15.697   2.987  1.00  0.00     0.134 HD
ENDROOT
BRANCH   1   9
HETATM    9  C   UNL     1      43.386 -17.178   4.804  1.00  0.00     0.067 A 
HETATM   10  C   UNL     1      43.842 -18.469   4.553  1.00  0.00     0.030 A 
HETATM   11  C   UNL     1      44.698 -19.069   5.473  1.00  0.00     0.003 A 
HETATM   12  C   UNL     1      45.089 -18.371   6.610  1.00  0.00     0.019 A 
HETATM   13  C   UNL     1      44.612 -17.087   6.784  1.00  0.00     0.117 A 
HETATM   14  N   UNL     1      43.783 -16.472   5.909  1.00  0.00    -0.263 NA
ENDBRANCH   1   9
BRANCH   1  15
HETATM   15  C   UNL     1      41.618 -17.399   2.964  1.00  0.00     0.028 C 
HETATM   16  C   UNL     1      42.312 -17.841   1.665  1.00  0.00     0.035 C 
HETATM   17  C   UNL     1      42.411 -16.743   0.616  1.00  0.00     0.235 C 
HETATM   18  N   UNL     1      41.072 -16.096   0.343  1.00  0.00    -0.067 N 
HETATM   19  H   UNL     1      40.534 -16.756  -0.237  1.00  0.00     0.280 HD
HETATM   20  C   UNL     1      40.224 -15.773   1.554  1.00  0.00     0.235 C 
HETATM   21  C   UNL     1      40.215 -16.910   2.560  1.00  0.00     0.035 C 
BRANCH  18  22
HETATM   22  C   UNL     1      41.216 -14.820  -0.489  1.00  0.00     0.278 C 
BRANCH  22  23
HETATM   23  C   UNL     1      40.170 -14.605  -1.542  1.00  0.00     0.028 A 
HETATM   24  C   UNL     1      39.051 -13.777  -1.366  1.00  0.00     0.045 A 
HETATM   25 CL   UNL     1      38.806 -12.869   0.081  1.00  0.00    -0.084 Cl
HETATM   26  C   UNL     1      38.100 -13.639  -2.383  1.00  0.00     0.024 A 
HETATM   27  C   UNL     1      38.254 -14.325  -3.587  1.00  0.00     0.005 A 
HETATM   28  C   UNL     1      39.364 -15.143  -3.779  1.00  0.00     0.043 A 
HETATM   29  C   UNL     1      40.304 -15.272  -2.763  1.00  0.00     0.126 A 
HETATM   30  F   UNL     1      41.386 -16.038  -2.964  1.00  0.00    -0.205 F 
ENDBRANCH  22  23
ENDBRANCH  18  22
ENDBRANCH   1  15
BRANCH   5  31
HETATM   31  C   UNL     1      41.219 -12.910   4.545  1.00  0.00     0.168 C 
BRANCH  31  32
HETATM   32  C   UNL     1      40.478 -12.295   3.343  1.00  0.00     0.140 C 
HETATM   33  O   UNL     1      39.051 -12.522   3.485  1.00  0.00    -0.384 OA
HETATM   34  C   UNL     1      38.394 -11.247   3.392  1.00  0.00     0.168 C 
HETATM   35  C   UNL     1      39.418 -10.220   3.811  1.00  0.00     0.029 C 
HETATM   36  C   UNL     1      40.686 -10.789   3.230  1.00  0.00     0.036 C 
ENDBRANCH  31  32
ENDBRANCH   5  31
TORSDOF 6
ENDMDL
MODEL 5
REMARK VINA RESULT:      -8.4      2.434      3.268
REMARK  6 active torsions:
REMARK  status: ('A' for Active; 'I' for Inactive)
REMARK    1  A    between atoms: C_3  and  C_4 
REMARK    2  A    between atoms: C_4  and  C_5 
REMARK    3  A    between atoms: N_8  and  C_10 
REMARK    4  A    between atoms: C_10  and  C_11 
REMARK    5  A    between atoms: N_24  and  C_25 
REMARK    6  A    between atoms: C_25  and  C_26 
ROOT
HETATM    1  C   UNL     1      39.967 -12.609   2.585  1.00  0.00     0.149 C 
HETATM    2  N   UNL     1      41.371 -12.667   2.198  1.00  0.00    -0.220 NA
HETATM    3  C   UNL     1      41.531 -12.526   0.842  1.00  0.00     0.304 C 
HETATM    4  O   UNL     1      42.619 -12.373   0.316  1.00  0.00    -0.253 OA
HETATM    5  N   UNL     1      40.319 -12.615   0.243  1.00  0.00    -0.270 N 
HETATM    6  C   UNL     1      39.324 -12.581   1.180  1.00  0.00     0.257 C 
HETATM    7  O   UNL     1      38.121 -12.583   0.958  1.00  0.00    -0.270 OA
HETATM    8  H   UNL     1      42.037 -12.122   2.743  1.00  0.00     0.134 HD
ENDROOT
BRANCH   1   9
HETATM    9  C   UNL     1      39.751 -11.324   3.382  1.00  0.00     0.067 A 
HETATM   10  C   UNL     1      38.497 -10.884   3.794  1.00  0.00     0.030 A 
HETATM   11  C   UNL     1      38.408  -9.703   4.528  1.00  0.00     0.003 A 
HETATM   12  C   UNL     1      39.564  -8.999   4.845  1.00  0.00     0.019 A 
HETATM   13  C   UNL     1      40.776  -9.507   4.419  1.00  0.00     0.117 A 
HETATM   14  N   UNL     1      40.898 -10.651   3.708  1.00  0.00    -0.263 NA
ENDBRANCH   1   9
BRANCH   1  15
HETATM   15  C   UNL     1      39.504 -13.874   3.392  1.00  0.00     0.028 C 
HETATM   16  C   UNL     1      40.224 -14.079   4.736  1.00  0.00     0.035 C 
HETATM   17  C   UNL     1      41.673 -14.523   4.597  1.00  0.00     0.235 C 
HETATM   18  N   UNL     1      41.813 -15.730   3.696  1.00  0.00    -0.067 N 
HETATM   19  H   UNL     1      41.498 -16.546   4.241  1.00  0.00     0.280 HD
HETATM   20  C   UNL     1      41.006 -15.709   2.416  1.00  0.00     0.235 C 
HETATM   21  C   UNL     1      39.588 -15.219   2.647  1.00  0.00     0.035 C 
BRANCH  18  22
HETATM   22  C   UNL     1      43.274 -16.001   3.332  1.00  0.00     0.278 C 
BRANCH  22  23
HETATM   23  C   UNL     1      43.720 -17.429   3.439  1.00  0.00     0.028 A 
HETATM   24  C   UNL     1      43.852 -18.285   2.335  1.00  0.00     0.045 A 
HETATM   25 CL   UNL     1      43.565 -17.744   0.722  1.00  0.00    -0.084 Cl
HETATM   26  C   UNL     1      44.251 -19.614   2.508  1.00  0.00     0.024 A 
HETATM   27  C   UNL     1      44.524 -20.105   3.785  1.00  0.00     0.005 A 
HETATM   28  C   UNL     1      44.407 -19.265   4.888  1.00  0.00     0.043 A 
HETATM   29  C   UNL     1      44.010 -17.945   4.705  1.00  0.00     0.126 A 
HETATM   30  F   UNL     1      43.928 -17.132   5.768  1.00  0.00    -0.205 F 
ENDBRANCH  22  23
ENDBRANCH  18  22
ENDBRANCH   1  15
BRANCH   5  31
HETATM   31  C   UNL     1      40.130 -12.700  -1.195  1.00  0.00     0.168 C 
BRANCH  31  32
HETATM   32  C   UNL     1      39.650 -14.102  -1.616  1.00  0.00     0.140 C 
HETATM   33  O   UNL     1      39.188 -14.064  -2.992  1.00  0.00    -0.384 OA
HETATM   34  C   UNL     1      39.902 -15.075  -3.721  1.00  0.00     0.168 C 
HETATM   35  C   UNL     1      41.195 -15.292  -2.974  1.00  0.00     0.029 C 
HETATM   36  C   UNL     1      40.754 -15.150  -1.540  1.00  0.00     0.036 C 
ENDBRANCH  31  32
ENDBRANCH   5  31
TORSDOF 6
ENDMDL
MODEL 6
REMARK VINA RESULT:      -8.4      2.740      7.108
REMARK  6 active torsions:
REMARK  status: ('A' for Active; 'I' for Inactive)
REMARK    1  A    between atoms: C_3  and  C_4 
REMARK    2  A    between atoms: C_4  and  C_5 
REMARK    3  A    between atoms: N_8  and  C_10 
REMARK    4  A    between atoms: C_10  and  C_11 
REMARK    5  A    between atoms: N_24  and  C_25 
REMARK    6  A    between atoms: C_25  and  C_26 
ROOT
HETATM    1  C   UNL     1      42.353 -16.810   3.816  1.00  0.00     0.149 C 
HETATM    2  N   UNL     1      40.919 -16.942   3.591  1.00  0.00    -0.220 NA
HETATM    3  C   UNL     1      40.489 -16.140   2.562  1.00  0.00     0.304 C 
HETATM    4  O   UNL     1      39.369 -16.213   2.090  1.00  0.00    -0.253 OA
HETATM    5  N   UNL     1      41.485 -15.288   2.222  1.00  0.00    -0.270 N 
HETATM    6  C   UNL     1      42.650 -15.651   2.838  1.00  0.00     0.257 C 
HETATM    7  O   UNL     1      43.742 -15.120   2.691  1.00  0.00    -0.270 OA
HETATM    8  H   UNL     1      40.527 -17.881   3.562  1.00  0.00     0.134 HD
ENDROOT
BRANCH   1   9
HETATM    9  C   UNL     1      43.014 -18.128   3.420  1.00  0.00     0.067 A 
HETATM   10  C   UNL     1      42.810 -18.744   2.188  1.00  0.00     0.030 A 
HETATM   11  C   UNL     1      43.471 -19.940   1.919  1.00  0.00     0.003 A 
HETATM   12  C   UNL     1      44.324 -20.487   2.871  1.00  0.00     0.019 A 
HETATM   13  C   UNL     1      44.492 -19.811   4.063  1.00  0.00     0.117 A 
HETATM   14  N   UNL     1      43.869 -18.646   4.356  1.00  0.00    -0.263 NA
ENDBRANCH   1   9
BRANCH   1  15
HETATM   15  C   UNL     1      42.704 -16.408   5.292  1.00  0.00     0.028 C 
HETATM   16  C   UNL     1      41.596 -16.696   6.319  1.00  0.00     0.035 C 
HETATM   17  C   UNL     1      40.394 -15.770   6.203  1.00  0.00     0.235 C 
HETATM   18  N   UNL     1      40.796 -14.312   6.209  1.00  0.00    -0.067 N 
HETATM   19  H   UNL     1      41.030 -14.071   7.183  1.00  0.00     0.280 HD
HETATM   20  C   UNL     1      41.993 -13.945   5.359  1.00  0.00     0.235 C 
HETATM   21  C   UNL     1      43.127 -14.943   5.511  1.00  0.00     0.035 C 
BRANCH  18  22
HETATM   22  C   UNL     1      39.634 -13.400   5.812  1.00  0.00     0.278 C 
BRANCH  22  23
HETATM   23  C   UNL     1      39.724 -11.982   6.291  1.00  0.00     0.028 A 
HETATM   24  C   UNL     1      40.130 -10.913   5.479  1.00  0.00     0.045 A 
HETATM   25 CL   UNL     1      40.513 -11.130   3.810  1.00  0.00    -0.084 Cl
HETATM   26  C   UNL     1      40.214  -9.617   5.996  1.00  0.00     0.024 A 
HETATM   27  C   UNL     1      39.893  -9.371   7.331  1.00  0.00     0.005 A 
HETATM   28  C   UNL     1      39.478 -10.420   8.146  1.00  0.00     0.043 A 
HETATM   29  C   UNL     1      39.397 -11.705   7.621  1.00  0.00     0.126 A 
HETATM   30  F   UNL     1      38.969 -12.706   8.404  1.00  0.00    -0.205 F 
ENDBRANCH  22  23
ENDBRANCH  18  22
ENDBRANCH   1  15
BRANCH   5  31
HETATM   31  C   UNL     1      41.320 -14.174   1.304  1.00  0.00     0.168 C 
BRANCH  31  32
HETATM   32  C   UNL     1      41.887 -14.506  -0.090  1.00  0.00     0.140 C 
HETATM   33  O   UNL     1      41.082 -15.545  -0.706  1.00  0.00    -0.384 OA
HETATM   34  C   UNL     1      40.651 -15.062  -1.988  1.00  0.00     0.168 C 
HETATM   35  C   UNL     1      40.662 -13.556  -1.890  1.00  0.00     0.029 C 
HETATM   36  C   UNL     1      41.876 -13.309  -1.032  1.00  0.00     0.036 C 
ENDBRANCH  31  32
ENDBRANCH   5  31
TORSDOF 6
ENDMDL
MODEL 7
REMARK VINA RESULT:      -8.4      2.282      3.585
REMARK  6 active torsions:
REMARK  status: ('A' for Active; 'I' for Inactive)
REMARK    1  A    between atoms: C_3  and  C_4 
REMARK    2  A    between atoms: C_4  and  C_5 
REMARK    3  A    between atoms: N_8  and  C_10 
REMARK    4  A    between atoms: C_10  and  C_11 
REMARK    5  A    between atoms: N_24  and  C_25 
REMARK    6  A    between atoms: C_25  and  C_26 
ROOT
HETATM    1  C   UNL     1      40.959 -14.593   1.614  1.00  0.00     0.149 C 
HETATM    2  N   UNL     1      42.134 -13.929   1.063  1.00  0.00    -0.220 NA
HETATM    3  C   UNL     1      41.802 -12.772   0.402  1.00  0.00     0.304 C 
HETATM    4  O   UNL     1      42.632 -11.971   0.012  1.00  0.00    -0.253 OA
HETATM    5  N   UNL     1      40.456 -12.720   0.255  1.00  0.00    -0.270 N 
HETATM    6  C   UNL     1      39.859 -13.697   1.002  1.00  0.00     0.257 C 
HETATM    7  O   UNL     1      38.656 -13.876   1.129  1.00  0.00    -0.270 OA
HETATM    8  H   UNL     1      42.950 -13.831   1.665  1.00  0.00     0.134 HD
ENDROOT
BRANCH   1   9
HETATM    9  C   UNL     1      41.041 -14.507   3.136  1.00  0.00     0.067 A 
HETATM   10  C   UNL     1      42.243 -14.405   3.831  1.00  0.00     0.030 A 
HETATM   11  C   UNL     1      42.210 -14.319   5.221  1.00  0.00     0.003 A 
HETATM   12  C   UNL     1      40.988 -14.324   5.884  1.00  0.00     0.019 A 
HETATM   13  C   UNL     1      39.835 -14.408   5.128  1.00  0.00     0.117 A 
HETATM   14  N   UNL     1      39.831 -14.490   3.777  1.00  0.00    -0.263 NA
ENDBRANCH   1   9
BRANCH   1  15
HETATM   15  C   UNL     1      40.814 -16.078   1.127  1.00  0.00     0.028 C 
HETATM   16  C   UNL     1      40.383 -17.075   2.216  1.00  0.00     0.035 C 
HETATM   17  C   UNL     1      41.467 -17.369   3.243  1.00  0.00     0.235 C 
HETATM   18  N   UNL     1      42.770 -17.779   2.594  1.00  0.00    -0.067 N 
HETATM   19  H   UNL     1      42.652 -18.751   2.274  1.00  0.00     0.280 HD
HETATM   20  C   UNL     1      43.205 -16.965   1.394  1.00  0.00     0.235 C 
HETATM   21  C   UNL     1      42.053 -16.690   0.446  1.00  0.00     0.035 C 
BRANCH  18  22
HETATM   22  C   UNL     1      43.924 -17.799   3.598  1.00  0.00     0.278 C 
BRANCH  22  23
HETATM   23  C   UNL     1      44.061 -19.052   4.410  1.00  0.00     0.028 A 
HETATM   24  C   UNL     1      43.635 -19.163   5.743  1.00  0.00     0.045 A 
HETATM   25 CL   UNL     1      42.851 -17.862   6.561  1.00  0.00    -0.084 Cl
HETATM   26  C   UNL     1      43.813 -20.356   6.451  1.00  0.00     0.024 A 
HETATM   27  C   UNL     1      44.417 -21.454   5.837  1.00  0.00     0.005 A 
HETATM   28  C   UNL     1      44.834 -21.362   4.513  1.00  0.00     0.043 A 
HETATM   29  C   UNL     1      44.651 -20.171   3.818  1.00  0.00     0.126 A 
HETATM   30  F   UNL     1      45.029 -20.098   2.533  1.00  0.00    -0.205 F 
ENDBRANCH  22  23
ENDBRANCH  18  22
ENDBRANCH   1  15
BRANCH   5  31
HETATM   31  C   UNL     1      39.768 -11.734  -0.561  1.00  0.00     0.168 C 
BRANCH  31  32
HETATM   32  C   UNL     1      39.596 -12.227  -2.011  1.00  0.00     0.140 C 
HETATM   33  O   UNL     1      40.336 -13.463  -2.193  1.00  0.00    -0.384 OA
HETATM   34  C   UNL     1      39.422 -14.447  -2.704  1.00  0.00     0.168 C 
HETATM   35  C   UNL     1      38.049 -14.014  -2.253  1.00  0.00     0.029 C 
HETATM   36  C   UNL     1      38.143 -12.514  -2.367  1.00  0.00     0.036 C 
ENDBRANCH  31  32
ENDBRANCH   5  31
TORSDOF 6
ENDMDL
MODEL 8
REMARK VINA RESULT:      -8.4      2.433      5.324
REMARK  6 active torsions:
REMARK  status: ('A' for Active; 'I' for Inactive)
REMARK    1  A    between atoms: C_3  and  C_4 
REMARK    2  A    between atoms: C_4  and  C_5 
REMARK    3  A    between atoms: N_8  and  C_10 
REMARK    4  A    between atoms: C_10  and  C_11 
REMARK    5  A    between atoms: N_24  and  C_25 
REMARK    6  A    between atoms: C_25  and  C_26 
ROOT
HETATM    1  C   UNL     1      40.771 -13.340   2.880  1.00  0.00     0.149 C 
HETATM    2  N   UNL     1      40.366 -14.352   3.848  1.00  0.00    -0.220 NA
HETATM    3  C   UNL     1      40.203 -13.819   5.103  1.00  0.00     0.304 C 
HETATM    4  O   UNL     1      39.707 -14.440   6.025  1.00  0.00    -0.253 OA
HETATM    5  N   UNL     1      40.699 -12.559   5.114  1.00  0.00    -0.270 N 
HETATM    6  C   UNL     1      40.981 -12.149   3.841  1.00  0.00     0.257 C 
HETATM    7  O   UNL     1      41.386 -11.043   3.510  1.00  0.00    -0.270 OA
HETATM    8  H   UNL     1      39.622 -14.994   3.581  1.00  0.00     0.134 HD
ENDROOT
BRANCH   1   9
HETATM    9  C   UNL     1      39.617 -13.139   1.900  1.00  0.00     0.067 A 
HETATM   10  C   UNL     1      39.498 -12.018   1.082  1.00  0.00     0.030 A 
HETATM   11  C   UNL     1      38.413 -11.936   0.213  1.00  0.00     0.003 A 
HETATM   12  C   UNL     1      37.485 -12.969   0.166  1.00  0.00     0.019 A 
HETATM   13  C   UNL     1      37.679 -14.059   0.992  1.00  0.00     0.117 A 
HETATM   14  N   UNL     1      38.722 -14.173   1.846  1.00  0.00    -0.263 NA
ENDBRANCH   1   9
BRANCH   1  15
HETATM   15  C   UNL     1      42.104 -13.707   2.135  1.00  0.00     0.028 C 
HETATM   16  C   UNL     1      41.981 -14.860   1.124  1.00  0.00     0.035 C 
HETATM   17  C   UNL     1      41.798 -16.226   1.769  1.00  0.00     0.235 C 
HETATM   18  N   UNL     1      42.855 -16.509   2.813  1.00  0.00    -0.067 N 
HETATM   19  H   UNL     1      43.722 -16.739   2.305  1.00  0.00     0.280 HD
HETATM   20  C   UNL     1      43.181 -15.374   3.760  1.00  0.00     0.235 C 
HETATM   21  C   UNL     1      43.308 -14.047   3.034  1.00  0.00     0.035 C 
BRANCH  18  22
HETATM   22  C   UNL     1      42.512 -17.742   3.650  1.00  0.00     0.278 C 
BRANCH  22  23
HETATM   23  C   UNL     1      43.314 -18.975   3.354  1.00  0.00     0.028 A 
HETATM   24  C   UNL     1      44.365 -19.429   4.164  1.00  0.00     0.045 A 
HETATM   25 CL   UNL     1      44.800 -18.628   5.630  1.00  0.00    -0.084 Cl
HETATM   26  C   UNL     1      45.087 -20.576   3.818  1.00  0.00     0.024 A 
HETATM   27  C   UNL     1      44.768 -21.284   2.660  1.00  0.00     0.005 A 
HETATM   28  C   UNL     1      43.720 -20.851   1.852  1.00  0.00     0.043 A 
HETATM   29  C   UNL     1      43.008 -19.710   2.206  1.00  0.00     0.126 A 
HETATM   30  F   UNL     1      41.981 -19.315   1.440  1.00  0.00    -0.205 F 
ENDBRANCH  22  23
ENDBRANCH  18  22
ENDBRANCH   1  15
BRANCH   5  31
HETATM   31  C   UNL     1      40.866 -11.765   6.320  1.00  0.00     0.168 C 
BRANCH  31  32
HETATM   32  C   UNL     1      39.554 -11.064   6.717  1.00  0.00     0.140 C 
HETATM   33  O   UNL     1      39.109 -11.560   8.007  1.00  0.00    -0.384 OA
HETATM   34  C   UNL     1      38.923 -10.428   8.870  1.00  0.00     0.168 C 
HETATM   35  C   UNL     1      39.821  -9.341   8.331  1.00  0.00     0.029 C 
HETATM   36  C   UNL     1      39.707  -9.553   6.843  1.00  0.00     0.036 C 
ENDBRANCH  31  32
ENDBRANCH   5  31
TORSDOF 6
ENDMDL
MODEL 9
REMARK VINA RESULT:      -8.3      2.392      3.149
REMARK  6 active torsions:
REMARK  status: ('A' for Active; 'I' for Inactive)
REMARK    1  A    between atoms: C_3  and  C_4 
REMARK    2  A    between atoms: C_4  and  C_5 
REMARK    3  A    between atoms: N_8  and  C_10 
REMARK    4  A    between atoms: C_10  and  C_11 
REMARK    5  A    between atoms: N_24  and  C_25 
REMARK    6  A    between atoms: C_25  and  C_26 
ROOT
HETATM    1  C   UNL     1      40.257 -13.028   3.163  1.00  0.00     0.149 C 
HETATM    2  N   UNL     1      41.593 -13.145   2.590  1.00  0.00    -0.220 NA
HETATM    3  C   UNL     1      41.599 -12.846   1.250  1.00  0.00     0.304 C 
HETATM    4  O   UNL     1      42.625 -12.714   0.607  1.00  0.00    -0.253 OA
HETATM    5  N   UNL     1      40.321 -12.764   0.810  1.00  0.00    -0.270 N 
HETATM    6  C   UNL     1      39.455 -12.772   1.868  1.00  0.00     0.257 C 
HETATM    7  O   UNL     1      38.239 -12.652   1.808  1.00  0.00    -0.270 OA
HETATM    8  H   UNL     1      42.368 -12.727   3.102  1.00  0.00     0.134 HD
ENDROOT
BRANCH   1   9
HETATM    9  C   UNL     1      40.262 -11.842   4.125  1.00  0.00     0.067 A 
HETATM   10  C   UNL     1      41.419 -11.161   4.491  1.00  0.00     0.030 A 
HETATM   11  C   UNL     1      41.314 -10.082   5.366  1.00  0.00     0.003 A 
HETATM   12  C   UNL     1      40.066  -9.699   5.843  1.00  0.00     0.019 A 
HETATM   13  C   UNL     1      38.959 -10.409   5.421  1.00  0.00     0.117 A 
HETATM   14  N   UNL     1      39.025 -11.459   4.570  1.00  0.00    -0.263 NA
ENDBRANCH   1   9
BRANCH   1  15
HETATM   15  C   UNL     1      39.780 -14.345   3.872  1.00  0.00     0.028 C 
HETATM   16  C   UNL     1      40.572 -14.719   5.136  1.00  0.00     0.035 C 
HETATM   17  C   UNL     1      41.983 -15.215   4.854  1.00  0.00     0.235 C 
HETATM   18  N   UNL     1      42.000 -16.329   3.832  1.00  0.00    -0.067 N 
HETATM   19  H   UNL     1      41.677 -17.181   4.313  1.00  0.00     0.280 HD
HETATM   20  C   UNL     1      41.115 -16.140   2.619  1.00  0.00     0.235 C 
HETATM   21  C   UNL     1      39.743 -15.610   2.994  1.00  0.00     0.035 C 
BRANCH  18  22
HETATM   22  C   UNL     1      43.418 -16.631   3.342  1.00  0.00     0.278 C 
BRANCH  22  23
HETATM   23  C   UNL     1      43.887 -18.043   3.528  1.00  0.00     0.028 A 
HETATM   24  C   UNL     1      44.401 -18.537   4.736  1.00  0.00     0.045 A 
HETATM   25 CL   UNL     1      44.488 -17.563   6.157  1.00  0.00    -0.084 Cl
HETATM   26  C   UNL     1      44.841 -19.861   4.834  1.00  0.00     0.024 A 
HETATM   27  C   UNL     1      44.773 -20.708   3.728  1.00  0.00     0.005 A 
HETATM   28  C   UNL     1      44.255 -20.235   2.526  1.00  0.00     0.043 A 
HETATM   29  C   UNL     1      43.819 -18.917   2.440  1.00  0.00     0.126 A 
HETATM   30  F   UNL     1      43.295 -18.475   1.287  1.00  0.00    -0.205 F 
ENDBRANCH  22  23
ENDBRANCH  18  22
ENDBRANCH   1  15
BRANCH   5  31
HETATM   31  C   UNL     1      39.951 -12.651  -0.590  1.00  0.00     0.168 C 
BRANCH  31  32
HETATM   32  C   UNL     1      39.608 -14.026  -1.193  1.00  0.00     0.140 C 
HETATM   33  O   UNL     1      38.337 -13.947  -1.890  1.00  0.00    -0.384 OA
HETATM   34  C   UNL     1      38.544 -14.415  -3.232  1.00  0.00     0.168 C 
HETATM   35  C   UNL     1      40.006 -14.191  -3.530  1.00  0.00     0.029 C 
HETATM   36  C   UNL     1      40.646 -14.504  -2.201  1.00  0.00     0.036 C 
ENDBRANCH  31  32
ENDBRANCH   5  31
TORSDOF 6
ENDMDL
MODEL 10
REMARK VINA RESULT:      -8.2      2.879      6.829
REMARK  6 active torsions:
REMARK  status: ('A' for Active; 'I' for Inactive)
REMARK    1  A    between atoms: C_3  and  C_4 
REMARK    2  A    between atoms: C_4  and  C_5 
REMARK    3  A    between atoms: N_8  and  C_10 
REMARK    4  A    between atoms: C_10  and  C_11 
REMARK    5  A    between atoms: N_24  and  C_25 
REMARK    6  A    between atoms: C_25  and  C_26 
ROOT
HETATM    1  C   UNL     1      42.903 -17.149   3.534  1.00  0.00     0.149 C 
HETATM    2  N   UNL     1      41.451 -17.236   3.435  1.00  0.00    -0.220 NA
HETATM    3  C   UNL     1      40.988 -16.695   2.261  1.00  0.00     0.304 C 
HETATM    4  O   UNL     1      39.834 -16.810   1.890  1.00  0.00    -0.253 OA
HETATM    5  N   UNL     1      41.998 -16.027   1.655  1.00  0.00    -0.270 N 
HETATM    6  C   UNL     1      43.186 -16.299   2.275  1.00  0.00     0.257 C 
HETATM    7  O   UNL     1      44.289 -15.898   1.932  1.00  0.00    -0.270 OA
HETATM    8  H   UNL     1      41.011 -18.123   3.673  1.00  0.00     0.134 HD
ENDROOT
BRANCH   1   9
HETATM    9  C   UNL     1      43.465 -18.566   3.454  1.00  0.00     0.067 A 
HETATM   10  C   UNL     1      43.366 -19.363   2.317  1.00  0.00     0.030 A 
HETATM   11  C   UNL     1      43.924 -20.639   2.341  1.00  0.00     0.003 A 
HETATM   12  C   UNL     1      44.576 -21.086   3.485  1.00  0.00     0.019 A 
HETATM   13  C   UNL     1      44.652 -20.233   4.569  1.00  0.00     0.117 A 
HETATM   14  N   UNL     1      44.124 -18.988   4.578  1.00  0.00    -0.263 NA
ENDBRANCH   1   9
BRANCH   1  15
HETATM   15  C   UNL     1      43.382 -16.410   4.834  1.00  0.00     0.028 C 
HETATM   16  C   UNL     1      42.597 -16.769   6.106  1.00  0.00     0.035 C 
HETATM   17  C   UNL     1      41.184 -16.205   6.136  1.00  0.00     0.235 C 
HETATM   18  N   UNL     1      41.159 -14.718   5.865  1.00  0.00    -0.067 N 
HETATM   19  H   UNL     1      41.484 -14.252   6.725  1.00  0.00     0.280 HD
HETATM   20  C   UNL     1      42.038 -14.228   4.734  1.00  0.00     0.235 C 
HETATM   21  C   UNL     1      43.412 -14.871   4.764  1.00  0.00     0.035 C 
BRANCH  18  22
HETATM   22  C   UNL     1      39.738 -14.208   5.617  1.00  0.00     0.278 C 
BRANCH  22  23
HETATM   23  C   UNL     1      39.631 -12.855   4.979  1.00  0.00     0.028 A 
HETATM   24  C   UNL     1      39.857 -11.654   5.667  1.00  0.00     0.045 A 
HETATM   25 CL   UNL     1      40.342 -11.628   7.323  1.00  0.00    -0.084 Cl
HETATM   26  C   UNL     1      39.719 -10.423   5.017  1.00  0.00     0.024 A 
HETATM   27  C   UNL     1      39.354 -10.377   3.671  1.00  0.00     0.005 A 
HETATM   28  C   UNL     1      39.138 -11.561   2.973  1.00  0.00     0.043 A 
HETATM   29  C   UNL     1      39.279 -12.779   3.629  1.00  0.00     0.126 A 
HETATM   30  F   UNL     1      39.097 -13.917   2.944  1.00  0.00    -0.205 F 
ENDBRANCH  22  23
ENDBRANCH  18  22
ENDBRANCH   1  15
BRANCH   5  31
HETATM   31  C   UNL     1      41.823 -15.174   0.491  1.00  0.00     0.168 C 
BRANCH  31  32
HETATM   32  C   UNL     1      41.267 -13.793   0.887  1.00  0.00     0.140 C 
HETATM   33  O   UNL     1      42.367 -12.868   1.092  1.00  0.00    -0.384 OA
HETATM   34  C   UNL     1      42.137 -11.722   0.258  1.00  0.00     0.168 C 
HETATM   35  C   UNL     1      41.268 -12.203  -0.879  1.00  0.00     0.029 C 
HETATM   36  C   UNL     1      40.367 -13.191  -0.186  1.00  0.00     0.036 C 
ENDBRANCH  31  32
ENDBRANCH   5  31
TORSDOF 6
ENDMDL
