MODEL 1
REMARK VINA RESULT:      -7.1      0.000      0.000
REMARK  4 active torsions:
REMARK  status: ('A' for Active; 'I' for Inactive)
REMARK    1  A    between atoms: C_5  and  N_6 
REMARK    2  A    between atoms: N_10  and  C_11 
REMARK    3  A    between atoms: C_11  and  C_12 
REMARK    4  A    between atoms: C_13  and  O_14 
ROOT
HETATM    1  N   UNL     1      40.783 -14.460   2.091  1.00  0.00    -0.312 N 
HETATM    2  C   UNL     1      40.709 -15.578   2.939  1.00  0.00     0.253 C 
HETATM    3  O   UNL     1      40.439 -15.529   4.143  1.00  0.00    -0.271 OA
HETATM    4  C   UNL     1      40.841 -16.960   2.283  1.00  0.00     0.375 C 
HETATM    5  N   UNL     1      41.759 -17.031   1.129  1.00  0.00     0.103 N 
HETATM    6  C   UNL     1      41.363 -15.999   0.168  1.00  0.00     0.293 C 
HETATM    7  C   UNL     1      41.372 -14.584   0.752  1.00  0.00     0.162 C 
ENDROOT
BRANCH   5   8
HETATM    8  C   UNL     1      43.174 -16.920   1.529  1.00  0.00     0.314 C 
BRANCH   8   9
HETATM    9  C   UNL     1      43.637 -18.100   2.355  1.00  0.00     0.006 A 
HETATM   10  C   UNL     1      43.896 -17.987   3.727  1.00  0.00     0.095 A 
HETATM   11  C   UNL     1      44.296 -19.102   4.474  1.00  0.00     0.069 A 
HETATM   12 CL   UNL     1      44.601 -18.952   6.166  1.00  0.00    -0.081 Cl
HETATM   13  C   UNL     1      44.449 -20.345   3.864  1.00  0.00     0.050 A 
HETATM   14  C   UNL     1      44.201 -20.464   2.500  1.00  0.00     0.036 A 
HETATM   15 CL   UNL     1      44.382 -21.995   1.734  1.00  0.00    -0.084 Cl
HETATM   16  C   UNL     1      43.802 -19.359   1.748  1.00  0.00     0.035 A 
BRANCH  10  17
HETATM   17  O   UNL     1      43.739 -16.764   4.323  1.00  0.00    -0.358 OA
HETATM   18  H   UNL     1      44.499 -16.208   4.064  1.00  0.00     0.218 HD
ENDBRANCH  10  17
ENDBRANCH   8   9
ENDBRANCH   5   8
BRANCH   1  19
HETATM   19  C   UNL     1      40.453 -13.183   2.594  1.00  0.00     0.073 A 
HETATM   20  C   UNL     1      41.268 -12.164   3.153  1.00  0.00     0.169 A 
HETATM   21  N   UNL     1      40.571 -11.092   3.547  1.00  0.00    -0.183 NA
HETATM   22  N   UNL     1      39.306 -11.416   3.244  1.00  0.00    -0.283 N 
HETATM   23  C   UNL     1      38.235 -10.501   3.550  1.00  0.00     0.179 C 
HETATM   24  C   UNL     1      39.184 -12.646   2.665  1.00  0.00     0.143 A 
ENDBRANCH   1  19
TORSDOF 4
ENDMDL
MODEL 2
REMARK VINA RESULT:      -7.1      2.526      3.278
REMARK  4 active torsions:
REMARK  status: ('A' for Active; 'I' for Inactive)
REMARK    1  A    between atoms: C_5  and  N_6 
REMARK    2  A    between atoms: N_10  and  C_11 
REMARK    3  A    between atoms: C_11  and  C_12 
REMARK    4  A    between atoms: C_13  and  O_14 
ROOT
HETATM    1  N   UNL     1      41.542 -14.461  -0.014  1.00  0.00    -0.312 N 
HETATM    2  C   UNL     1      41.982 -13.937   1.214  1.00  0.00     0.253 C 
HETATM    3  O   UNL     1      42.401 -12.787   1.376  1.00  0.00    -0.271 OA
HETATM    4  C   UNL     1      41.792 -14.819   2.456  1.00  0.00     0.375 C 
HETATM    5  N   UNL     1      41.945 -16.272   2.234  1.00  0.00     0.103 N 
HETATM    6  C   UNL     1      41.054 -16.660   1.139  1.00  0.00     0.293 C 
HETATM    7  C   UNL     1      41.321 -15.904  -0.165  1.00  0.00     0.162 C 
ENDROOT
BRANCH   5   8
HETATM    8  C   UNL     1      43.346 -16.658   1.987  1.00  0.00     0.314 C 
BRANCH   8   9
HETATM    9  C   UNL     1      43.734 -17.928   2.714  1.00  0.00     0.006 A 
HETATM   10  C   UNL     1      43.920 -17.959   4.101  1.00  0.00     0.095 A 
HETATM   11  C   UNL     1      44.250 -19.155   4.752  1.00  0.00     0.069 A 
HETATM   12 CL   UNL     1      44.465 -19.182   6.464  1.00  0.00    -0.081 Cl
HETATM   13  C   UNL     1      44.406 -20.335   4.029  1.00  0.00     0.050 A 
HETATM   14  C   UNL     1      44.231 -20.311   2.648  1.00  0.00     0.036 A 
HETATM   15 CL   UNL     1      44.416 -21.763   1.743  1.00  0.00    -0.084 Cl
HETATM   16  C   UNL     1      43.902 -19.124   1.992  1.00  0.00     0.035 A 
BRANCH  10  17
HETATM   17  O   UNL     1      43.761 -16.797   4.808  1.00  0.00    -0.358 OA
HETATM   18  H   UNL     1      43.464 -17.035   5.706  1.00  0.00     0.218 HD
ENDBRANCH  10  17
ENDBRANCH   8   9
ENDBRANCH   5   8
BRANCH   1  19
HETATM   19  C   UNL     1      41.486 -13.623  -1.147  1.00  0.00     0.073 A 
HETATM   20  C   UNL     1      42.502 -13.203  -2.047  1.00  0.00     0.169 A 
HETATM   21  N   UNL     1      42.052 -12.372  -2.993  1.00  0.00    -0.183 NA
HETATM   22  N   UNL     1      40.748 -12.252  -2.709  1.00  0.00    -0.283 N 
HETATM   23  C   UNL     1      39.910 -11.396  -3.512  1.00  0.00     0.179 C 
HETATM   24  C   UNL     1      40.358 -12.985  -1.625  1.00  0.00     0.143 A 
ENDBRANCH   1  19
TORSDOF 4
ENDMDL
MODEL 3
REMARK VINA RESULT:      -7.0      2.424      3.875
REMARK  4 active torsions:
REMARK  status: ('A' for Active; 'I' for Inactive)
REMARK    1  A    between atoms: C_5  and  N_6 
REMARK    2  A    between atoms: N_10  and  C_11 
REMARK    3  A    between atoms: C_11  and  C_12 
REMARK    4  A    between atoms: C_13  and  O_14 
ROOT
HETATM    1  N   UNL     1      40.880 -15.134   1.335  1.00  0.00    -0.312 N 
HETATM    2  C   UNL     1      41.699 -14.269   2.081  1.00  0.00     0.253 C 
HETATM    3  O   UNL     1      42.077 -13.157   1.700  1.00  0.00    -0.271 OA
HETATM    4  C   UNL     1      42.025 -14.689   3.521  1.00  0.00     0.375 C 
HETATM    5  N   UNL     1      42.177 -16.141   3.742  1.00  0.00     0.103 N 
HETATM    6  C   UNL     1      40.977 -16.807   3.230  1.00  0.00     0.293 C 
HETATM    7  C   UNL     1      40.710 -16.532   1.749  1.00  0.00     0.162 C 
ENDROOT
BRANCH   5   8
HETATM    8  C   UNL     1      43.417 -16.673   3.146  1.00  0.00     0.314 C 
BRANCH   8   9
HETATM    9  C   UNL     1      43.726 -18.081   3.611  1.00  0.00     0.006 A 
HETATM   10  C   UNL     1      43.980 -19.119   2.706  1.00  0.00     0.095 A 
HETATM   11  C   UNL     1      44.293 -20.406   3.163  1.00  0.00     0.069 A 
HETATM   12 CL   UNL     1      44.614 -21.674   2.038  1.00  0.00    -0.081 Cl
HETATM   13  C   UNL     1      44.351 -20.677   4.528  1.00  0.00     0.050 A 
HETATM   14  C   UNL     1      44.092 -19.652   5.434  1.00  0.00     0.036 A 
HETATM   15 CL   UNL     1      44.166 -19.972   7.123  1.00  0.00    -0.084 Cl
HETATM   16  C   UNL     1      43.780 -18.367   4.987  1.00  0.00     0.035 A 
BRANCH  10  17
HETATM   17  O   UNL     1      43.926 -18.845   1.365  1.00  0.00    -0.358 OA
HETATM   18  H   UNL     1      44.676 -19.301   0.939  1.00  0.00     0.218 HD
ENDBRANCH  10  17
ENDBRANCH   8   9
ENDBRANCH   5   8
BRANCH   1  19
HETATM   19  C   UNL     1      40.368 -14.706   0.092  1.00  0.00     0.073 A 
HETATM   20  C   UNL     1      39.197 -13.968  -0.230  1.00  0.00     0.169 A 
HETATM   21  N   UNL     1      39.039 -13.783  -1.545  1.00  0.00    -0.183 NA
HETATM   22  N   UNL     1      40.105 -14.398  -2.076  1.00  0.00    -0.283 N 
HETATM   23  C   UNL     1      40.276 -14.436  -3.507  1.00  0.00     0.179 C 
HETATM   24  C   UNL     1      40.932 -14.955  -1.143  1.00  0.00     0.143 A 
ENDBRANCH   1  19
TORSDOF 4
ENDMDL
MODEL 4
REMARK VINA RESULT:      -6.7      3.896      7.818
REMARK  4 active torsions:
REMARK  status: ('A' for Active; 'I' for Inactive)
REMARK    1  A    between atoms: C_5  and  N_6 
REMARK    2  A    between atoms: N_10  and  C_11 
REMARK    3  A    between atoms: C_11  and  C_12 
REMARK    4  A    between atoms: C_13  and  O_14 
ROOT
HETATM    1  N   UNL     1      43.421 -17.605   4.213  1.00  0.00    -0.312 N 
HETATM    2  C   UNL     1      42.919 -17.295   5.489  1.00  0.00     0.253 C 
HETATM    3  O   UNL     1      42.824 -18.100   6.420  1.00  0.00    -0.271 OA
HETATM    4  C   UNL     1      42.600 -15.821   5.772  1.00  0.00     0.375 C 
HETATM    5  N   UNL     1      42.082 -15.050   4.623  1.00  0.00     0.103 N 
HETATM    6  C   UNL     1      43.021 -15.208   3.510  1.00  0.00     0.293 C 
HETATM    7  C   UNL     1      43.243 -16.665   3.100  1.00  0.00     0.162 C 
ENDROOT
BRANCH   5   8
HETATM    8  C   UNL     1      40.706 -15.435   4.262  1.00  0.00     0.314 C 
BRANCH   8   9
HETATM    9  C   UNL     1      39.994 -14.363   3.464  1.00  0.00     0.006 A 
HETATM   10  C   UNL     1      39.220 -14.669   2.339  1.00  0.00     0.095 A 
HETATM   11  C   UNL     1      38.547 -13.661   1.636  1.00  0.00     0.069 A 
HETATM   12 CL   UNL     1      37.587 -14.053   0.257  1.00  0.00    -0.081 Cl
HETATM   13  C   UNL     1      38.642 -12.332   2.043  1.00  0.00     0.050 A 
HETATM   14  C   UNL     1      39.415 -12.018   3.156  1.00  0.00     0.036 A 
HETATM   15 CL   UNL     1      39.537 -10.380   3.672  1.00  0.00    -0.084 Cl
HETATM   16  C   UNL     1      40.088 -13.016   3.862  1.00  0.00     0.035 A 
BRANCH  10  17
HETATM   17  O   UNL     1      39.126 -15.978   1.947  1.00  0.00    -0.358 OA
HETATM   18  H   UNL     1      39.513 -16.048   1.053  1.00  0.00     0.218 HD
ENDBRANCH  10  17
ENDBRANCH   8   9
ENDBRANCH   5   8
BRANCH   1  19
HETATM   19  C   UNL     1      43.936 -18.895   3.963  1.00  0.00     0.073 A 
HETATM   20  C   UNL     1      44.833 -19.701   4.714  1.00  0.00     0.169 A 
HETATM   21  N   UNL     1      45.107 -20.869   4.122  1.00  0.00    -0.183 NA
HETATM   22  N   UNL     1      44.391 -20.820   2.990  1.00  0.00    -0.283 N 
HETATM   23  C   UNL     1      44.449 -21.915   2.053  1.00  0.00     0.179 C 
HETATM   24  C   UNL     1      43.668 -19.670   2.853  1.00  0.00     0.143 A 
ENDBRANCH   1  19
TORSDOF 4
ENDMDL
MODEL 5
REMARK VINA RESULT:      -6.7      2.652      3.852
REMARK  4 active torsions:
REMARK  status: ('A' for Active; 'I' for Inactive)
REMARK    1  A    between atoms: C_5  and  N_6 
REMARK    2  A    between atoms: N_10  and  C_11 
REMARK    3  A    between atoms: C_11  and  C_12 
REMARK    4  A    between atoms: C_13  and  O_14 
ROOT
HETATM    1  N   UNL     1      41.014 -15.174   0.375  1.00  0.00    -0.312 N 
HETATM    2  C   UNL     1      40.691 -14.735   1.671  1.00  0.00     0.253 C 
HETATM    3  O   UNL     1      40.470 -13.560   1.979  1.00  0.00    -0.271 OA
HETATM    4  C   UNL     1      40.468 -15.817   2.737  1.00  0.00     0.375 C 
HETATM    5  N   UNL     1      41.315 -17.021   2.609  1.00  0.00     0.103 N 
HETATM    6  C   UNL     1      41.158 -17.543   1.250  1.00  0.00     0.293 C 
HETATM    7  C   UNL     1      41.524 -16.533   0.160  1.00  0.00     0.162 C 
ENDROOT
BRANCH   5   8
HETATM    8  C   UNL     1      42.723 -16.757   2.955  1.00  0.00     0.314 C 
BRANCH   8   9
HETATM    9  C   UNL     1      43.210 -17.619   4.101  1.00  0.00     0.006 A 
HETATM   10  C   UNL     1      43.869 -18.835   3.883  1.00  0.00     0.095 A 
HETATM   11  C   UNL     1      44.336 -19.599   4.961  1.00  0.00     0.069 A 
HETATM   12 CL   UNL     1      45.157 -21.090   4.679  1.00  0.00    -0.081 Cl
HETATM   13  C   UNL     1      44.146 -19.165   6.270  1.00  0.00     0.050 A 
HETATM   14  C   UNL     1      43.485 -17.961   6.495  1.00  0.00     0.036 A 
HETATM   15 CL   UNL     1      43.248 -17.410   8.109  1.00  0.00    -0.084 Cl
HETATM   16  C   UNL     1      43.017 -17.193   5.428  1.00  0.00     0.035 A 
BRANCH  10  17
HETATM   17  O   UNL     1      44.057 -19.255   2.593  1.00  0.00    -0.358 OA
HETATM   18  H   UNL     1      44.927 -18.926   2.298  1.00  0.00     0.218 HD
ENDBRANCH  10  17
ENDBRANCH   8   9
ENDBRANCH   5   8
BRANCH   1  19
HETATM   19  C   UNL     1      41.016 -14.249  -0.691  1.00  0.00     0.073 A 
HETATM   20  C   UNL     1      42.005 -13.325  -1.121  1.00  0.00     0.169 A 
HETATM   21  N   UNL     1      41.616 -12.591  -2.169  1.00  0.00    -0.183 NA
HETATM   22  N   UNL     1      40.377 -13.038  -2.418  1.00  0.00    -0.283 N 
HETATM   23  C   UNL     1      39.602 -12.456  -3.487  1.00  0.00     0.179 C 
HETATM   24  C   UNL     1      39.976 -14.032  -1.573  1.00  0.00     0.143 A 
ENDBRANCH   1  19
TORSDOF 4
ENDMDL
MODEL 6
REMARK VINA RESULT:      -6.7      3.839      7.480
REMARK  4 active torsions:
REMARK  status: ('A' for Active; 'I' for Inactive)
REMARK    1  A    between atoms: C_5  and  N_6 
REMARK    2  A    between atoms: N_10  and  C_11 
REMARK    3  A    between atoms: C_11  and  C_12 
REMARK    4  A    between atoms: C_13  and  O_14 
ROOT
HETATM    1  N   UNL     1      42.877 -17.505   3.267  1.00  0.00    -0.312 N 
HETATM    2  C   UNL     1      41.800 -17.273   4.141  1.00  0.00     0.253 C 
HETATM    3  O   UNL     1      41.279 -18.133   4.856  1.00  0.00    -0.271 OA
HETATM    4  C   UNL     1      41.342 -15.817   4.308  1.00  0.00     0.375 C 
HETATM    5  N   UNL     1      41.440 -14.976   3.098  1.00  0.00     0.103 N 
HETATM    6  C   UNL     1      42.811 -15.068   2.591  1.00  0.00     0.293 C 
HETATM    7  C   UNL     1      43.248 -16.498   2.266  1.00  0.00     0.162 C 
ENDROOT
BRANCH   5   8
HETATM    8  C   UNL     1      40.435 -15.334   2.082  1.00  0.00     0.314 C 
BRANCH   8   9
HETATM    9  C   UNL     1      40.595 -14.539   0.803  1.00  0.00     0.006 A 
HETATM   10  C   UNL     1      40.848 -15.158  -0.427  1.00  0.00     0.095 A 
HETATM   11  C   UNL     1      40.962 -14.401  -1.600  1.00  0.00     0.069 A 
HETATM   12 CL   UNL     1      41.263 -15.178  -3.111  1.00  0.00    -0.081 Cl
HETATM   13  C   UNL     1      40.831 -13.015  -1.562  1.00  0.00     0.050 A 
HETATM   14  C   UNL     1      40.587 -12.390  -0.343  1.00  0.00     0.036 A 
HETATM   15 CL   UNL     1      40.418 -10.679  -0.283  1.00  0.00    -0.084 Cl
HETATM   16  C   UNL     1      40.471 -13.137   0.830  1.00  0.00     0.035 A 
BRANCH  10  17
HETATM   17  O   UNL     1      40.971 -16.522  -0.458  1.00  0.00    -0.358 OA
HETATM   18  H   UNL     1      40.079 -16.903  -0.354  1.00  0.00     0.218 HD
ENDBRANCH  10  17
ENDBRANCH   8   9
ENDBRANCH   5   8
BRANCH   1  19
HETATM   19  C   UNL     1      43.483 -18.779   3.236  1.00  0.00     0.073 A 
HETATM   20  C   UNL     1      44.342 -19.425   4.165  1.00  0.00     0.169 A 
HETATM   21  N   UNL     1      44.738 -20.636   3.758  1.00  0.00    -0.183 NA
HETATM   22  N   UNL     1      44.137 -20.776   2.568  1.00  0.00    -0.283 N 
HETATM   23  C   UNL     1      44.348 -21.972   1.790  1.00  0.00     0.179 C 
HETATM   24  C   UNL     1      43.371 -19.702   2.216  1.00  0.00     0.143 A 
ENDBRANCH   1  19
TORSDOF 4
ENDMDL
MODEL 7
REMARK VINA RESULT:      -6.6      2.402      3.262
REMARK  4 active torsions:
REMARK  status: ('A' for Active; 'I' for Inactive)
REMARK    1  A    between atoms: C_5  and  N_6 
REMARK    2  A    between atoms: N_10  and  C_11 
REMARK    3  A    between atoms: C_11  and  C_12 
REMARK    4  A    between atoms: C_13  and  O_14 
ROOT
HETATM    1  N   UNL     1      41.034 -15.268   2.357  1.00  0.00    -0.312 N 
HETATM    2  C   UNL     1      41.418 -14.328   3.328  1.00  0.00     0.253 C 
HETATM    3  O   UNL     1      41.649 -13.137   3.099  1.00  0.00    -0.271 OA
HETATM    4  C   UNL     1      41.410 -14.795   4.790  1.00  0.00     0.375 C 
HETATM    5  N   UNL     1      41.792 -16.205   5.010  1.00  0.00     0.103 N 
HETATM    6  C   UNL     1      40.944 -17.042   4.158  1.00  0.00     0.293 C 
HETATM    7  C   UNL     1      41.047 -16.702   2.670  1.00  0.00     0.162 C 
ENDROOT
BRANCH   5   8
HETATM    8  C   UNL     1      43.229 -16.440   4.784  1.00  0.00     0.314 C 
BRANCH   8   9
HETATM    9  C   UNL     1      43.613 -17.895   4.955  1.00  0.00     0.006 A 
HETATM   10  C   UNL     1      43.514 -18.545   6.191  1.00  0.00     0.095 A 
HETATM   11  C   UNL     1      43.848 -19.900   6.315  1.00  0.00     0.069 A 
HETATM   12 CL   UNL     1      43.711 -20.693   7.841  1.00  0.00    -0.081 Cl
HETATM   13  C   UNL     1      44.290 -20.623   5.211  1.00  0.00     0.050 A 
HETATM   14  C   UNL     1      44.399 -19.982   3.980  1.00  0.00     0.036 A 
HETATM   15 CL   UNL     1      44.941 -20.866   2.606  1.00  0.00    -0.084 Cl
HETATM   16  C   UNL     1      44.068 -18.633   3.848  1.00  0.00     0.035 A 
BRANCH  10  17
HETATM   17  O   UNL     1      43.073 -17.830   7.273  1.00  0.00    -0.358 OA
HETATM   18  H   UNL     1      43.839 -17.676   7.858  1.00  0.00     0.218 HD
ENDBRANCH  10  17
ENDBRANCH   8   9
ENDBRANCH   5   8
BRANCH   1  19
HETATM   19  C   UNL     1      40.810 -14.845   1.029  1.00  0.00     0.073 A 
HETATM   20  C   UNL     1      41.698 -14.722  -0.072  1.00  0.00     0.169 A 
HETATM   21  N   UNL     1      41.104 -14.251  -1.174  1.00  0.00    -0.183 NA
HETATM   22  N   UNL     1      39.834 -14.069  -0.789  1.00  0.00    -0.283 N 
HETATM   23  C   UNL     1      38.868 -13.535  -1.718  1.00  0.00     0.179 C 
HETATM   24  C   UNL     1      39.604 -14.417   0.511  1.00  0.00     0.143 A 
ENDBRANCH   1  19
TORSDOF 4
ENDMDL
MODEL 8
REMARK VINA RESULT:      -6.6      1.392      2.334
REMARK  4 active torsions:
REMARK  status: ('A' for Active; 'I' for Inactive)
REMARK    1  A    between atoms: C_5  and  N_6 
REMARK    2  A    between atoms: N_10  and  C_11 
REMARK    3  A    between atoms: C_11  and  C_12 
REMARK    4  A    between atoms: C_13  and  O_14 
ROOT
HETATM    1  N   UNL     1      41.006 -14.852   1.864  1.00  0.00    -0.312 N 
HETATM    2  C   UNL     1      40.984 -15.574   3.069  1.00  0.00     0.253 C 
HETATM    3  O   UNL     1      40.851 -15.069   4.188  1.00  0.00    -0.271 OA
HETATM    4  C   UNL     1      40.991 -17.106   2.964  1.00  0.00     0.375 C 
HETATM    5  N   UNL     1      41.773 -17.663   1.841  1.00  0.00     0.103 N 
HETATM    6  C   UNL     1      41.313 -17.025   0.606  1.00  0.00     0.293 C 
HETATM    7  C   UNL     1      41.439 -15.501   0.620  1.00  0.00     0.162 C 
ENDROOT
BRANCH   5   8
HETATM    8  C   UNL     1      43.226 -17.520   2.044  1.00  0.00     0.314 C 
BRANCH   8   9
HETATM    9  C   UNL     1      43.762 -18.474   3.091  1.00  0.00     0.006 A 
HETATM   10  C   UNL     1      43.913 -19.843   2.837  1.00  0.00     0.095 A 
HETATM   11  C   UNL     1      44.438 -20.698   3.813  1.00  0.00     0.069 A 
HETATM   12 CL   UNL     1      44.629 -22.381   3.484  1.00  0.00    -0.081 Cl
HETATM   13  C   UNL     1      44.816 -20.203   5.059  1.00  0.00     0.050 A 
HETATM   14  C   UNL     1      44.662 -18.845   5.322  1.00  0.00     0.036 A 
HETATM   15 CL   UNL     1      45.129 -18.218   6.856  1.00  0.00    -0.084 Cl
HETATM   16  C   UNL     1      44.140 -17.986   4.355  1.00  0.00     0.035 A 
BRANCH  10  17
HETATM   17  O   UNL     1      43.544 -20.324   1.609  1.00  0.00    -0.358 OA
HETATM   18  H   UNL     1      44.332 -20.731   1.201  1.00  0.00     0.218 HD
ENDBRANCH  10  17
ENDBRANCH   8   9
ENDBRANCH   5   8
BRANCH   1  19
HETATM   19  C   UNL     1      40.782 -13.459   1.884  1.00  0.00     0.073 A 
HETATM   20  C   UNL     1      41.678 -12.374   2.078  1.00  0.00     0.169 A 
HETATM   21  N   UNL     1      41.071 -11.183   2.057  1.00  0.00    -0.183 NA
HETATM   22  N   UNL     1      39.784 -11.493   1.851  1.00  0.00    -0.283 N 
HETATM   23  C   UNL     1      38.790 -10.449   1.791  1.00  0.00     0.179 C 
HETATM   24  C   UNL     1      39.560 -12.835   1.730  1.00  0.00     0.143 A 
ENDBRANCH   1  19
TORSDOF 4
ENDMDL
MODEL 9
REMARK VINA RESULT:      -6.5      2.514      3.025
REMARK  4 active torsions:
REMARK  status: ('A' for Active; 'I' for Inactive)
REMARK    1  A    between atoms: C_5  and  N_6 
REMARK    2  A    between atoms: N_10  and  C_11 
REMARK    3  A    between atoms: C_11  and  C_12 
REMARK    4  A    between atoms: C_13  and  O_14 
ROOT
HETATM    1  N   UNL     1      41.188 -13.358   4.898  1.00  0.00    -0.312 N 
HETATM    2  C   UNL     1      40.591 -13.760   3.691  1.00  0.00     0.253 C 
HETATM    3  O   UNL     1      39.486 -13.379   3.294  1.00  0.00    -0.271 OA
HETATM    4  C   UNL     1      41.440 -14.624   2.748  1.00  0.00     0.375 C 
HETATM    5  N   UNL     1      42.361 -15.571   3.410  1.00  0.00     0.103 N 
HETATM    6  C   UNL     1      43.183 -14.817   4.359  1.00  0.00     0.293 C 
HETATM    7  C   UNL     1      42.367 -14.066   5.413  1.00  0.00     0.162 C 
ENDROOT
BRANCH   5   8
HETATM    8  C   UNL     1      41.651 -16.695   4.044  1.00  0.00     0.314 C 
BRANCH   8   9
HETATM    9  C   UNL     1      42.588 -17.803   4.478  1.00  0.00     0.006 A 
HETATM   10  C   UNL     1      42.780 -18.123   5.827  1.00  0.00     0.095 A 
HETATM   11  C   UNL     1      43.630 -19.172   6.200  1.00  0.00     0.069 A 
HETATM   12 CL   UNL     1      43.850 -19.563   7.866  1.00  0.00    -0.081 Cl
HETATM   13  C   UNL     1      44.305 -19.913   5.233  1.00  0.00     0.050 A 
HETATM   14  C   UNL     1      44.125 -19.596   3.890  1.00  0.00     0.036 A 
HETATM   15 CL   UNL     1      44.950 -20.507   2.684  1.00  0.00    -0.084 Cl
HETATM   16  C   UNL     1      43.280 -18.553   3.510  1.00  0.00     0.035 A 
BRANCH  10  17
HETATM   17  O   UNL     1      42.110 -17.394   6.774  1.00  0.00    -0.358 OA
HETATM   18  H   UNL     1      42.772 -16.887   7.281  1.00  0.00     0.218 HD
ENDBRANCH  10  17
ENDBRANCH   8   9
ENDBRANCH   5   8
BRANCH   1  19
HETATM   19  C   UNL     1      40.548 -12.391   5.702  1.00  0.00     0.073 A 
HETATM   20  C   UNL     1      39.540 -12.523   6.695  1.00  0.00     0.169 A 
HETATM   21  N   UNL     1      39.166 -11.352   7.221  1.00  0.00    -0.183 NA
HETATM   22  N   UNL     1      39.928 -10.461   6.571  1.00  0.00    -0.283 N 
HETATM   23  C   UNL     1      39.791  -9.053   6.853  1.00  0.00     0.179 C 
HETATM   24  C   UNL     1      40.776 -11.030   5.664  1.00  0.00     0.143 A 
ENDBRANCH   1  19
TORSDOF 4
ENDMDL
MODEL 10
REMARK VINA RESULT:      -6.5      3.052      3.853
REMARK  4 active torsions:
REMARK  status: ('A' for Active; 'I' for Inactive)
REMARK    1  A    between atoms: C_5  and  N_6 
REMARK    2  A    between atoms: N_10  and  C_11 
REMARK    3  A    between atoms: C_11  and  C_12 
REMARK    4  A    between atoms: C_13  and  O_14 
ROOT
HETATM    1  N   UNL     1      41.165 -12.340   5.605  1.00  0.00    -0.312 N 
HETATM    2  C   UNL     1      39.870 -12.887   5.598  1.00  0.00     0.253 C 
HETATM    3  O   UNL     1      38.930 -12.473   6.282  1.00  0.00    -0.271 OA
HETATM    4  C   UNL     1      39.585 -13.986   4.565  1.00  0.00     0.375 C 
HETATM    5  N   UNL     1      40.715 -14.889   4.268  1.00  0.00     0.103 N 
HETATM    6  C   UNL     1      41.868 -14.066   3.895  1.00  0.00     0.293 C 
HETATM    7  C   UNL     1      42.276 -13.061   4.973  1.00  0.00     0.162 C 
ENDROOT
BRANCH   5   8
HETATM    8  C   UNL     1      41.011 -15.805   5.384  1.00  0.00     0.314 C 
BRANCH   8   9
HETATM    9  C   UNL     1      42.117 -16.786   5.051  1.00  0.00     0.006 A 
HETATM   10  C   UNL     1      43.245 -16.933   5.868  1.00  0.00     0.095 A 
HETATM   11  C   UNL     1      44.239 -17.869   5.553  1.00  0.00     0.069 A 
HETATM   12 CL   UNL     1      45.619 -18.048   6.573  1.00  0.00    -0.081 Cl
HETATM   13  C   UNL     1      44.124 -18.666   4.417  1.00  0.00     0.050 A 
HETATM   14  C   UNL     1      43.010 -18.521   3.596  1.00  0.00     0.036 A 
HETATM   15 CL   UNL     1      42.854 -19.504   2.192  1.00  0.00    -0.084 Cl
HETATM   16  C   UNL     1      42.015 -17.592   3.903  1.00  0.00     0.035 A 
BRANCH  10  17
HETATM   17  O   UNL     1      43.349 -16.149   6.986  1.00  0.00    -0.358 OA
HETATM   18  H   UNL     1      42.463 -16.089   7.390  1.00  0.00     0.218 HD
ENDBRANCH  10  17
ENDBRANCH   8   9
ENDBRANCH   5   8
BRANCH   1  19
HETATM   19  C   UNL     1      41.427 -11.186   6.373  1.00  0.00     0.073 A 
HETATM   20  C   UNL     1      42.049 -11.032   7.641  1.00  0.00     0.169 A 
HETATM   21  N   UNL     1      42.087  -9.760   8.055  1.00  0.00    -0.183 NA
HETATM   22  N   UNL     1      41.490  -9.091   7.059  1.00  0.00    -0.283 N 
HETATM   23  C   UNL     1      41.315  -7.663   7.154  1.00  0.00     0.179 C 
HETATM   24  C   UNL     1      41.089  -9.892   6.029  1.00  0.00     0.143 A 
ENDBRANCH   1  19
TORSDOF 4
ENDMDL
