MODEL 1
REMARK VINA RESULT:      -7.8      0.000      0.000
REMARK  6 active torsions:
REMARK  status: ('A' for Active; 'I' for Inactive)
REMARK    1  A    between atoms: C_2  and  C_3 
REMARK    2  A    between atoms: C_3  and  O_4 
REMARK    3  A    between atoms: O_4  and  C_5 
REMARK    4  A    between atoms: C_9  and  C_10 
REMARK       I    between atoms: C_10  and  N_11 
REMARK    5  A    between atoms: N_11  and  C_12 
REMARK    6  A    between atoms: C_25  and  O_26 
ROOT
HETATM    1  C   UNL     1      41.640 -16.744   0.771  1.00  0.00     0.256 C 
HETATM    2  N   UNL     1      42.901 -16.874   1.330  1.00  0.00    -0.323 N 
HETATM    3  O   UNL     1      40.679 -17.473   0.990  1.00  0.00    -0.267 OA
HETATM    4  H   UNL     1      43.626 -16.254   0.988  1.00  0.00     0.169 HD
ENDROOT
BRANCH   1   5
HETATM    5  C   UNL     1      41.468 -15.627  -0.204  1.00  0.00     0.036 A 
HETATM    6  C   UNL     1      41.677 -14.318   0.245  1.00  0.00     0.044 A 
HETATM    7  C   UNL     1      41.519 -13.234  -0.626  1.00  0.00     0.071 A 
HETATM    8  C   UNL     1      41.137 -13.446  -1.959  1.00  0.00     0.123 A 
HETATM    9 CL   UNL     1      41.868 -11.665   0.007  1.00  0.00    -0.081 Cl
HETATM   10  C   UNL     1      41.022 -14.766  -2.423  1.00  0.00     0.104 A 
HETATM   11  C   UNL     1      41.157 -15.849  -1.548  1.00  0.00     0.056 A 
BRANCH   8  12
HETATM   12  O   UNL     1      40.920 -12.431  -2.855  1.00  0.00    -0.346 OA
BRANCH  12  13
HETATM   13  C   UNL     1      42.114 -11.975  -3.507  1.00  0.00     0.179 C 
BRANCH  13  14
HETATM   14  C   UNL     1      42.075 -10.454  -3.726  1.00  0.00     0.002 C 
HETATM   15  C   UNL     1      42.478 -10.082  -5.152  1.00  0.00     0.011 C 
HETATM   16  C   UNL     1      42.953  -9.714  -2.717  1.00  0.00     0.011 C 
ENDBRANCH  13  14
ENDBRANCH  12  13
ENDBRANCH   8  12
BRANCH  10  17
HETATM   17  O   UNL     1      40.714 -15.105  -3.717  1.00  0.00    -0.353 OA
HETATM   18  C   UNL     1      39.378 -15.597  -3.854  1.00  0.00     0.210 C 
ENDBRANCH  10  17
ENDBRANCH   1   5
BRANCH   2  19
HETATM   19  C   UNL     1      43.314 -17.830   2.282  1.00  0.00     0.035 A 
HETATM   20  C   UNL     1      43.018 -17.742   3.645  1.00  0.00     0.039 A 
HETATM   21  C   UNL     1      43.468 -18.740   4.497  1.00  0.00    -0.022 A 
HETATM   22  C   UNL     1      44.207 -19.824   4.021  1.00  0.00    -0.025 A 
HETATM   23  C   UNL     1      43.233 -18.865   5.963  1.00  0.00     0.274 C 
HETATM   24  C   UNL     1      44.531 -20.759   5.136  1.00  0.00     0.273 C 
HETATM   25  C   UNL     1      44.511 -19.935   2.676  1.00  0.00     0.012 A 
HETATM   26  N   UNL     1      44.165 -19.989   6.399  1.00  0.00    -0.067 N 
HETATM   27  H   UNL     1      45.029 -19.527   6.708  1.00  0.00     0.280 HD
HETATM   28  C   UNL     1      43.646 -20.825   7.512  1.00  0.00     0.270 C 
HETATM   29  C   UNL     1      44.062 -18.929   1.810  1.00  0.00     0.030 A 
ENDBRANCH   2  19
TORSDOF 6
ENDMDL
MODEL 2
REMARK VINA RESULT:      -7.4      1.601      1.914
REMARK  6 active torsions:
REMARK  status: ('A' for Active; 'I' for Inactive)
REMARK    1  A    between atoms: C_2  and  C_3 
REMARK    2  A    between atoms: C_3  and  O_4 
REMARK    3  A    between atoms: O_4  and  C_5 
REMARK    4  A    between atoms: C_9  and  C_10 
REMARK       I    between atoms: C_10  and  N_11 
REMARK    5  A    between atoms: N_11  and  C_12 
REMARK    6  A    between atoms: C_25  and  O_26 
ROOT
HETATM    1  C   UNL     1      41.525 -16.150   0.383  1.00  0.00     0.256 C 
HETATM    2  N   UNL     1      42.826 -16.455   0.748  1.00  0.00    -0.323 N 
HETATM    3  O   UNL     1      40.509 -16.583   0.916  1.00  0.00    -0.267 OA
HETATM    4  H   UNL     1      43.569 -16.097   0.160  1.00  0.00     0.169 HD
ENDROOT
BRANCH   1   5
HETATM    5  C   UNL     1      41.370 -15.236  -0.786  1.00  0.00     0.036 A 
HETATM    6  C   UNL     1      41.875 -13.935  -0.679  1.00  0.00     0.044 A 
HETATM    7  C   UNL     1      41.747 -13.033  -1.742  1.00  0.00     0.071 A 
HETATM    8  C   UNL     1      41.101 -13.420  -2.925  1.00  0.00     0.123 A 
HETATM    9 CL   UNL     1      42.464 -11.475  -1.536  1.00  0.00    -0.081 Cl
HETATM   10  C   UNL     1      40.683 -14.754  -3.057  1.00  0.00     0.104 A 
HETATM   11  C   UNL     1      40.789 -15.648  -1.987  1.00  0.00     0.056 A 
BRANCH   8  12
HETATM   12  O   UNL     1      40.900 -12.577  -3.988  1.00  0.00    -0.346 OA
BRANCH  12  13
HETATM   13  C   UNL     1      39.967 -11.522  -3.716  1.00  0.00     0.179 C 
BRANCH  13  14
HETATM   14  C   UNL     1      38.571 -12.087  -3.408  1.00  0.00     0.002 C 
HETATM   15  C   UNL     1      37.524 -11.562  -4.389  1.00  0.00     0.011 C 
HETATM   16  C   UNL     1      38.144 -11.791  -1.970  1.00  0.00     0.011 C 
ENDBRANCH  13  14
ENDBRANCH  12  13
ENDBRANCH   8  12
BRANCH  10  17
HETATM   17  O   UNL     1      40.094 -15.270  -4.184  1.00  0.00    -0.353 OA
HETATM   18  C   UNL     1      39.125 -16.278  -3.886  1.00  0.00     0.210 C 
ENDBRANCH  10  17
ENDBRANCH   1   5
BRANCH   2  19
HETATM   19  C   UNL     1      43.237 -17.278   1.819  1.00  0.00     0.035 A 
HETATM   20  C   UNL     1      43.253 -16.860   3.153  1.00  0.00     0.039 A 
HETATM   21  C   UNL     1      43.671 -17.750   4.132  1.00  0.00    -0.022 A 
HETATM   22  C   UNL     1      44.075 -19.047   3.811  1.00  0.00    -0.025 A 
HETATM   23  C   UNL     1      43.725 -17.529   5.605  1.00  0.00     0.274 C 
HETATM   24  C   UNL     1      44.438 -19.796   5.047  1.00  0.00     0.273 C 
HETATM   25  C   UNL     1      44.067 -19.484   2.499  1.00  0.00     0.012 A 
HETATM   26  N   UNL     1      44.496 -18.731   6.136  1.00  0.00    -0.067 N 
HETATM   27  H   UNL     1      45.477 -18.431   6.186  1.00  0.00     0.280 HD
HETATM   28  C   UNL     1      44.069 -19.192   7.482  1.00  0.00     0.270 C 
HETATM   29  C   UNL     1      43.647 -18.590   1.504  1.00  0.00     0.030 A 
ENDBRANCH   2  19
TORSDOF 6
ENDMDL
MODEL 3
REMARK VINA RESULT:      -7.4      7.566      9.928
REMARK  6 active torsions:
REMARK  status: ('A' for Active; 'I' for Inactive)
REMARK    1  A    between atoms: C_2  and  C_3 
REMARK    2  A    between atoms: C_3  and  O_4 
REMARK    3  A    between atoms: O_4  and  C_5 
REMARK    4  A    between atoms: C_9  and  C_10 
REMARK       I    between atoms: C_10  and  N_11 
REMARK    5  A    between atoms: N_11  and  C_12 
REMARK    6  A    between atoms: C_25  and  O_26 
ROOT
HETATM    1  C   UNL     1      44.370 -13.841   6.900  1.00  0.00     0.256 C 
HETATM    2  N   UNL     1      43.656 -15.022   7.025  1.00  0.00    -0.323 N 
HETATM    3  O   UNL     1      45.334 -13.658   6.164  1.00  0.00    -0.267 OA
HETATM    4  H   UNL     1      42.939 -15.057   7.740  1.00  0.00     0.169 HD
ENDROOT
BRANCH   1   5
HETATM    5  C   UNL     1      43.927 -12.713   7.772  1.00  0.00     0.036 A 
HETATM    6  C   UNL     1      44.718 -12.382   8.878  1.00  0.00     0.044 A 
HETATM    7  C   UNL     1      44.343 -11.340   9.733  1.00  0.00     0.071 A 
HETATM    8  C   UNL     1      43.161 -10.620   9.498  1.00  0.00     0.123 A 
HETATM    9 CL   UNL     1      45.421 -10.965  11.030  1.00  0.00    -0.081 Cl
HETATM   10  C   UNL     1      42.427 -10.898   8.334  1.00  0.00     0.104 A 
HETATM   11  C   UNL     1      42.788 -11.954   7.492  1.00  0.00     0.056 A 
BRANCH   8  12
HETATM   12  O   UNL     1      42.709  -9.619  10.318  1.00  0.00    -0.346 OA
BRANCH  12  13
HETATM   13  C   UNL     1      42.094 -10.096  11.523  1.00  0.00     0.179 C 
BRANCH  13  14
HETATM   14  C   UNL     1      42.228  -9.067  12.656  1.00  0.00     0.002 C 
HETATM   15  C   UNL     1      42.505  -7.666  12.111  1.00  0.00     0.011 C 
HETATM   16  C   UNL     1      43.308  -9.467  13.661  1.00  0.00     0.011 C 
ENDBRANCH  13  14
ENDBRANCH  12  13
ENDBRANCH   8  12
BRANCH  10  17
HETATM   17  O   UNL     1      41.290 -10.225   7.961  1.00  0.00    -0.353 OA
HETATM   18  C   UNL     1      40.095 -10.903   8.357  1.00  0.00     0.210 C 
ENDBRANCH  10  17
ENDBRANCH   1   5
BRANCH   2  19
HETATM   19  C   UNL     1      43.864 -16.220   6.309  1.00  0.00     0.035 A 
HETATM   20  C   UNL     1      43.196 -16.536   5.123  1.00  0.00     0.039 A 
HETATM   21  C   UNL     1      43.478 -17.741   4.493  1.00  0.00    -0.022 A 
HETATM   22  C   UNL     1      44.409 -18.637   5.020  1.00  0.00    -0.025 A 
HETATM   23  C   UNL     1      42.919 -18.254   3.210  1.00  0.00     0.274 C 
HETATM   24  C   UNL     1      44.543 -19.827   4.133  1.00  0.00     0.273 C 
HETATM   25  C   UNL     1      45.084 -18.345   6.192  1.00  0.00     0.012 A 
HETATM   26  N   UNL     1      43.381 -19.706   3.154  1.00  0.00    -0.067 N 
HETATM   27  H   UNL     1      42.613 -20.255   3.559  1.00  0.00     0.280 HD
HETATM   28  C   UNL     1      43.661 -20.212   1.786  1.00  0.00     0.270 C 
HETATM   29  C   UNL     1      44.803 -17.131   6.835  1.00  0.00     0.030 A 
ENDBRANCH   2  19
TORSDOF 6
ENDMDL
MODEL 4
REMARK VINA RESULT:      -7.1      6.796      9.319
REMARK  6 active torsions:
REMARK  status: ('A' for Active; 'I' for Inactive)
REMARK    1  A    between atoms: C_2  and  C_3 
REMARK    2  A    between atoms: C_3  and  O_4 
REMARK    3  A    between atoms: O_4  and  C_5 
REMARK    4  A    between atoms: C_9  and  C_10 
REMARK       I    between atoms: C_10  and  N_11 
REMARK    5  A    between atoms: N_11  and  C_12 
REMARK    6  A    between atoms: C_25  and  O_26 
ROOT
HETATM    1  C   UNL     1      43.619 -14.139   5.468  1.00  0.00     0.256 C 
HETATM    2  N   UNL     1      43.151 -15.420   5.715  1.00  0.00    -0.323 N 
HETATM    3  O   UNL     1      44.169 -13.761   4.439  1.00  0.00    -0.267 OA
HETATM    4  H   UNL     1      42.800 -15.613   6.645  1.00  0.00     0.169 HD
ENDROOT
BRANCH   1   5
HETATM    5  C   UNL     1      43.455 -13.157   6.579  1.00  0.00     0.036 A 
HETATM    6  C   UNL     1      44.430 -13.122   7.582  1.00  0.00     0.044 A 
HETATM    7  C   UNL     1      44.319 -12.227   8.652  1.00  0.00     0.071 A 
HETATM    8  C   UNL     1      43.220 -11.360   8.739  1.00  0.00     0.123 A 
HETATM    9 CL   UNL     1      45.610 -12.216   9.799  1.00  0.00    -0.081 Cl
HETATM   10  C   UNL     1      42.298 -11.337   7.681  1.00  0.00     0.104 A 
HETATM   11  C   UNL     1      42.396 -12.246   6.623  1.00  0.00     0.056 A 
BRANCH   8  12
HETATM   12  O   UNL     1      43.023 -10.490   9.780  1.00  0.00    -0.346 OA
BRANCH  12  13
HETATM   13  C   UNL     1      42.509 -11.118  10.964  1.00  0.00     0.179 C 
BRANCH  13  14
HETATM   14  C   UNL     1      42.179 -10.074  12.042  1.00  0.00     0.002 C 
HETATM   15  C   UNL     1      42.964 -10.328  13.328  1.00  0.00     0.011 C 
HETATM   16  C   UNL     1      40.680 -10.020  12.339  1.00  0.00     0.011 C 
ENDBRANCH  13  14
ENDBRANCH  12  13
ENDBRANCH   8  12
BRANCH  10  17
HETATM   17  O   UNL     1      41.216 -10.494   7.618  1.00  0.00    -0.353 OA
HETATM   18  C   UNL     1      40.000 -11.128   8.023  1.00  0.00     0.210 C 
ENDBRANCH  10  17
ENDBRANCH   1   5
BRANCH   2  19
HETATM   19  C   UNL     1      43.174 -16.518   4.829  1.00  0.00     0.035 A 
HETATM   20  C   UNL     1      44.000 -17.632   5.001  1.00  0.00     0.039 A 
HETATM   21  C   UNL     1      43.941 -18.662   4.072  1.00  0.00    -0.022 A 
HETATM   22  C   UNL     1      43.080 -18.605   2.976  1.00  0.00    -0.025 A 
HETATM   23  C   UNL     1      44.695 -19.948   4.085  1.00  0.00     0.274 C 
HETATM   24  C   UNL     1      43.193 -19.849   2.162  1.00  0.00     0.273 C 
HETATM   25  C   UNL     1      42.252 -17.513   2.785  1.00  0.00     0.012 A 
HETATM   26  N   UNL     1      44.429 -20.552   2.711  1.00  0.00    -0.067 N 
HETATM   27  H   UNL     1      45.212 -20.249   2.120  1.00  0.00     0.280 HD
HETATM   28  C   UNL     1      44.363 -22.036   2.692  1.00  0.00     0.270 C 
HETATM   29  C   UNL     1      42.307 -16.468   3.718  1.00  0.00     0.030 A 
ENDBRANCH   2  19
TORSDOF 6
ENDMDL
MODEL 5
REMARK VINA RESULT:      -7.1      6.409      9.089
REMARK  6 active torsions:
REMARK  status: ('A' for Active; 'I' for Inactive)
REMARK    1  A    between atoms: C_2  and  C_3 
REMARK    2  A    between atoms: C_3  and  O_4 
REMARK    3  A    between atoms: O_4  and  C_5 
REMARK    4  A    between atoms: C_9  and  C_10 
REMARK       I    between atoms: C_10  and  N_11 
REMARK    5  A    between atoms: N_11  and  C_12 
REMARK    6  A    between atoms: C_25  and  O_26 
ROOT
HETATM    1  C   UNL     1      43.460 -14.243   5.091  1.00  0.00     0.256 C 
HETATM    2  N   UNL     1      43.044 -15.533   5.381  1.00  0.00    -0.323 N 
HETATM    3  O   UNL     1      43.979 -13.873   4.044  1.00  0.00    -0.267 OA
HETATM    4  H   UNL     1      42.716 -15.715   6.322  1.00  0.00     0.169 HD
ENDROOT
BRANCH   1   5
HETATM    5  C   UNL     1      43.278 -13.238   6.179  1.00  0.00     0.036 A 
HETATM    6  C   UNL     1      42.129 -12.440   6.157  1.00  0.00     0.044 A 
HETATM    7  C   UNL     1      41.915 -11.475   7.148  1.00  0.00     0.071 A 
HETATM    8  C   UNL     1      42.857 -11.287   8.170  1.00  0.00     0.123 A 
HETATM    9 CL   UNL     1      40.434 -10.590   7.070  1.00  0.00    -0.081 Cl
HETATM   10  C   UNL     1      43.958 -12.156   8.236  1.00  0.00     0.104 A 
HETATM   11  C   UNL     1      44.184 -13.105   7.234  1.00  0.00     0.056 A 
BRANCH   8  12
HETATM   12  O   UNL     1      42.735 -10.332   9.146  1.00  0.00    -0.346 OA
BRANCH  12  13
HETATM   13  C   UNL     1      41.829 -10.696  10.197  1.00  0.00     0.179 C 
BRANCH  13  14
HETATM   14  C   UNL     1      42.591 -11.052  11.483  1.00  0.00     0.002 C 
HETATM   15  C   UNL     1      41.644 -11.203  12.673  1.00  0.00     0.011 C 
HETATM   16  C   UNL     1      43.680 -10.027  11.799  1.00  0.00     0.011 C 
ENDBRANCH  13  14
ENDBRANCH  12  13
ENDBRANCH   8  12
BRANCH  10  17
HETATM   17  O   UNL     1      44.915 -12.116   9.219  1.00  0.00    -0.353 OA
HETATM   18  C   UNL     1      46.244 -12.109   8.693  1.00  0.00     0.210 C 
ENDBRANCH  10  17
ENDBRANCH   1   5
BRANCH   2  19
HETATM   19  C   UNL     1      43.093 -16.654   4.523  1.00  0.00     0.035 A 
HETATM   20  C   UNL     1      43.936 -17.749   4.730  1.00  0.00     0.039 A 
HETATM   21  C   UNL     1      43.902 -18.803   3.829  1.00  0.00    -0.022 A 
HETATM   22  C   UNL     1      43.048 -18.789   2.725  1.00  0.00    -0.025 A 
HETATM   23  C   UNL     1      44.678 -20.075   3.880  1.00  0.00     0.274 C 
HETATM   24  C   UNL     1      43.189 -20.052   1.945  1.00  0.00     0.273 C 
HETATM   25  C   UNL     1      42.203 -17.717   2.500  1.00  0.00     0.012 A 
HETATM   26  N   UNL     1      44.433 -20.719   2.520  1.00  0.00    -0.067 N 
HETATM   27  H   UNL     1      45.215 -20.418   1.928  1.00  0.00     0.280 HD
HETATM   28  C   UNL     1      44.392 -22.204   2.539  1.00  0.00     0.270 C 
HETATM   29  C   UNL     1      42.233 -16.648   3.405  1.00  0.00     0.030 A 
ENDBRANCH   2  19
TORSDOF 6
ENDMDL
MODEL 6
REMARK VINA RESULT:      -7.1      7.957     10.200
REMARK  6 active torsions:
REMARK  status: ('A' for Active; 'I' for Inactive)
REMARK    1  A    between atoms: C_2  and  C_3 
REMARK    2  A    between atoms: C_3  and  O_4 
REMARK    3  A    between atoms: O_4  and  C_5 
REMARK    4  A    between atoms: C_9  and  C_10 
REMARK       I    between atoms: C_10  and  N_11 
REMARK    5  A    between atoms: N_11  and  C_12 
REMARK    6  A    between atoms: C_25  and  O_26 
ROOT
HETATM    1  C   UNL     1      39.966 -12.403   6.475  1.00  0.00     0.256 C 
HETATM    2  N   UNL     1      40.583 -11.512   7.341  1.00  0.00    -0.323 N 
HETATM    3  O   UNL     1      38.758 -12.577   6.364  1.00  0.00    -0.267 OA
HETATM    4  H   UNL     1      41.594 -11.540   7.391  1.00  0.00     0.169 HD
ENDROOT
BRANCH   1   5
HETATM    5  C   UNL     1      40.877 -13.235   5.636  1.00  0.00     0.036 A 
HETATM    6  C   UNL     1      40.307 -14.060   4.659  1.00  0.00     0.044 A 
HETATM    7  C   UNL     1      41.115 -14.868   3.851  1.00  0.00     0.071 A 
HETATM    8  C   UNL     1      42.508 -14.870   4.019  1.00  0.00     0.123 A 
HETATM    9 CL   UNL     1      40.321 -15.796   2.631  1.00  0.00    -0.081 Cl
HETATM   10  C   UNL     1      43.075 -13.970   4.936  1.00  0.00     0.104 A 
HETATM   11  C   UNL     1      42.267 -13.179   5.759  1.00  0.00     0.056 A 
BRANCH   8  12
HETATM   12  O   UNL     1      43.357 -15.669   3.296  1.00  0.00    -0.346 OA
BRANCH  12  13
HETATM   13  C   UNL     1      43.437 -17.014   3.788  1.00  0.00     0.179 C 
BRANCH  13  14
HETATM   14  C   UNL     1      43.408 -18.026   2.632  1.00  0.00     0.002 C 
HETATM   15  C   UNL     1      44.079 -19.343   3.020  1.00  0.00     0.011 C 
HETATM   16  C   UNL     1      44.050 -17.458   1.366  1.00  0.00     0.011 C 
ENDBRANCH  13  14
ENDBRANCH  12  13
ENDBRANCH   8  12
BRANCH  10  17
HETATM   17  O   UNL     1      44.424 -13.834   5.148  1.00  0.00    -0.353 OA
HETATM   18  C   UNL     1      44.791 -14.044   6.514  1.00  0.00     0.210 C 
ENDBRANCH  10  17
ENDBRANCH   1   5
BRANCH   2  19
HETATM   19  C   UNL     1      39.950 -10.609   8.222  1.00  0.00     0.035 A 
HETATM   20  C   UNL     1      39.908 -10.784   9.608  1.00  0.00     0.039 A 
HETATM   21  C   UNL     1      39.263  -9.833  10.387  1.00  0.00    -0.022 A 
HETATM   22  C   UNL     1      38.659  -8.712   9.814  1.00  0.00    -0.025 A 
HETATM   23  C   UNL     1      39.137  -9.800  11.871  1.00  0.00     0.274 C 
HETATM   24  C   UNL     1      38.074  -7.842  10.873  1.00  0.00     0.273 C 
HETATM   25  C   UNL     1      38.689  -8.517   8.445  1.00  0.00     0.012 A 
HETATM   26  N   UNL     1      38.125  -8.692  12.137  1.00  0.00    -0.067 N 
HETATM   27  H   UNL     1      37.213  -9.161  12.199  1.00  0.00     0.280 HD
HETATM   28  C   UNL     1      38.357  -7.932  13.391  1.00  0.00     0.270 C 
HETATM   29  C   UNL     1      39.337  -9.474   7.652  1.00  0.00     0.030 A 
ENDBRANCH   2  19
TORSDOF 6
ENDMDL
MODEL 7
REMARK VINA RESULT:      -6.9      7.628      9.899
REMARK  6 active torsions:
REMARK  status: ('A' for Active; 'I' for Inactive)
REMARK    1  A    between atoms: C_2  and  C_3 
REMARK    2  A    between atoms: C_3  and  O_4 
REMARK    3  A    between atoms: O_4  and  C_5 
REMARK    4  A    between atoms: C_9  and  C_10 
REMARK       I    between atoms: C_10  and  N_11 
REMARK    5  A    between atoms: N_11  and  C_12 
REMARK    6  A    between atoms: C_25  and  O_26 
ROOT
HETATM    1  C   UNL     1      39.640 -12.700   6.036  1.00  0.00     0.256 C 
HETATM    2  N   UNL     1      40.442 -12.136   7.015  1.00  0.00    -0.323 N 
HETATM    3  O   UNL     1      38.539 -12.292   5.685  1.00  0.00    -0.267 OA
HETATM    4  H   UNL     1      41.288 -12.633   7.265  1.00  0.00     0.169 HD
ENDROOT
BRANCH   1   5
HETATM    5  C   UNL     1      40.172 -13.934   5.386  1.00  0.00     0.036 A 
HETATM    6  C   UNL     1      40.844 -14.866   6.185  1.00  0.00     0.044 A 
HETATM    7  C   UNL     1      41.371 -16.034   5.623  1.00  0.00     0.071 A 
HETATM    8  C   UNL     1      41.243 -16.281   4.248  1.00  0.00     0.123 A 
HETATM    9 CL   UNL     1      42.121 -17.153   6.705  1.00  0.00    -0.081 Cl
HETATM   10  C   UNL     1      40.486 -15.387   3.474  1.00  0.00     0.104 A 
HETATM   11  C   UNL     1      39.979 -14.208   4.029  1.00  0.00     0.056 A 
BRANCH   8  12
HETATM   12  O   UNL     1      41.773 -17.380   3.623  1.00  0.00    -0.346 OA
BRANCH  12  13
HETATM   13  C   UNL     1      43.140 -17.209   3.222  1.00  0.00     0.179 C 
BRANCH  13  14
HETATM   14  C   UNL     1      43.831 -18.568   3.027  1.00  0.00     0.002 C 
HETATM   15  C   UNL     1      43.016 -19.488   2.119  1.00  0.00     0.011 C 
HETATM   16  C   UNL     1      44.112 -19.257   4.363  1.00  0.00     0.011 C 
ENDBRANCH  13  14
ENDBRANCH  12  13
ENDBRANCH   8  12
BRANCH  10  17
HETATM   17  O   UNL     1      40.236 -15.547   2.134  1.00  0.00    -0.353 OA
HETATM   18  C   UNL     1      38.976 -14.998   1.740  1.00  0.00     0.210 C 
ENDBRANCH  10  17
ENDBRANCH   1   5
BRANCH   2  19
HETATM   19  C   UNL     1      40.176 -10.968   7.762  1.00  0.00     0.035 A 
HETATM   20  C   UNL     1      39.242 -10.912   8.800  1.00  0.00     0.039 A 
HETATM   21  C   UNL     1      39.059  -9.713   9.476  1.00  0.00    -0.022 A 
HETATM   22  C   UNL     1      39.785  -8.570   9.139  1.00  0.00    -0.025 A 
HETATM   23  C   UNL     1      38.155  -9.443  10.629  1.00  0.00     0.274 C 
HETATM   24  C   UNL     1      39.420  -7.440  10.039  1.00  0.00     0.273 C 
HETATM   25  C   UNL     1      40.717  -8.602   8.116  1.00  0.00     0.012 A 
HETATM   26  N   UNL     1      38.178  -7.927  10.777  1.00  0.00    -0.067 N 
HETATM   27  H   UNL     1      37.375  -7.585  10.236  1.00  0.00     0.280 HD
HETATM   28  C   UNL     1      38.053  -7.441  12.175  1.00  0.00     0.270 C 
HETATM   29  C   UNL     1      40.905  -9.808   7.428  1.00  0.00     0.030 A 
ENDBRANCH   2  19
TORSDOF 6
ENDMDL
MODEL 8
REMARK VINA RESULT:      -6.9      2.339      3.302
REMARK  6 active torsions:
REMARK  status: ('A' for Active; 'I' for Inactive)
REMARK    1  A    between atoms: C_2  and  C_3 
REMARK    2  A    between atoms: C_3  and  O_4 
REMARK    3  A    between atoms: O_4  and  C_5 
REMARK    4  A    between atoms: C_9  and  C_10 
REMARK       I    between atoms: C_10  and  N_11 
REMARK    5  A    between atoms: N_11  and  C_12 
REMARK    6  A    between atoms: C_25  and  O_26 
ROOT
HETATM    1  C   UNL     1      42.061 -15.500   1.042  1.00  0.00     0.256 C 
HETATM    2  N   UNL     1      42.024 -16.884   1.099  1.00  0.00    -0.323 N 
HETATM    3  O   UNL     1      42.624 -14.762   1.844  1.00  0.00    -0.267 OA
HETATM    4  H   UNL     1      41.443 -17.361   0.420  1.00  0.00     0.169 HD
ENDROOT
BRANCH   1   5
HETATM    5  C   UNL     1      41.317 -14.872  -0.088  1.00  0.00     0.036 A 
HETATM    6  C   UNL     1      41.013 -15.663  -1.202  1.00  0.00     0.044 A 
HETATM    7  C   UNL     1      40.325 -15.121  -2.293  1.00  0.00     0.071 A 
HETATM    8  C   UNL     1      39.942 -13.771  -2.290  1.00  0.00     0.123 A 
HETATM    9 CL   UNL     1      39.938 -16.197  -3.587  1.00  0.00    -0.081 Cl
HETATM   10  C   UNL     1      40.168 -13.012  -1.131  1.00  0.00     0.104 A 
HETATM   11  C   UNL     1      40.875 -13.547  -0.049  1.00  0.00     0.056 A 
BRANCH   8  12
HETATM   12  O   UNL     1      39.307 -13.162  -3.341  1.00  0.00    -0.346 OA
BRANCH  12  13
HETATM   13  C   UNL     1      37.906 -13.461  -3.418  1.00  0.00     0.179 C 
BRANCH  13  14
HETATM   14  C   UNL     1      37.093 -12.205  -3.772  1.00  0.00     0.002 C 
HETATM   15  C   UNL     1      36.672 -11.438  -2.519  1.00  0.00     0.011 C 
HETATM   16  C   UNL     1      35.869 -12.543  -4.623  1.00  0.00     0.011 C 
ENDBRANCH  13  14
ENDBRANCH  12  13
ENDBRANCH   8  12
BRANCH  10  17
HETATM   17  O   UNL     1      39.787 -11.702  -0.980  1.00  0.00    -0.353 OA
HETATM   18  C   UNL     1      39.824 -11.272   0.383  1.00  0.00     0.210 C 
ENDBRANCH  10  17
ENDBRANCH   1   5
BRANCH   2  19
HETATM   19  C   UNL     1      42.654 -17.712   2.053  1.00  0.00     0.035 A 
HETATM   20  C   UNL     1      42.375 -17.666   3.421  1.00  0.00     0.039 A 
HETATM   21  C   UNL     1      43.048 -18.528   4.275  1.00  0.00    -0.022 A 
HETATM   22  C   UNL     1      43.995 -19.434   3.795  1.00  0.00    -0.025 A 
HETATM   23  C   UNL     1      42.877 -18.675   5.748  1.00  0.00     0.274 C 
HETATM   24  C   UNL     1      44.538 -20.257   4.913  1.00  0.00     0.273 C 
HETATM   25  C   UNL     1      44.288 -19.500   2.444  1.00  0.00     0.012 A 
HETATM   26  N   UNL     1      44.040 -19.562   6.175  1.00  0.00    -0.067 N 
HETATM   27  H   UNL     1      44.789 -18.919   6.457  1.00  0.00     0.280 HD
HETATM   28  C   UNL     1      43.739 -20.471   7.310  1.00  0.00     0.270 C 
HETATM   29  C   UNL     1      43.612 -18.631   1.577  1.00  0.00     0.030 A 
ENDBRANCH   2  19
TORSDOF 6
ENDMDL
MODEL 9
REMARK VINA RESULT:      -6.8      8.447     11.068
REMARK  6 active torsions:
REMARK  status: ('A' for Active; 'I' for Inactive)
REMARK    1  A    between atoms: C_2  and  C_3 
REMARK    2  A    between atoms: C_3  and  O_4 
REMARK    3  A    between atoms: O_4  and  C_5 
REMARK    4  A    between atoms: C_9  and  C_10 
REMARK       I    between atoms: C_10  and  N_11 
REMARK    5  A    between atoms: N_11  and  C_12 
REMARK    6  A    between atoms: C_25  and  O_26 
ROOT
HETATM    1  C   UNL     1      41.793 -11.679   6.629  1.00  0.00     0.256 C 
HETATM    2  N   UNL     1      42.343 -12.948   6.544  1.00  0.00    -0.323 N 
HETATM    3  O   UNL     1      41.344 -11.026   5.693  1.00  0.00    -0.267 OA
HETATM    4  H   UNL     1      42.758 -13.330   7.386  1.00  0.00     0.169 HD
ENDROOT
BRANCH   1   5
HETATM    5  C   UNL     1      41.784 -11.059   7.987  1.00  0.00     0.036 A 
HETATM    6  C   UNL     1      42.967 -11.086   8.734  1.00  0.00     0.044 A 
HETATM    7  C   UNL     1      43.010 -10.527  10.017  1.00  0.00     0.071 A 
HETATM    8  C   UNL     1      41.863  -9.944  10.575  1.00  0.00     0.123 A 
HETATM    9 CL   UNL     1      44.534 -10.549  10.828  1.00  0.00    -0.081 Cl
HETATM   10  C   UNL     1      40.709  -9.839   9.781  1.00  0.00     0.104 A 
HETATM   11  C   UNL     1      40.658 -10.416   8.509  1.00  0.00     0.056 A 
BRANCH   8  12
HETATM   12  O   UNL     1      41.819  -9.420  11.841  1.00  0.00    -0.346 OA
BRANCH  12  13
HETATM   13  C   UNL     1      41.508 -10.388  12.853  1.00  0.00     0.179 C 
BRANCH  13  14
HETATM   14  C   UNL     1      42.391 -10.190  14.095  1.00  0.00     0.002 C 
HETATM   15  C   UNL     1      41.560  -9.810  15.320  1.00  0.00     0.011 C 
HETATM   16  C   UNL     1      43.484  -9.149  13.853  1.00  0.00     0.011 C 
ENDBRANCH  13  14
ENDBRANCH  12  13
ENDBRANCH   8  12
BRANCH  10  17
HETATM   17  O   UNL     1      39.544  -9.238  10.189  1.00  0.00    -0.353 OA
HETATM   18  C   UNL     1      38.797  -8.691   9.100  1.00  0.00     0.210 C 
ENDBRANCH  10  17
ENDBRANCH   1   5
BRANCH   2  19
HETATM   19  C   UNL     1      42.455 -13.749   5.388  1.00  0.00     0.035 A 
HETATM   20  C   UNL     1      41.558 -14.771   5.066  1.00  0.00     0.039 A 
HETATM   21  C   UNL     1      41.756 -15.498   3.900  1.00  0.00    -0.022 A 
HETATM   22  C   UNL     1      42.830 -15.229   3.049  1.00  0.00    -0.025 A 
HETATM   23  C   UNL     1      40.907 -16.591   3.349  1.00  0.00     0.274 C 
HETATM   24  C   UNL     1      42.786 -16.128   1.861  1.00  0.00     0.273 C 
HETATM   25  C   UNL     1      43.730 -14.221   3.346  1.00  0.00     0.012 A 
HETATM   26  N   UNL     1      41.739 -17.178   2.215  1.00  0.00    -0.067 N 
HETATM   27  H   UNL     1      42.255 -17.963   2.629  1.00  0.00     0.280 HD
HETATM   28  C   UNL     1      40.946 -17.680   1.064  1.00  0.00     0.270 C 
HETATM   29  C   UNL     1      43.537 -13.485   4.523  1.00  0.00     0.030 A 
ENDBRANCH   2  19
TORSDOF 6
ENDMDL
MODEL 10
REMARK VINA RESULT:      -6.8      6.225      7.972
REMARK  6 active torsions:
REMARK  status: ('A' for Active; 'I' for Inactive)
REMARK    1  A    between atoms: C_2  and  C_3 
REMARK    2  A    between atoms: C_3  and  O_4 
REMARK    3  A    between atoms: O_4  and  C_5 
REMARK    4  A    between atoms: C_9  and  C_10 
REMARK       I    between atoms: C_10  and  N_11 
REMARK    5  A    between atoms: N_11  and  C_12 
REMARK    6  A    between atoms: C_25  and  O_26 
ROOT
HETATM    1  C   UNL     1      42.807 -14.263   5.237  1.00  0.00     0.256 C 
HETATM    2  N   UNL     1      42.283 -15.544   5.300  1.00  0.00    -0.323 N 
HETATM    3  O   UNL     1      43.897 -13.954   4.768  1.00  0.00    -0.267 OA
HETATM    4  H   UNL     1      41.409 -15.664   5.799  1.00  0.00     0.169 HD
ENDROOT
BRANCH   1   5
HETATM    5  C   UNL     1      41.964 -13.182   5.828  1.00  0.00     0.036 A 
HETATM    6  C   UNL     1      42.540 -12.347   6.792  1.00  0.00     0.044 A 
HETATM    7  C   UNL     1      41.791 -11.324   7.385  1.00  0.00     0.071 A 
HETATM    8  C   UNL     1      40.448 -11.131   7.028  1.00  0.00     0.123 A 
HETATM    9 CL   UNL     1      42.612 -10.305   8.512  1.00  0.00    -0.081 Cl
HETATM   10  C   UNL     1      39.909 -11.912   5.993  1.00  0.00     0.104 A 
HETATM   11  C   UNL     1      40.650 -12.949   5.416  1.00  0.00     0.056 A 
BRANCH   8  12
HETATM   12  O   UNL     1      39.642 -10.180   7.599  1.00  0.00    -0.346 OA
BRANCH  12  13
HETATM   13  C   UNL     1      38.951 -10.640   8.770  1.00  0.00     0.179 C 
BRANCH  13  14
HETATM   14  C   UNL     1      39.419  -9.878  10.020  1.00  0.00     0.002 C 
HETATM   15  C   UNL     1      40.136 -10.801  11.005  1.00  0.00     0.011 C 
HETATM   16  C   UNL     1      38.260  -9.162  10.713  1.00  0.00     0.011 C 
ENDBRANCH  13  14
ENDBRANCH  12  13
ENDBRANCH   8  12
BRANCH  10  17
HETATM   17  O   UNL     1      38.631 -11.779   5.512  1.00  0.00    -0.353 OA
HETATM   18  C   UNL     1      38.599 -11.392   4.135  1.00  0.00     0.210 C 
ENDBRANCH  10  17
ENDBRANCH   1   5
BRANCH   2  19
HETATM   19  C   UNL     1      42.871 -16.727   4.803  1.00  0.00     0.035 A 
HETATM   20  C   UNL     1      43.288 -17.784   5.618  1.00  0.00     0.039 A 
HETATM   21  C   UNL     1      43.850 -18.907   5.027  1.00  0.00    -0.022 A 
HETATM   22  C   UNL     1      44.008 -18.999   3.644  1.00  0.00    -0.025 A 
HETATM   23  C   UNL     1      44.320 -20.153   5.696  1.00  0.00     0.274 C 
HETATM   24  C   UNL     1      44.602 -20.316   3.277  1.00  0.00     0.273 C 
HETATM   25  C   UNL     1      43.601 -17.967   2.817  1.00  0.00     0.012 A 
HETATM   26  N   UNL     1      45.066 -20.907   4.603  1.00  0.00    -0.067 N 
HETATM   27  H   UNL     1      46.052 -20.636   4.703  1.00  0.00     0.280 HD
HETATM   28  C   UNL     1      44.966 -22.387   4.695  1.00  0.00     0.270 C 
HETATM   29  C   UNL     1      43.033 -16.829   3.406  1.00  0.00     0.030 A 
ENDBRANCH   2  19
TORSDOF 6
ENDMDL
