MODEL 1
REMARK VINA RESULT:      -8.7      0.000      0.000
REMARK  9 active torsions:
REMARK  status: ('A' for Active; 'I' for Inactive)
REMARK    1  A    between atoms: C_4  and  C_5 
REMARK    2  A    between atoms: C_8  and  C_9 
REMARK       I    between atoms: C_9  and  N_10 
REMARK    3  A    between atoms: N_10  and  C_26 
REMARK    4  A    between atoms: N_10  and  C_11 
REMARK    5  A    between atoms: C_11  and  C_12 
REMARK    6  A    between atoms: C_11  and  C_21 
REMARK       I    between atoms: C_12  and  N_13 
REMARK    7  A    between atoms: N_13  and  C_14 
REMARK    8  A    between atoms: C_14  and  C_15 
REMARK    9  A    between atoms: C_26  and  C_27 
ROOT
HETATM    1  C   UNL     1      40.645 -16.318   2.104  1.00  0.00     0.271 C 
HETATM    2  N   UNL     1      40.836 -14.947   2.308  1.00  0.00    -0.324 N 
HETATM    3  O   UNL     1      39.511 -16.796   2.115  1.00  0.00    -0.266 OA
ENDROOT
BRANCH   2   4
HETATM    4  C   UNL     1      39.715 -14.222   2.927  1.00  0.00     0.173 C 
BRANCH   4   5
HETATM    5  C   UNL     1      38.850 -13.534   1.919  1.00  0.00     0.000 A 
HETATM    6  S   UNL     1      38.378 -11.900   2.145  1.00  0.00    -0.105 SA
HETATM    7  C   UNL     1      37.494 -11.884   0.683  1.00  0.00     0.050 A 
HETATM    8  C   UNL     1      37.520 -13.107   0.051  1.00  0.00     0.008 A 
HETATM    9  C   UNL     1      38.289 -14.064   0.773  1.00  0.00     0.017 A 
ENDBRANCH   4   5
ENDBRANCH   2   4
BRANCH   2  10
HETATM   10  C   UNL     1      42.114 -14.232   2.054  1.00  0.00     0.220 C 
BRANCH  10  11
HETATM   11  C   UNL     1      42.833 -13.996   3.399  1.00  0.00     0.245 C 
HETATM   12  N   UNL     1      42.335 -14.668   4.498  1.00  0.00    -0.357 N 
HETATM   13  H   UNL     1      41.398 -15.055   4.433  1.00  0.00     0.162 HD
HETATM   14  O   UNL     1      43.914 -13.399   3.415  1.00  0.00    -0.271 OA
BRANCH  12  15
HETATM   15  C   UNL     1      42.944 -14.576   5.814  1.00  0.00     0.154 C 
BRANCH  15  16
HETATM   16  C   UNL     1      43.830 -15.793   6.135  1.00  0.00     0.139 C 
HETATM   17  O   UNL     1      43.496 -16.892   5.270  1.00  0.00    -0.384 OA
HETATM   18  C   UNL     1      42.645 -17.802   5.982  1.00  0.00     0.168 C 
HETATM   19  C   UNL     1      42.421 -17.234   7.368  1.00  0.00     0.029 C 
HETATM   20  C   UNL     1      43.603 -16.314   7.546  1.00  0.00     0.035 C 
ENDBRANCH  15  16
ENDBRANCH  12  15
ENDBRANCH  10  11
BRANCH  10  21
HETATM   21  C   UNL     1      41.979 -13.078   1.081  1.00  0.00     0.014 A 
HETATM   22  S   UNL     1      41.665 -13.304  -0.595  1.00  0.00    -0.104 SA
HETATM   23  C   UNL     1      41.534 -11.628  -0.883  1.00  0.00     0.050 A 
HETATM   24  C   UNL     1      41.671 -10.896   0.273  1.00  0.00     0.008 A 
HETATM   25  C   UNL     1      41.902 -11.730   1.402  1.00  0.00     0.017 A 
ENDBRANCH  10  21
ENDBRANCH   2  10
BRANCH   1  26
HETATM   26  C   UNL     1      41.789 -17.173   1.854  1.00  0.00     0.101 C 
HETATM   27  N   UNL     1      42.012 -18.434   2.372  1.00  0.00    -0.351 N 
HETATM   28  C   UNL     1      43.273 -18.879   2.031  1.00  0.00     0.043 C 
HETATM   29  H   UNL     1      41.378 -18.929   2.992  1.00  0.00     0.166 HD
HETATM   30  C   UNL     1      43.748 -18.001   1.073  1.00  0.00     0.033 C 
HETATM   31  C   UNL     1      42.814 -16.947   0.951  1.00  0.00     0.037 C 
BRANCH  28  32
HETATM   32  C   UNL     1      43.896 -20.063   2.623  1.00  0.00    -0.009 A 
HETATM   33  C   UNL     1      44.441 -20.012   3.912  1.00  0.00     0.013 A 
HETATM   34  C   UNL     1      44.978 -21.157   4.506  1.00  0.00     0.001 A 
HETATM   35  C   UNL     1      44.967 -22.370   3.819  1.00  0.00     0.000 A 
HETATM   36  C   UNL     1      44.430 -22.435   2.536  1.00  0.00     0.001 A 
HETATM   37  C   UNL     1      43.901 -21.288   1.939  1.00  0.00     0.013 A 
ENDBRANCH  28  32
ENDBRANCH   1  26
TORSDOF 9
ENDMDL
MODEL 2
REMARK VINA RESULT:      -8.2      2.374      3.435
REMARK  9 active torsions:
REMARK  status: ('A' for Active; 'I' for Inactive)
REMARK    1  A    between atoms: C_4  and  C_5 
REMARK    2  A    between atoms: C_8  and  C_9 
REMARK       I    between atoms: C_9  and  N_10 
REMARK    3  A    between atoms: N_10  and  C_26 
REMARK    4  A    between atoms: N_10  and  C_11 
REMARK    5  A    between atoms: C_11  and  C_12 
REMARK    6  A    between atoms: C_11  and  C_21 
REMARK       I    between atoms: C_12  and  N_13 
REMARK    7  A    between atoms: N_13  and  C_14 
REMARK    8  A    between atoms: C_14  and  C_15 
REMARK    9  A    between atoms: C_26  and  C_27 
ROOT
HETATM    1  C   UNL     1      39.681 -14.917   1.853  1.00  0.00     0.271 C 
HETATM    2  N   UNL     1      40.158 -13.772   1.206  1.00  0.00    -0.324 N 
HETATM    3  O   UNL     1      38.508 -15.265   1.717  1.00  0.00    -0.266 OA
ENDROOT
BRANCH   2   4
HETATM    4  C   UNL     1      39.138 -12.824   0.732  1.00  0.00     0.173 C 
BRANCH   4   5
HETATM    5  C   UNL     1      38.867 -12.958  -0.733  1.00  0.00     0.000 A 
HETATM    6  S   UNL     1      38.703 -11.565  -1.721  1.00  0.00    -0.105 SA
HETATM    7  C   UNL     1      38.437 -12.509  -3.121  1.00  0.00     0.050 A 
HETATM    8  C   UNL     1      38.431 -13.856  -2.841  1.00  0.00     0.008 A 
HETATM    9  C   UNL     1      38.664 -14.116  -1.460  1.00  0.00     0.017 A 
ENDBRANCH   4   5
ENDBRANCH   2   4
BRANCH   2  10
HETATM   10  C   UNL     1      41.596 -13.415   1.088  1.00  0.00     0.220 C 
BRANCH  10  11
HETATM   11  C   UNL     1      42.071 -12.793   2.417  1.00  0.00     0.245 C 
HETATM   12  N   UNL     1      41.168 -11.990   3.087  1.00  0.00    -0.357 N 
HETATM   13  H   UNL     1      40.369 -11.640   2.568  1.00  0.00     0.162 HD
HETATM   14  O   UNL     1      43.127 -13.179   2.928  1.00  0.00    -0.271 OA
BRANCH  12  15
HETATM   15  C   UNL     1      41.465 -11.381   4.372  1.00  0.00     0.154 C 
BRANCH  15  16
HETATM   16  C   UNL     1      40.205 -10.829   5.063  1.00  0.00     0.139 C 
HETATM   17  O   UNL     1      40.397 -10.790   6.488  1.00  0.00    -0.384 OA
HETATM   18  C   UNL     1      39.756 -11.933   7.074  1.00  0.00     0.168 C 
HETATM   19  C   UNL     1      39.140 -12.741   5.951  1.00  0.00     0.029 C 
HETATM   20  C   UNL     1      38.993 -11.722   4.848  1.00  0.00     0.035 C 
ENDBRANCH  15  16
ENDBRANCH  12  15
ENDBRANCH  10  11
BRANCH  10  21
HETATM   21  C   UNL     1      41.941 -12.719  -0.214  1.00  0.00     0.014 A 
HETATM   22  S   UNL     1      42.313 -11.042  -0.303  1.00  0.00    -0.104 SA
HETATM   23  C   UNL     1      42.689 -11.128  -1.965  1.00  0.00     0.050 A 
HETATM   24  C   UNL     1      42.589 -12.411  -2.449  1.00  0.00     0.008 A 
HETATM   25  C   UNL     1      42.184 -13.326  -1.438  1.00  0.00     0.017 A 
ENDBRANCH  10  21
ENDBRANCH   2  10
BRANCH   1  26
HETATM   26  C   UNL     1      40.581 -15.710   2.667  1.00  0.00     0.101 C 
HETATM   27  N   UNL     1      41.527 -16.614   2.219  1.00  0.00    -0.351 N 
HETATM   28  C   UNL     1      42.091 -17.287   3.282  1.00  0.00     0.043 C 
HETATM   29  H   UNL     1      41.717 -16.821   1.243  1.00  0.00     0.166 HD
HETATM   30  C   UNL     1      41.686 -16.619   4.424  1.00  0.00     0.033 C 
HETATM   31  C   UNL     1      40.758 -15.624   4.038  1.00  0.00     0.037 C 
BRANCH  28  32
HETATM   32  C   UNL     1      42.942 -18.467   3.128  1.00  0.00    -0.009 A 
HETATM   33  C   UNL     1      43.816 -18.853   4.151  1.00  0.00     0.013 A 
HETATM   34  C   UNL     1      44.582 -20.016   4.035  1.00  0.00     0.001 A 
HETATM   35  C   UNL     1      44.476 -20.811   2.895  1.00  0.00     0.000 A 
HETATM   36  C   UNL     1      43.612 -20.438   1.868  1.00  0.00     0.001 A 
HETATM   37  C   UNL     1      42.852 -19.270   1.981  1.00  0.00     0.013 A 
ENDBRANCH  28  32
ENDBRANCH   1  26
TORSDOF 9
ENDMDL
MODEL 3
REMARK VINA RESULT:      -8.2      3.215      4.719
REMARK  9 active torsions:
REMARK  status: ('A' for Active; 'I' for Inactive)
REMARK    1  A    between atoms: C_4  and  C_5 
REMARK    2  A    between atoms: C_8  and  C_9 
REMARK       I    between atoms: C_9  and  N_10 
REMARK    3  A    between atoms: N_10  and  C_26 
REMARK    4  A    between atoms: N_10  and  C_11 
REMARK    5  A    between atoms: C_11  and  C_12 
REMARK    6  A    between atoms: C_11  and  C_21 
REMARK       I    between atoms: C_12  and  N_13 
REMARK    7  A    between atoms: N_13  and  C_14 
REMARK    8  A    between atoms: C_14  and  C_15 
REMARK    9  A    between atoms: C_26  and  C_27 
ROOT
HETATM    1  C   UNL     1      42.052 -13.882   2.878  1.00  0.00     0.271 C 
HETATM    2  N   UNL     1      41.530 -13.228   4.000  1.00  0.00    -0.324 N 
HETATM    3  O   UNL     1      42.680 -13.251   2.027  1.00  0.00    -0.266 OA
ENDROOT
BRANCH   2   4
HETATM    4  C   UNL     1      41.408 -11.766   3.899  1.00  0.00     0.173 C 
BRANCH   4   5
HETATM    5  C   UNL     1      40.391 -11.344   2.886  1.00  0.00     0.000 A 
HETATM    6  S   UNL     1      40.740 -10.086   1.772  1.00  0.00    -0.105 SA
HETATM    7  C   UNL     1      39.203 -10.221   1.038  1.00  0.00     0.050 A 
HETATM    8  C   UNL     1      38.421 -11.174   1.650  1.00  0.00     0.008 A 
HETATM    9  C   UNL     1      39.101 -11.812   2.726  1.00  0.00     0.017 A 
ENDBRANCH   4   5
ENDBRANCH   2   4
BRANCH   2  10
HETATM   10  C   UNL     1      40.996 -13.923   5.200  1.00  0.00     0.220 C 
BRANCH  10  11
HETATM   11  C   UNL     1      40.248 -12.901   6.081  1.00  0.00     0.245 C 
HETATM   12  N   UNL     1      41.023 -12.055   6.849  1.00  0.00    -0.357 N 
HETATM   13  H   UNL     1      41.994 -12.310   7.002  1.00  0.00     0.162 HD
HETATM   14  O   UNL     1      39.033 -12.737   5.927  1.00  0.00    -0.271 OA
BRANCH  12  15
HETATM   15  C   UNL     1      40.453 -11.014   7.686  1.00  0.00     0.154 C 
BRANCH  15  16
HETATM   16  C   UNL     1      41.498  -9.967   8.112  1.00  0.00     0.139 C 
HETATM   17  O   UNL     1      42.794 -10.580   8.233  1.00  0.00    -0.384 OA
HETATM   18  C   UNL     1      43.053 -10.848   9.619  1.00  0.00     0.168 C 
HETATM   19  C   UNL     1      41.846 -10.390  10.411  1.00  0.00     0.029 C 
HETATM   20  C   UNL     1      41.204  -9.385   9.486  1.00  0.00     0.035 C 
ENDBRANCH  15  16
ENDBRANCH  12  15
ENDBRANCH  10  11
BRANCH  10  21
HETATM   21  C   UNL     1      41.993 -14.862   5.850  1.00  0.00     0.014 A 
HETATM   22  S   UNL     1      43.609 -14.399   6.214  1.00  0.00    -0.104 SA
HETATM   23  C   UNL     1      43.947 -15.879   6.991  1.00  0.00     0.050 A 
HETATM   24  C   UNL     1      42.847 -16.703   7.029  1.00  0.00     0.008 A 
HETATM   25  C   UNL     1      41.720 -16.109   6.397  1.00  0.00     0.017 A 
ENDBRANCH  10  21
ENDBRANCH   2  10
BRANCH   1  26
HETATM   26  C   UNL     1      41.871 -15.313   2.732  1.00  0.00     0.101 C 
HETATM   27  N   UNL     1      42.739 -16.306   3.146  1.00  0.00    -0.351 N 
HETATM   28  C   UNL     1      42.306 -17.539   2.705  1.00  0.00     0.043 C 
HETATM   29  H   UNL     1      43.619 -16.146   3.628  1.00  0.00     0.166 HD
HETATM   30  C   UNL     1      41.019 -17.352   2.233  1.00  0.00     0.033 C 
HETATM   31  C   UNL     1      40.742 -15.966   2.266  1.00  0.00     0.037 C 
BRANCH  28  32
HETATM   32  C   UNL     1      43.123 -18.750   2.772  1.00  0.00    -0.009 A 
HETATM   33  C   UNL     1      43.991 -18.965   3.850  1.00  0.00     0.013 A 
HETATM   34  C   UNL     1      44.724 -20.150   3.952  1.00  0.00     0.001 A 
HETATM   35  C   UNL     1      44.591 -21.138   2.978  1.00  0.00     0.000 A 
HETATM   36  C   UNL     1      43.733 -20.937   1.899  1.00  0.00     0.001 A 
HETATM   37  C   UNL     1      43.007 -19.748   1.794  1.00  0.00     0.013 A 
ENDBRANCH  28  32
ENDBRANCH   1  26
TORSDOF 9
ENDMDL
MODEL 4
REMARK VINA RESULT:      -8.2      2.054      3.162
REMARK  9 active torsions:
REMARK  status: ('A' for Active; 'I' for Inactive)
REMARK    1  A    between atoms: C_4  and  C_5 
REMARK    2  A    between atoms: C_8  and  C_9 
REMARK       I    between atoms: C_9  and  N_10 
REMARK    3  A    between atoms: N_10  and  C_26 
REMARK    4  A    between atoms: N_10  and  C_11 
REMARK    5  A    between atoms: C_11  and  C_12 
REMARK    6  A    between atoms: C_11  and  C_21 
REMARK       I    between atoms: C_12  and  N_13 
REMARK    7  A    between atoms: N_13  and  C_14 
REMARK    8  A    between atoms: C_14  and  C_15 
REMARK    9  A    between atoms: C_26  and  C_27 
ROOT
HETATM    1  C   UNL     1      39.796 -15.294   1.801  1.00  0.00     0.271 C 
HETATM    2  N   UNL     1      40.233 -14.020   1.419  1.00  0.00    -0.324 N 
HETATM    3  O   UNL     1      38.597 -15.572   1.776  1.00  0.00    -0.266 OA
ENDROOT
BRANCH   2   4
HETATM    4  C   UNL     1      39.212 -12.963   1.404  1.00  0.00     0.173 C 
BRANCH   4   5
HETATM    5  C   UNL     1      38.688 -12.691   0.029  1.00  0.00     0.000 A 
HETATM    6  S   UNL     1      38.476 -11.080  -0.521  1.00  0.00    -0.105 SA
HETATM    7  C   UNL     1      37.903 -11.605  -2.043  1.00  0.00     0.050 A 
HETATM    8  C   UNL     1      37.834 -12.977  -2.123  1.00  0.00     0.008 A 
HETATM    9  C   UNL     1      38.272 -13.604  -0.922  1.00  0.00     0.017 A 
ENDBRANCH   4   5
ENDBRANCH   2   4
BRANCH   2  10
HETATM   10  C   UNL     1      41.653 -13.666   1.160  1.00  0.00     0.220 C 
BRANCH  10  11
HETATM   11  C   UNL     1      42.274 -13.100   2.453  1.00  0.00     0.245 C 
HETATM   12  N   UNL     1      41.436 -12.387   3.287  1.00  0.00    -0.357 N 
HETATM   13  H   UNL     1      40.559 -12.049   2.902  1.00  0.00     0.162 HD
HETATM   14  O   UNL     1      43.406 -13.459   2.794  1.00  0.00    -0.271 OA
BRANCH  12  15
HETATM   15  C   UNL     1      41.876 -11.840   4.559  1.00  0.00     0.154 C 
BRANCH  15  16
HETATM   16  C   UNL     1      41.517 -12.754   5.745  1.00  0.00     0.139 C 
HETATM   17  O   UNL     1      40.990 -14.004   5.267  1.00  0.00    -0.384 OA
HETATM   18  C   UNL     1      39.558 -13.967   5.353  1.00  0.00     0.168 C 
HETATM   19  C   UNL     1      39.165 -12.612   5.904  1.00  0.00     0.029 C 
HETATM   20  C   UNL     1      40.419 -12.165   6.615  1.00  0.00     0.035 C 
ENDBRANCH  15  16
ENDBRANCH  12  15
ENDBRANCH  10  11
BRANCH  10  21
HETATM   21  C   UNL     1      41.861 -12.919  -0.143  1.00  0.00     0.014 A 
HETATM   22  S   UNL     1      42.299 -11.257  -0.205  1.00  0.00    -0.104 SA
HETATM   23  C   UNL     1      42.454 -11.274  -1.903  1.00  0.00     0.050 A 
HETATM   24  C   UNL     1      42.232 -12.526  -2.427  1.00  0.00     0.008 A 
HETATM   25  C   UNL     1      41.917 -13.474  -1.414  1.00  0.00     0.017 A 
ENDBRANCH  10  21
ENDBRANCH   2  10
BRANCH   1  26
HETATM   26  C   UNL     1      40.764 -16.296   2.200  1.00  0.00     0.101 C 
HETATM   27  N   UNL     1      41.322 -16.458   3.455  1.00  0.00    -0.351 N 
HETATM   28  C   UNL     1      42.311 -17.418   3.421  1.00  0.00     0.043 C 
HETATM   29  H   UNL     1      41.101 -15.891   4.267  1.00  0.00     0.166 HD
HETATM   30  C   UNL     1      42.197 -18.050   2.196  1.00  0.00     0.033 C 
HETATM   31  C   UNL     1      41.221 -17.361   1.442  1.00  0.00     0.037 C 
BRANCH  28  32
HETATM   32  C   UNL     1      43.247 -17.648   4.522  1.00  0.00    -0.009 A 
HETATM   33  C   UNL     1      44.016 -18.818   4.570  1.00  0.00     0.013 A 
HETATM   34  C   UNL     1      44.958 -19.012   5.583  1.00  0.00     0.001 A 
HETATM   35  C   UNL     1      45.148 -18.032   6.557  1.00  0.00     0.000 A 
HETATM   36  C   UNL     1      44.388 -16.865   6.522  1.00  0.00     0.001 A 
HETATM   37  C   UNL     1      43.440 -16.676   5.514  1.00  0.00     0.013 A 
ENDBRANCH  28  32
ENDBRANCH   1  26
TORSDOF 9
ENDMDL
MODEL 5
REMARK VINA RESULT:      -7.9      2.437      5.499
REMARK  9 active torsions:
REMARK  status: ('A' for Active; 'I' for Inactive)
REMARK    1  A    between atoms: C_4  and  C_5 
REMARK    2  A    between atoms: C_8  and  C_9 
REMARK       I    between atoms: C_9  and  N_10 
REMARK    3  A    between atoms: N_10  and  C_26 
REMARK    4  A    between atoms: N_10  and  C_11 
REMARK    5  A    between atoms: C_11  and  C_12 
REMARK    6  A    between atoms: C_11  and  C_21 
REMARK       I    between atoms: C_12  and  N_13 
REMARK    7  A    between atoms: N_13  and  C_14 
REMARK    8  A    between atoms: C_14  and  C_15 
REMARK    9  A    between atoms: C_26  and  C_27 
ROOT
HETATM    1  C   UNL     1      42.592 -14.792   3.069  1.00  0.00     0.271 C 
HETATM    2  N   UNL     1      41.992 -13.783   2.306  1.00  0.00    -0.324 N 
HETATM    3  O   UNL     1      42.851 -14.601   4.258  1.00  0.00    -0.266 OA
ENDROOT
BRANCH   2   4
HETATM    4  C   UNL     1      42.080 -12.420   2.852  1.00  0.00     0.173 C 
BRANCH   4   5
HETATM    5  C   UNL     1      40.763 -11.918   3.354  1.00  0.00     0.000 A 
HETATM    6  S   UNL     1      40.115 -10.438   2.774  1.00  0.00    -0.105 SA
HETATM    7  C   UNL     1      38.724 -10.588   3.755  1.00  0.00     0.050 A 
HETATM    8  C   UNL     1      38.765 -11.717   4.540  1.00  0.00     0.008 A 
HETATM    9  C   UNL     1      39.949 -12.477   4.321  1.00  0.00     0.017 A 
ENDBRANCH   4   5
ENDBRANCH   2   4
BRANCH   2  10
HETATM   10  C   UNL     1      41.402 -13.992   0.959  1.00  0.00     0.220 C 
BRANCH  10  11
HETATM   11  C   UNL     1      42.172 -13.132  -0.066  1.00  0.00     0.245 C 
HETATM   12  N   UNL     1      42.176 -13.576  -1.373  1.00  0.00    -0.357 N 
HETATM   13  H   UNL     1      41.918 -14.543  -1.547  1.00  0.00     0.162 HD
HETATM   14  O   UNL     1      42.573 -12.010   0.259  1.00  0.00    -0.271 OA
BRANCH  12  15
HETATM   15  C   UNL     1      42.819 -12.840  -2.449  1.00  0.00     0.154 C 
BRANCH  15  16
HETATM   16  C   UNL     1      41.802 -12.243  -3.439  1.00  0.00     0.139 C 
HETATM   17  O   UNL     1      42.487 -11.646  -4.554  1.00  0.00    -0.384 OA
HETATM   18  C   UNL     1      42.553 -10.227  -4.352  1.00  0.00     0.168 C 
HETATM   19  C   UNL     1      41.883  -9.918  -3.029  1.00  0.00     0.029 C 
HETATM   20  C   UNL     1      40.990 -11.117  -2.820  1.00  0.00     0.035 C 
ENDBRANCH  15  16
ENDBRANCH  12  15
ENDBRANCH  10  11
BRANCH  10  21
HETATM   21  C   UNL     1      39.886 -13.962   0.951  1.00  0.00     0.014 A 
HETATM   22  S   UNL     1      38.981 -12.861  -0.011  1.00  0.00    -0.104 SA
HETATM   23  C   UNL     1      37.492 -13.560   0.440  1.00  0.00     0.050 A 
HETATM   24  C   UNL     1      37.664 -14.646   1.266  1.00  0.00     0.008 A 
HETATM   25  C   UNL     1      39.038 -14.891   1.538  1.00  0.00     0.017 A 
ENDBRANCH  10  21
ENDBRANCH   2  10
BRANCH   1  26
HETATM   26  C   UNL     1      42.883 -16.075   2.461  1.00  0.00     0.101 C 
HETATM   27  N   UNL     1      42.933 -17.302   3.095  1.00  0.00    -0.351 N 
HETATM   28  C   UNL     1      43.385 -18.275   2.228  1.00  0.00     0.043 C 
HETATM   29  H   UNL     1      42.751 -17.455   4.083  1.00  0.00     0.166 HD
HETATM   30  C   UNL     1      43.371 -17.706   0.967  1.00  0.00     0.033 C 
HETATM   31  C   UNL     1      43.041 -16.339   1.111  1.00  0.00     0.037 C 
BRANCH  28  32
HETATM   32  C   UNL     1      43.775 -19.618   2.657  1.00  0.00    -0.009 A 
HETATM   33  C   UNL     1      43.621 -20.712   1.797  1.00  0.00     0.013 A 
HETATM   34  C   UNL     1      44.053 -21.985   2.178  1.00  0.00     0.001 A 
HETATM   35  C   UNL     1      44.652 -22.176   3.422  1.00  0.00     0.000 A 
HETATM   36  C   UNL     1      44.810 -21.096   4.288  1.00  0.00     0.001 A 
HETATM   37  C   UNL     1      44.370 -19.825   3.910  1.00  0.00     0.013 A 
ENDBRANCH  28  32
ENDBRANCH   1  26
TORSDOF 9
ENDMDL
MODEL 6
REMARK VINA RESULT:      -7.8      3.969      7.474
REMARK  9 active torsions:
REMARK  status: ('A' for Active; 'I' for Inactive)
REMARK    1  A    between atoms: C_4  and  C_5 
REMARK    2  A    between atoms: C_8  and  C_9 
REMARK       I    between atoms: C_9  and  N_10 
REMARK    3  A    between atoms: N_10  and  C_26 
REMARK    4  A    between atoms: N_10  and  C_11 
REMARK    5  A    between atoms: C_11  and  C_12 
REMARK    6  A    between atoms: C_11  and  C_21 
REMARK       I    between atoms: C_12  and  N_13 
REMARK    7  A    between atoms: N_13  and  C_14 
REMARK    8  A    between atoms: C_14  and  C_15 
REMARK    9  A    between atoms: C_26  and  C_27 
ROOT
HETATM    1  C   UNL     1      43.511 -15.545   5.928  1.00  0.00     0.271 C 
HETATM    2  N   UNL     1      42.359 -15.207   5.208  1.00  0.00    -0.324 N 
HETATM    3  O   UNL     1      43.934 -16.701   5.918  1.00  0.00    -0.266 OA
ENDROOT
BRANCH   2   4
HETATM    4  C   UNL     1      41.490 -16.327   4.816  1.00  0.00     0.173 C 
BRANCH   4   5
HETATM    5  C   UNL     1      41.706 -16.751   3.397  1.00  0.00     0.000 A 
HETATM    6  S   UNL     1      40.426 -16.667   2.257  1.00  0.00    -0.105 SA
HETATM    7  C   UNL     1      41.417 -17.272   1.003  1.00  0.00     0.050 A 
HETATM    8  C   UNL     1      42.685 -17.573   1.446  1.00  0.00     0.008 A 
HETATM    9  C   UNL     1      42.847 -17.287   2.832  1.00  0.00     0.017 A 
ENDBRANCH   4   5
ENDBRANCH   2   4
BRANCH   2  10
HETATM   10  C   UNL     1      41.920 -13.814   4.937  1.00  0.00     0.220 C 
BRANCH  10  11
HETATM   11  C   UNL     1      40.784 -13.446   5.915  1.00  0.00     0.245 C 
HETATM   12  N   UNL     1      40.874 -12.218   6.541  1.00  0.00    -0.357 N 
HETATM   13  H   UNL     1      41.776 -11.751   6.541  1.00  0.00     0.162 HD
HETATM   14  O   UNL     1      39.764 -14.141   5.953  1.00  0.00    -0.271 OA
BRANCH  12  15
HETATM   15  C   UNL     1      39.852 -11.724   7.447  1.00  0.00     0.154 C 
BRANCH  15  16
HETATM   16  C   UNL     1      40.031 -10.230   7.772  1.00  0.00     0.139 C 
HETATM   17  O   UNL     1      38.773  -9.542   7.657  1.00  0.00    -0.384 OA
HETATM   18  C   UNL     1      38.726  -8.871   6.390  1.00  0.00     0.168 C 
HETATM   19  C   UNL     1      40.022  -9.166   5.663  1.00  0.00     0.029 C 
HETATM   20  C   UNL     1      40.958  -9.533   6.789  1.00  0.00     0.035 C 
ENDBRANCH  15  16
ENDBRANCH  12  15
ENDBRANCH  10  11
BRANCH  10  21
HETATM   21  C   UNL     1      41.746 -13.510   3.462  1.00  0.00     0.014 A 
HETATM   22  S   UNL     1      40.332 -12.767   2.824  1.00  0.00    -0.104 SA
HETATM   23  C   UNL     1      40.989 -12.674   1.252  1.00  0.00     0.050 A 
HETATM   24  C   UNL     1      42.279 -13.147   1.205  1.00  0.00     0.008 A 
HETATM   25  C   UNL     1      42.721 -13.603   2.478  1.00  0.00     0.017 A 
ENDBRANCH  10  21
ENDBRANCH   2  10
BRANCH   1  26
HETATM   26  C   UNL     1      44.223 -14.520   6.666  1.00  0.00     0.101 C 
HETATM   27  N   UNL     1      43.829 -13.924   7.849  1.00  0.00    -0.351 N 
HETATM   28  C   UNL     1      44.683 -12.891   8.175  1.00  0.00     0.043 C 
HETATM   29  H   UNL     1      42.983 -14.152   8.362  1.00  0.00     0.166 HD
HETATM   30  C   UNL     1      45.770 -13.004   7.328  1.00  0.00     0.033 C 
HETATM   31  C   UNL     1      45.491 -14.031   6.398  1.00  0.00     0.037 C 
BRANCH  28  32
HETATM   32  C   UNL     1      44.402 -11.918   9.231  1.00  0.00    -0.009 A 
HETATM   33  C   UNL     1      43.268 -11.099   9.162  1.00  0.00     0.013 A 
HETATM   34  C   UNL     1      42.961 -10.215  10.199  1.00  0.00     0.001 A 
HETATM   35  C   UNL     1      43.781 -10.147  11.324  1.00  0.00     0.000 A 
HETATM   36  C   UNL     1      44.913 -10.955  11.406  1.00  0.00     0.001 A 
HETATM   37  C   UNL     1      45.225 -11.832  10.364  1.00  0.00     0.013 A 
ENDBRANCH  28  32
ENDBRANCH   1  26
TORSDOF 9
ENDMDL
MODEL 7
REMARK VINA RESULT:      -7.8      1.997      5.244
REMARK  9 active torsions:
REMARK  status: ('A' for Active; 'I' for Inactive)
REMARK    1  A    between atoms: C_4  and  C_5 
REMARK    2  A    between atoms: C_8  and  C_9 
REMARK       I    between atoms: C_9  and  N_10 
REMARK    3  A    between atoms: N_10  and  C_26 
REMARK    4  A    between atoms: N_10  and  C_11 
REMARK    5  A    between atoms: C_11  and  C_12 
REMARK    6  A    between atoms: C_11  and  C_21 
REMARK       I    between atoms: C_12  and  N_13 
REMARK    7  A    between atoms: N_13  and  C_14 
REMARK    8  A    between atoms: C_14  and  C_15 
REMARK    9  A    between atoms: C_26  and  C_27 
ROOT
HETATM    1  C   UNL     1      41.038 -14.907   4.736  1.00  0.00     0.271 C 
HETATM    2  N   UNL     1      41.120 -14.159   3.556  1.00  0.00    -0.324 N 
HETATM    3  O   UNL     1      40.016 -14.878   5.421  1.00  0.00    -0.266 OA
ENDROOT
BRANCH   2   4
HETATM    4  C   UNL     1      40.146 -13.066   3.414  1.00  0.00     0.173 C 
BRANCH   4   5
HETATM    5  C   UNL     1      39.118 -13.347   2.364  1.00  0.00     0.000 A 
HETATM    6  S   UNL     1      38.340 -12.059   1.539  1.00  0.00    -0.105 SA
HETATM    7  C   UNL     1      37.409 -13.139   0.596  1.00  0.00     0.050 A 
HETATM    8  C   UNL     1      37.651 -14.452   0.926  1.00  0.00     0.008 A 
HETATM    9  C   UNL     1      38.626 -14.573   1.957  1.00  0.00     0.017 A 
ENDBRANCH   4   5
ENDBRANCH   2   4
BRANCH   2  10
HETATM   10  C   UNL     1      42.184 -14.324   2.532  1.00  0.00     0.220 C 
BRANCH  10  11
HETATM   11  C   UNL     1      42.166 -13.104   1.587  1.00  0.00     0.245 C 
HETATM   12  N   UNL     1      41.711 -13.319   0.301  1.00  0.00    -0.357 N 
HETATM   13  H   UNL     1      41.668 -14.277  -0.033  1.00  0.00     0.162 HD
HETATM   14  O   UNL     1      42.356 -11.974   2.047  1.00  0.00    -0.271 OA
BRANCH  12  15
HETATM   15  C   UNL     1      41.594 -12.251  -0.678  1.00  0.00     0.154 C 
BRANCH  15  16
HETATM   16  C   UNL     1      42.881 -12.071  -1.502  1.00  0.00     0.139 C 
HETATM   17  O   UNL     1      43.723 -11.074  -0.897  1.00  0.00    -0.384 OA
HETATM   18  C   UNL     1      43.551  -9.833  -1.599  1.00  0.00     0.168 C 
HETATM   19  C   UNL     1      42.534 -10.063  -2.697  1.00  0.00     0.029 C 
HETATM   20  C   UNL     1      42.599 -11.556  -2.905  1.00  0.00     0.035 C 
ENDBRANCH  15  16
ENDBRANCH  12  15
ENDBRANCH  10  11
BRANCH  10  21
HETATM   21  C   UNL     1      42.236 -15.716   1.933  1.00  0.00     0.014 A 
HETATM   22  S   UNL     1      43.700 -16.603   1.764  1.00  0.00    -0.104 SA
HETATM   23  C   UNL     1      42.890 -17.991   1.192  1.00  0.00     0.050 A 
HETATM   24  C   UNL     1      41.526 -17.819   1.173  1.00  0.00     0.008 A 
HETATM   25  C   UNL     1      41.151 -16.523   1.622  1.00  0.00     0.017 A 
ENDBRANCH  10  21
ENDBRANCH   2  10
BRANCH   1  26
HETATM   26  C   UNL     1      42.155 -15.741   5.136  1.00  0.00     0.101 C 
HETATM   27  N   UNL     1      42.359 -17.068   4.808  1.00  0.00    -0.351 N 
HETATM   28  C   UNL     1      43.448 -17.571   5.489  1.00  0.00     0.043 C 
HETATM   29  H   UNL     1      41.744 -17.624   4.221  1.00  0.00     0.166 HD
HETATM   30  C   UNL     1      44.091 -16.481   6.050  1.00  0.00     0.033 C 
HETATM   31  C   UNL     1      43.293 -15.339   5.814  1.00  0.00     0.037 C 
BRANCH  28  32
HETATM   32  C   UNL     1      43.776 -18.995   5.544  1.00  0.00    -0.009 A 
HETATM   33  C   UNL     1      44.429 -19.617   4.472  1.00  0.00     0.013 A 
HETATM   34  C   UNL     1      44.803 -20.961   4.547  1.00  0.00     0.001 A 
HETATM   35  C   UNL     1      44.535 -21.697   5.700  1.00  0.00     0.000 A 
HETATM   36  C   UNL     1      43.885 -21.092   6.773  1.00  0.00     0.001 A 
HETATM   37  C   UNL     1      43.503 -19.750   6.694  1.00  0.00     0.013 A 
ENDBRANCH  28  32
ENDBRANCH   1  26
TORSDOF 9
ENDMDL
MODEL 8
REMARK VINA RESULT:      -7.8      2.287      4.943
REMARK  9 active torsions:
REMARK  status: ('A' for Active; 'I' for Inactive)
REMARK    1  A    between atoms: C_4  and  C_5 
REMARK    2  A    between atoms: C_8  and  C_9 
REMARK       I    between atoms: C_9  and  N_10 
REMARK    3  A    between atoms: N_10  and  C_26 
REMARK    4  A    between atoms: N_10  and  C_11 
REMARK    5  A    between atoms: C_11  and  C_12 
REMARK    6  A    between atoms: C_11  and  C_21 
REMARK       I    between atoms: C_12  and  N_13 
REMARK    7  A    between atoms: N_13  and  C_14 
REMARK    8  A    between atoms: C_14  and  C_15 
REMARK    9  A    between atoms: C_26  and  C_27 
ROOT
HETATM    1  C   UNL     1      40.097 -15.398   2.575  1.00  0.00     0.271 C 
HETATM    2  N   UNL     1      40.296 -14.439   3.574  1.00  0.00    -0.324 N 
HETATM    3  O   UNL     1      38.995 -15.517   2.038  1.00  0.00    -0.266 OA
ENDROOT
BRANCH   2   4
HETATM    4  C   UNL     1      39.082 -13.908   4.212  1.00  0.00     0.173 C 
BRANCH   4   5
HETATM    5  C   UNL     1      39.259 -12.506   4.705  1.00  0.00     0.000 A 
HETATM    6  S   UNL     1      39.548 -12.195   6.367  1.00  0.00    -0.105 SA
HETATM    7  C   UNL     1      39.628 -10.508   6.106  1.00  0.00     0.050 A 
HETATM    8  C   UNL     1      39.401 -10.179   4.789  1.00  0.00     0.008 A 
HETATM    9  C   UNL     1      39.172 -11.331   3.983  1.00  0.00     0.017 A 
ENDBRANCH   4   5
ENDBRANCH   2   4
BRANCH   2  10
HETATM   10  C   UNL     1      41.628 -14.034   4.093  1.00  0.00     0.220 C 
BRANCH  10  11
HETATM   11  C   UNL     1      42.472 -13.472   2.929  1.00  0.00     0.245 C 
HETATM   12  N   UNL     1      41.810 -12.695   1.999  1.00  0.00    -0.357 N 
HETATM   13  H   UNL     1      40.796 -12.750   1.970  1.00  0.00     0.162 HD
HETATM   14  O   UNL     1      43.703 -13.559   2.971  1.00  0.00    -0.271 OA
BRANCH  12  15
HETATM   15  C   UNL     1      42.489 -12.063   0.881  1.00  0.00     0.154 C 
BRANCH  15  16
HETATM   16  C   UNL     1      41.535 -11.761  -0.289  1.00  0.00     0.139 C 
HETATM   17  O   UNL     1      40.673 -12.887  -0.530  1.00  0.00    -0.384 OA
HETATM   18  C   UNL     1      41.189 -13.637  -1.640  1.00  0.00     0.168 C 
HETATM   19  C   UNL     1      42.453 -12.949  -2.113  1.00  0.00     0.029 C 
HETATM   20  C   UNL     1      42.279 -11.542  -1.597  1.00  0.00     0.035 C 
ENDBRANCH  15  16
ENDBRANCH  12  15
ENDBRANCH  10  11
BRANCH  10  21
HETATM   21  C   UNL     1      42.251 -15.057   5.024  1.00  0.00     0.014 A 
HETATM   22  S   UNL     1      41.325 -15.997   6.127  1.00  0.00    -0.104 SA
HETATM   23  C   UNL     1      42.682 -16.904   6.622  1.00  0.00     0.050 A 
HETATM   24  C   UNL     1      43.818 -16.548   5.933  1.00  0.00     0.008 A 
HETATM   25  C   UNL     1      43.564 -15.506   4.999  1.00  0.00     0.017 A 
ENDBRANCH  10  21
ENDBRANCH   2  10
BRANCH   1  26
HETATM   26  C   UNL     1      41.202 -16.237   2.154  1.00  0.00     0.101 C 
HETATM   27  N   UNL     1      41.523 -17.491   2.636  1.00  0.00    -0.351 N 
HETATM   28  C   UNL     1      42.723 -17.919   2.106  1.00  0.00     0.043 C 
HETATM   29  H   UNL     1      41.000 -17.993   3.347  1.00  0.00     0.166 HD
HETATM   30  C   UNL     1      43.030 -17.039   1.083  1.00  0.00     0.033 C 
HETATM   31  C   UNL     1      42.072 -16.000   1.102  1.00  0.00     0.037 C 
BRANCH  28  32
HETATM   32  C   UNL     1      43.449 -19.089   2.598  1.00  0.00    -0.009 A 
HETATM   33  C   UNL     1      44.058 -19.071   3.860  1.00  0.00     0.013 A 
HETATM   34  C   UNL     1      44.695 -20.209   4.361  1.00  0.00     0.001 A 
HETATM   35  C   UNL     1      44.724 -21.382   3.609  1.00  0.00     0.000 A 
HETATM   36  C   UNL     1      44.123 -21.414   2.352  1.00  0.00     0.001 A 
HETATM   37  C   UNL     1      43.494 -20.273   1.848  1.00  0.00     0.013 A 
ENDBRANCH  28  32
ENDBRANCH   1  26
TORSDOF 9
ENDMDL
MODEL 9
REMARK VINA RESULT:      -7.7      1.951      2.644
REMARK  9 active torsions:
REMARK  status: ('A' for Active; 'I' for Inactive)
REMARK    1  A    between atoms: C_4  and  C_5 
REMARK    2  A    between atoms: C_8  and  C_9 
REMARK       I    between atoms: C_9  and  N_10 
REMARK    3  A    between atoms: N_10  and  C_26 
REMARK    4  A    between atoms: N_10  and  C_11 
REMARK    5  A    between atoms: C_11  and  C_12 
REMARK    6  A    between atoms: C_11  and  C_21 
REMARK       I    between atoms: C_12  and  N_13 
REMARK    7  A    between atoms: N_13  and  C_14 
REMARK    8  A    between atoms: C_14  and  C_15 
REMARK    9  A    between atoms: C_26  and  C_27 
ROOT
HETATM    1  C   UNL     1      39.516 -15.505   1.711  1.00  0.00     0.271 C 
HETATM    2  N   UNL     1      39.971 -14.238   1.327  1.00  0.00    -0.324 N 
HETATM    3  O   UNL     1      38.309 -15.734   1.792  1.00  0.00    -0.266 OA
ENDROOT
BRANCH   2   4
HETATM    4  C   UNL     1      38.999 -13.140   1.438  1.00  0.00     0.173 C 
BRANCH   4   5
HETATM    5  C   UNL     1      38.518 -12.663   0.104  1.00  0.00     0.000 A 
HETATM    6  S   UNL     1      38.589 -10.998  -0.304  1.00  0.00    -0.105 SA
HETATM    7  C   UNL     1      37.916 -11.281  -1.849  1.00  0.00     0.050 A 
HETATM    8  C   UNL     1      37.604 -12.607  -2.041  1.00  0.00     0.008 A 
HETATM    9  C   UNL     1      37.936 -13.403  -0.908  1.00  0.00     0.017 A 
ENDBRANCH   4   5
ENDBRANCH   2   4
BRANCH   2  10
HETATM   10  C   UNL     1      41.374 -13.933   0.945  1.00  0.00     0.220 C 
BRANCH  10  11
HETATM   11  C   UNL     1      41.980 -12.968   1.985  1.00  0.00     0.245 C 
HETATM   12  N   UNL     1      41.826 -13.308   3.315  1.00  0.00    -0.357 N 
HETATM   13  H   UNL     1      41.120 -13.999   3.549  1.00  0.00     0.162 HD
HETATM   14  O   UNL     1      42.732 -12.063   1.611  1.00  0.00    -0.271 OA
BRANCH  12  15
HETATM   15  C   UNL     1      42.387 -12.516   4.396  1.00  0.00     0.154 C 
BRANCH  15  16
HETATM   16  C   UNL     1      42.183 -13.176   5.772  1.00  0.00     0.139 C 
HETATM   17  O   UNL     1      43.256 -12.816   6.659  1.00  0.00    -0.384 OA
HETATM   18  C   UNL     1      44.203 -13.894   6.705  1.00  0.00     0.168 C 
HETATM   19  C   UNL     1      43.701 -14.986   5.782  1.00  0.00     0.029 C 
HETATM   20  C   UNL     1      42.223 -14.694   5.693  1.00  0.00     0.035 C 
ENDBRANCH  15  16
ENDBRANCH  12  15
ENDBRANCH  10  11
BRANCH  10  21
HETATM   21  C   UNL     1      41.547 -13.627  -0.529  1.00  0.00     0.014 A 
HETATM   22  S   UNL     1      41.113 -14.737  -1.769  1.00  0.00    -0.104 SA
HETATM   23  C   UNL     1      41.470 -13.622  -3.009  1.00  0.00     0.050 A 
HETATM   24  C   UNL     1      41.864 -12.404  -2.507  1.00  0.00     0.008 A 
HETATM   25  C   UNL     1      41.883 -12.400  -1.085  1.00  0.00     0.017 A 
ENDBRANCH  10  21
ENDBRANCH   2  10
BRANCH   1  26
HETATM   26  C   UNL     1      40.473 -16.558   1.989  1.00  0.00     0.101 C 
HETATM   27  N   UNL     1      40.925 -16.963   3.231  1.00  0.00    -0.351 N 
HETATM   28  C   UNL     1      41.939 -17.888   3.096  1.00  0.00     0.043 C 
HETATM   29  H   UNL     1      40.620 -16.572   4.117  1.00  0.00     0.166 HD
HETATM   30  C   UNL     1      41.948 -18.262   1.764  1.00  0.00     0.033 C 
HETATM   31  C   UNL     1      41.022 -17.445   1.078  1.00  0.00     0.037 C 
BRANCH  28  32
HETATM   32  C   UNL     1      42.782 -18.325   4.209  1.00  0.00    -0.009 A 
HETATM   33  C   UNL     1      42.314 -18.256   5.527  1.00  0.00     0.013 A 
HETATM   34  C   UNL     1      43.090 -18.734   6.586  1.00  0.00     0.001 A 
HETATM   35  C   UNL     1      44.342 -19.294   6.337  1.00  0.00     0.000 A 
HETATM   36  C   UNL     1      44.821 -19.367   5.031  1.00  0.00     0.001 A 
HETATM   37  C   UNL     1      44.048 -18.882   3.973  1.00  0.00     0.013 A 
ENDBRANCH  28  32
ENDBRANCH   1  26
TORSDOF 9
ENDMDL
MODEL 10
REMARK VINA RESULT:      -7.6      2.500      5.492
REMARK  9 active torsions:
REMARK  status: ('A' for Active; 'I' for Inactive)
REMARK    1  A    between atoms: C_4  and  C_5 
REMARK    2  A    between atoms: C_8  and  C_9 
REMARK       I    between atoms: C_9  and  N_10 
REMARK    3  A    between atoms: N_10  and  C_26 
REMARK    4  A    between atoms: N_10  and  C_11 
REMARK    5  A    between atoms: C_11  and  C_12 
REMARK    6  A    between atoms: C_11  and  C_21 
REMARK       I    between atoms: C_12  and  N_13 
REMARK    7  A    between atoms: N_13  and  C_14 
REMARK    8  A    between atoms: C_14  and  C_15 
REMARK    9  A    between atoms: C_26  and  C_27 
ROOT
HETATM    1  C   UNL     1      41.064 -15.166   4.757  1.00  0.00     0.271 C 
HETATM    2  N   UNL     1      41.115 -14.461   3.549  1.00  0.00    -0.324 N 
HETATM    3  O   UNL     1      40.042 -15.150   5.443  1.00  0.00    -0.266 OA
ENDROOT
BRANCH   2   4
HETATM    4  C   UNL     1      40.098 -13.414   3.368  1.00  0.00     0.173 C 
BRANCH   4   5
HETATM    5  C   UNL     1      40.313 -12.243   4.274  1.00  0.00     0.000 A 
HETATM    6  S   UNL     1      38.990 -11.270   4.771  1.00  0.00    -0.105 SA
HETATM    7  C   UNL     1      40.001 -10.255   5.702  1.00  0.00     0.050 A 
HETATM    8  C   UNL     1      41.325 -10.619   5.608  1.00  0.00     0.008 A 
HETATM    9  C   UNL     1      41.508 -11.757   4.771  1.00  0.00     0.017 A 
ENDBRANCH   4   5
ENDBRANCH   2   4
BRANCH   2  10
HETATM   10  C   UNL     1      42.183 -14.625   2.529  1.00  0.00     0.220 C 
BRANCH  10  11
HETATM   11  C   UNL     1      41.984 -13.571   1.419  1.00  0.00     0.245 C 
HETATM   12  N   UNL     1      40.966 -13.803   0.516  1.00  0.00    -0.357 N 
HETATM   13  H   UNL     1      40.589 -14.744   0.458  1.00  0.00     0.162 HD
HETATM   14  O   UNL     1      42.581 -12.492   1.489  1.00  0.00    -0.271 OA
BRANCH  12  15
HETATM   15  C   UNL     1      40.636 -12.871  -0.549  1.00  0.00     0.154 C 
BRANCH  15  16
HETATM   16  C   UNL     1      39.821 -13.533  -1.675  1.00  0.00     0.139 C 
HETATM   17  O   UNL     1      40.334 -14.848  -1.952  1.00  0.00    -0.384 OA
HETATM   18  C   UNL     1      41.173 -14.784  -3.114  1.00  0.00     0.168 C 
HETATM   19  C   UNL     1      41.198 -13.344  -3.584  1.00  0.00     0.029 C 
HETATM   20  C   UNL     1      39.933 -12.777  -2.989  1.00  0.00     0.035 C 
ENDBRANCH  15  16
ENDBRANCH  12  15
ENDBRANCH  10  11
BRANCH  10  21
HETATM   21  C   UNL     1      42.428 -16.068   2.136  1.00  0.00     0.014 A 
HETATM   22  S   UNL     1      41.159 -17.145   1.703  1.00  0.00    -0.104 SA
HETATM   23  C   UNL     1      42.244 -18.397   1.300  1.00  0.00     0.050 A 
HETATM   24  C   UNL     1      43.555 -18.004   1.436  1.00  0.00     0.008 A 
HETATM   25  C   UNL     1      43.660 -16.661   1.891  1.00  0.00     0.017 A 
ENDBRANCH  10  21
ENDBRANCH   2  10
BRANCH   1  26
HETATM   26  C   UNL     1      42.212 -15.940   5.186  1.00  0.00     0.101 C 
HETATM   27  N   UNL     1      42.481 -17.263   4.888  1.00  0.00    -0.351 N 
HETATM   28  C   UNL     1      43.584 -17.700   5.591  1.00  0.00     0.043 C 
HETATM   29  H   UNL     1      41.900 -17.858   4.305  1.00  0.00     0.166 HD
HETATM   30  C   UNL     1      44.169 -16.572   6.136  1.00  0.00     0.033 C 
HETATM   31  C   UNL     1      43.323 -15.472   5.868  1.00  0.00     0.037 C 
BRANCH  28  32
HETATM   32  C   UNL     1      43.976 -19.107   5.678  1.00  0.00    -0.009 A 
HETATM   33  C   UNL     1      43.587 -19.888   6.774  1.00  0.00     0.013 A 
HETATM   34  C   UNL     1      43.904 -21.247   6.830  1.00  0.00     0.001 A 
HETATM   35  C   UNL     1      44.606 -21.844   5.785  1.00  0.00     0.000 A 
HETATM   36  C   UNL     1      45.001 -21.079   4.689  1.00  0.00     0.001 A 
HETATM   37  C   UNL     1      44.692 -19.718   4.638  1.00  0.00     0.013 A 
ENDBRANCH  28  32
ENDBRANCH   1  26
TORSDOF 9
ENDMDL
