MODEL 1
REMARK VINA RESULT:      -8.0      0.000      0.000
REMARK  4 active torsions:
REMARK  status: ('A' for Active; 'I' for Inactive)
REMARK    1  A    between atoms: N_2  and  C_3 
REMARK    2  A    between atoms: C_5  and  C_6 
REMARK    3  A    between atoms: C_6  and  C_7 
REMARK    4  A    between atoms: C_14  and  O_15 
ROOT
HETATM    1  C   UNL     1      40.973 -15.189  -0.850  1.00  0.00     0.113 A 
HETATM    2  N   UNL     1      41.551 -16.276  -0.302  1.00  0.00    -0.223 NA
HETATM    3  C   UNL     1      41.136 -16.685   0.925  1.00  0.00     0.106 A 
HETATM    4  N   UNL     1      40.187 -16.050   1.634  1.00  0.00    -0.347 N 
HETATM    5  H   UNL     1      39.951 -16.376   2.573  1.00  0.00     0.167 HD
HETATM    6  C   UNL     1      39.606 -14.986   1.089  1.00  0.00     0.020 A 
HETATM    7  C   UNL     1      39.976 -14.532  -0.165  1.00  0.00     0.005 A 
HETATM    8  C   UNL     1      39.188 -13.316  -0.535  1.00  0.00     0.044 C 
HETATM    9  C   UNL     1      38.027 -13.391   0.475  1.00  0.00     0.011 C 
HETATM   10  C   UNL     1      38.556 -14.126   1.716  1.00  0.00     0.058 C 
ENDROOT
BRANCH   3  11
HETATM   11  C   UNL     1      41.805 -17.878   1.543  1.00  0.00     0.085 C 
BRANCH  11  12
HETATM   12  C   UNL     1      43.348 -17.849   1.428  1.00  0.00     0.021 C 
HETATM   13  C   UNL     1      43.994 -16.637   2.100  1.00  0.00     0.181 C 
HETATM   14  O   UNL     1      43.503 -16.505   3.443  1.00  0.00    -0.350 OA
HETATM   15  C   UNL     1      43.775 -17.631   4.194  1.00  0.00     0.077 A 
HETATM   16  C   UNL     1      43.967 -18.895   3.613  1.00  0.00    -0.024 A 
HETATM   17  C   UNL     1      43.795 -17.468   5.582  1.00  0.00     0.074 A 
HETATM   18  C   UNL     1      43.938 -19.086   2.117  1.00  0.00     0.048 C 
HETATM   19  C   UNL     1      44.214 -19.991   4.444  1.00  0.00     0.012 A 
HETATM   20  C   UNL     1      44.245 -19.824   5.829  1.00  0.00     0.037 A 
HETATM   21  C   UNL     1      44.040 -18.568   6.404  1.00  0.00     0.070 A 
BRANCH  21  22
HETATM   22  O   UNL     1      44.095 -18.557   7.769  1.00  0.00    -0.356 OA
HETATM   23  C   UNL     1      43.594 -17.405   8.434  1.00  0.00     0.210 C 
ENDBRANCH  21  22
ENDBRANCH  11  12
ENDBRANCH   3  11
BRANCH   1  24
HETATM   24  N   UNL     1      41.315 -14.780  -2.134  1.00  0.00    -0.281 NA
HETATM   25  C   UNL     1      40.597 -15.415  -3.228  1.00  0.00     0.114 C 
HETATM   26  H   UNL     1      42.322 -14.792  -2.285  1.00  0.00     0.128 HD
ENDBRANCH   1  24
TORSDOF 4
ENDMDL
MODEL 2
REMARK VINA RESULT:      -8.0      3.291      6.730
REMARK  4 active torsions:
REMARK  status: ('A' for Active; 'I' for Inactive)
REMARK    1  A    between atoms: N_2  and  C_3 
REMARK    2  A    between atoms: C_5  and  C_6 
REMARK    3  A    between atoms: C_6  and  C_7 
REMARK    4  A    between atoms: C_14  and  O_15 
ROOT
HETATM    1  C   UNL     1      44.000 -19.112   2.756  1.00  0.00     0.113 A 
HETATM    2  N   UNL     1      44.195 -18.328   3.835  1.00  0.00    -0.223 NA
HETATM    3  C   UNL     1      44.561 -18.912   5.006  1.00  0.00     0.106 A 
HETATM    4  N   UNL     1      44.724 -20.238   5.151  1.00  0.00    -0.347 N 
HETATM    5  H   UNL     1      44.952 -20.625   6.069  1.00  0.00     0.167 HD
HETATM    6  C   UNL     1      44.545 -21.011   4.084  1.00  0.00     0.020 A 
HETATM    7  C   UNL     1      44.187 -20.472   2.861  1.00  0.00     0.005 A 
HETATM    8  C   UNL     1      44.032 -21.551   1.838  1.00  0.00     0.044 C 
HETATM    9  C   UNL     1      44.765 -22.721   2.521  1.00  0.00     0.011 C 
HETATM   10  C   UNL     1      44.648 -22.502   4.038  1.00  0.00     0.058 C 
ENDROOT
BRANCH   3  11
HETATM   11  C   UNL     1      44.746 -18.038   6.211  1.00  0.00     0.085 C 
BRANCH  11  12
HETATM   12  C   UNL     1      43.467 -17.888   7.068  1.00  0.00     0.021 C 
HETATM   13  C   UNL     1      43.527 -16.733   8.069  1.00  0.00     0.181 C 
HETATM   14  O   UNL     1      43.929 -15.528   7.399  1.00  0.00    -0.350 OA
HETATM   15  C   UNL     1      43.054 -15.196   6.385  1.00  0.00     0.077 A 
HETATM   16  C   UNL     1      42.254 -16.152   5.738  1.00  0.00    -0.024 A 
HETATM   17  C   UNL     1      43.040 -13.858   5.983  1.00  0.00     0.074 A 
HETATM   18  C   UNL     1      42.267 -17.602   6.156  1.00  0.00     0.048 C 
HETATM   19  C   UNL     1      41.410 -15.740   4.703  1.00  0.00     0.012 A 
HETATM   20  C   UNL     1      41.389 -14.401   4.311  1.00  0.00     0.037 A 
HETATM   21  C   UNL     1      42.197 -13.455   4.947  1.00  0.00     0.070 A 
BRANCH  21  22
HETATM   22  O   UNL     1      42.073 -12.186   4.456  1.00  0.00    -0.356 OA
HETATM   23  C   UNL     1      41.256 -12.007   3.307  1.00  0.00     0.210 C 
ENDBRANCH  21  22
ENDBRANCH  11  12
ENDBRANCH   3  11
BRANCH   1  24
HETATM   24  N   UNL     1      43.696 -18.549   1.521  1.00  0.00    -0.281 NA
HETATM   25  C   UNL     1      44.015 -17.139   1.358  1.00  0.00     0.114 C 
HETATM   26  H   UNL     1      42.744 -18.758   1.228  1.00  0.00     0.128 HD
ENDBRANCH   1  24
TORSDOF 4
ENDMDL
MODEL 3
REMARK VINA RESULT:      -8.0      1.191      2.526
REMARK  4 active torsions:
REMARK  status: ('A' for Active; 'I' for Inactive)
REMARK    1  A    between atoms: N_2  and  C_3 
REMARK    2  A    between atoms: C_5  and  C_6 
REMARK    3  A    between atoms: C_6  and  C_7 
REMARK    4  A    between atoms: C_14  and  O_15 
ROOT
HETATM    1  C   UNL     1      39.666 -14.345   0.138  1.00  0.00     0.113 A 
HETATM    2  N   UNL     1      40.330 -15.222   0.917  1.00  0.00    -0.223 NA
HETATM    3  C   UNL     1      41.203 -16.083   0.330  1.00  0.00     0.106 A 
HETATM    4  N   UNL     1      41.428 -16.119  -0.994  1.00  0.00    -0.347 N 
HETATM    5  H   UNL     1      42.058 -16.822  -1.383  1.00  0.00     0.167 HD
HETATM    6  C   UNL     1      40.784 -15.245  -1.763  1.00  0.00     0.020 A 
HETATM    7  C   UNL     1      39.895 -14.334  -1.220  1.00  0.00     0.005 A 
HETATM    8  C   UNL     1      39.296 -13.484  -2.294  1.00  0.00     0.044 C 
HETATM    9  C   UNL     1      40.274 -13.735  -3.458  1.00  0.00     0.011 C 
HETATM   10  C   UNL     1      40.870 -15.136  -3.251  1.00  0.00     0.058 C 
ENDROOT
BRANCH   3  11
HETATM   11  C   UNL     1      41.915 -17.078   1.199  1.00  0.00     0.085 C 
BRANCH  11  12
HETATM   12  C   UNL     1      43.420 -16.770   1.383  1.00  0.00     0.021 C 
HETATM   13  C   UNL     1      43.717 -15.822   2.547  1.00  0.00     0.181 C 
HETATM   14  O   UNL     1      43.063 -16.290   3.736  1.00  0.00    -0.350 OA
HETATM   15  C   UNL     1      43.480 -17.561   4.077  1.00  0.00     0.077 A 
HETATM   16  C   UNL     1      43.998 -18.462   3.132  1.00  0.00    -0.024 A 
HETATM   17  C   UNL     1      43.311 -17.938   5.412  1.00  0.00     0.074 A 
HETATM   18  C   UNL     1      44.177 -18.069   1.686  1.00  0.00     0.048 C 
HETATM   19  C   UNL     1      44.376 -19.740   3.552  1.00  0.00     0.012 A 
HETATM   20  C   UNL     1      44.217 -20.111   4.887  1.00  0.00     0.037 A 
HETATM   21  C   UNL     1      43.689 -19.217   5.822  1.00  0.00     0.070 A 
BRANCH  21  22
HETATM   22  O   UNL     1      43.588 -19.719   7.089  1.00  0.00    -0.356 OA
HETATM   23  C   UNL     1      43.594 -21.133   7.233  1.00  0.00     0.210 C 
ENDBRANCH  21  22
ENDBRANCH  11  12
ENDBRANCH   3  11
BRANCH   1  24
HETATM   24  N   UNL     1      38.820 -13.399   0.704  1.00  0.00    -0.281 NA
HETATM   25  C   UNL     1      37.414 -13.763   0.797  1.00  0.00     0.114 C 
HETATM   26  H   UNL     1      38.945 -12.476   0.293  1.00  0.00     0.128 HD
ENDBRANCH   1  24
TORSDOF 4
ENDMDL
MODEL 4
REMARK VINA RESULT:      -8.0      3.067      7.807
REMARK  4 active torsions:
REMARK  status: ('A' for Active; 'I' for Inactive)
REMARK    1  A    between atoms: N_2  and  C_3 
REMARK    2  A    between atoms: C_5  and  C_6 
REMARK    3  A    between atoms: C_6  and  C_7 
REMARK    4  A    between atoms: C_14  and  O_15 
ROOT
HETATM    1  C   UNL     1      44.545 -19.099   4.605  1.00  0.00     0.113 A 
HETATM    2  N   UNL     1      44.123 -18.154   3.742  1.00  0.00    -0.223 NA
HETATM    3  C   UNL     1      43.808 -18.525   2.473  1.00  0.00     0.106 A 
HETATM    4  N   UNL     1      43.913 -19.788   2.026  1.00  0.00    -0.347 N 
HETATM    5  H   UNL     1      43.709 -19.998   1.046  1.00  0.00     0.167 HD
HETATM    6  C   UNL     1      44.316 -20.724   2.879  1.00  0.00     0.020 A 
HETATM    7  C   UNL     1      44.636 -20.408   4.188  1.00  0.00     0.005 A 
HETATM    8  C   UNL     1      45.076 -21.630   4.929  1.00  0.00     0.044 C 
HETATM    9  C   UNL     1      44.556 -22.747   4.003  1.00  0.00     0.011 C 
HETATM   10  C   UNL     1      44.526 -22.173   2.578  1.00  0.00     0.058 C 
ENDROOT
BRANCH   3  11
HETATM   11  C   UNL     1      43.368 -17.464   1.509  1.00  0.00     0.085 C 
BRANCH  11  12
HETATM   12  C   UNL     1      41.831 -17.310   1.418  1.00  0.00     0.021 C 
HETATM   13  C   UNL     1      41.227 -16.482   2.554  1.00  0.00     0.181 C 
HETATM   14  O   UNL     1      41.934 -15.239   2.681  1.00  0.00    -0.350 OA
HETATM   15  C   UNL     1      41.881 -14.504   1.513  1.00  0.00     0.077 A 
HETATM   16  C   UNL     1      41.682 -15.100   0.257  1.00  0.00    -0.024 A 
HETATM   17  C   UNL     1      42.093 -13.128   1.630  1.00  0.00     0.074 A 
HETATM   18  C   UNL     1      41.462 -16.586   0.117  1.00  0.00     0.048 C 
HETATM   19  C   UNL     1      41.665 -14.290  -0.881  1.00  0.00     0.012 A 
HETATM   20  C   UNL     1      41.866 -12.914  -0.762  1.00  0.00     0.037 A 
HETATM   21  C   UNL     1      42.076 -12.327   0.488  1.00  0.00     0.070 A 
BRANCH  21  22
HETATM   22  O   UNL     1      42.261 -10.973   0.451  1.00  0.00    -0.356 OA
HETATM   23  C   UNL     1      42.902 -10.432  -0.696  1.00  0.00     0.210 C 
ENDBRANCH  21  22
ENDBRANCH  11  12
ENDBRANCH   3  11
BRANCH   1  24
HETATM   24  N   UNL     1      44.808 -18.776   5.932  1.00  0.00    -0.281 NA
HETATM   25  C   UNL     1      43.661 -18.737   6.827  1.00  0.00     0.114 C 
HETATM   26  H   UNL     1      45.382 -17.941   6.017  1.00  0.00     0.128 HD
ENDBRANCH   1  24
TORSDOF 4
ENDMDL
MODEL 5
REMARK VINA RESULT:      -8.0      3.027      8.114
REMARK  4 active torsions:
REMARK  status: ('A' for Active; 'I' for Inactive)
REMARK    1  A    between atoms: N_2  and  C_3 
REMARK    2  A    between atoms: C_5  and  C_6 
REMARK    3  A    between atoms: C_6  and  C_7 
REMARK    4  A    between atoms: C_14  and  O_15 
ROOT
HETATM    1  C   UNL     1      44.393 -19.198   4.735  1.00  0.00     0.113 A 
HETATM    2  N   UNL     1      43.937 -18.132   4.048  1.00  0.00    -0.223 NA
HETATM    3  C   UNL     1      43.651 -18.282   2.728  1.00  0.00     0.106 A 
HETATM    4  N   UNL     1      43.816 -19.437   2.063  1.00  0.00    -0.347 N 
HETATM    5  H   UNL     1      43.631 -19.476   1.058  1.00  0.00     0.167 HD
HETATM    6  C   UNL     1      44.254 -20.494   2.741  1.00  0.00     0.020 A 
HETATM    7  C   UNL     1      44.547 -20.406   4.091  1.00  0.00     0.005 A 
HETATM    8  C   UNL     1      45.035 -21.721   4.607  1.00  0.00     0.044 C 
HETATM    9  C   UNL     1      44.574 -22.674   3.487  1.00  0.00     0.011 C 
HETATM   10  C   UNL     1      44.531 -21.854   2.188  1.00  0.00     0.058 C 
ENDROOT
BRANCH   3  11
HETATM   11  C   UNL     1      43.172 -17.084   1.962  1.00  0.00     0.085 C 
BRANCH  11  12
HETATM   12  C   UNL     1      41.636 -16.899   2.000  1.00  0.00     0.021 C 
HETATM   13  C   UNL     1      41.192 -15.551   2.570  1.00  0.00     0.181 C 
HETATM   14  O   UNL     1      41.894 -14.487   1.909  1.00  0.00    -0.350 OA
HETATM   15  C   UNL     1      41.664 -14.496   0.549  1.00  0.00     0.077 A 
HETATM   16  C   UNL     1      41.294 -15.660  -0.145  1.00  0.00    -0.024 A 
HETATM   17  C   UNL     1      41.873 -13.292  -0.130  1.00  0.00     0.074 A 
HETATM   18  C   UNL     1      41.075 -16.968   0.575  1.00  0.00     0.048 C 
HETATM   19  C   UNL     1      41.103 -15.592  -1.527  1.00  0.00     0.012 A 
HETATM   20  C   UNL     1      41.301 -14.387  -2.201  1.00  0.00     0.037 A 
HETATM   21  C   UNL     1      41.682 -13.234  -1.510  1.00  0.00     0.070 A 
BRANCH  21  22
HETATM   22  O   UNL     1      41.843 -12.130  -2.300  1.00  0.00    -0.356 OA
HETATM   23  C   UNL     1      41.849 -12.329  -3.707  1.00  0.00     0.210 C 
ENDBRANCH  21  22
ENDBRANCH  11  12
ENDBRANCH   3  11
BRANCH   1  24
HETATM   24  N   UNL     1      44.629 -19.109   6.102  1.00  0.00    -0.281 NA
HETATM   25  C   UNL     1      45.301 -17.904   6.564  1.00  0.00     0.114 C 
HETATM   26  H   UNL     1      45.065 -19.950   6.472  1.00  0.00     0.128 HD
ENDBRANCH   1  24
TORSDOF 4
ENDMDL
MODEL 6
REMARK VINA RESULT:      -7.9      2.887      7.442
REMARK  4 active torsions:
REMARK  status: ('A' for Active; 'I' for Inactive)
REMARK    1  A    between atoms: N_2  and  C_3 
REMARK    2  A    between atoms: C_5  and  C_6 
REMARK    3  A    between atoms: C_6  and  C_7 
REMARK    4  A    between atoms: C_14  and  O_15 
ROOT
HETATM    1  C   UNL     1      44.381 -19.121   4.719  1.00  0.00     0.113 A 
HETATM    2  N   UNL     1      44.031 -18.019   4.027  1.00  0.00    -0.223 NA
HETATM    3  C   UNL     1      43.843 -18.125   2.685  1.00  0.00     0.106 A 
HETATM    4  N   UNL     1      44.005 -19.272   2.005  1.00  0.00    -0.347 N 
HETATM    5  H   UNL     1      43.899 -19.280   0.988  1.00  0.00     0.167 HD
HETATM    6  C   UNL     1      44.338 -20.364   2.687  1.00  0.00     0.020 A 
HETATM    7  C   UNL     1      44.527 -20.320   4.058  1.00  0.00     0.005 A 
HETATM    8  C   UNL     1      44.910 -21.669   4.576  1.00  0.00     0.044 C 
HETATM    9  C   UNL     1      44.495 -22.573   3.400  1.00  0.00     0.011 C 
HETATM   10  C   UNL     1      44.593 -21.724   2.123  1.00  0.00     0.058 C 
ENDROOT
BRANCH   3  11
HETATM   11  C   UNL     1      43.483 -16.888   1.916  1.00  0.00     0.085 C 
BRANCH  11  12
HETATM   12  C   UNL     1      42.268 -17.076   0.976  1.00  0.00     0.021 C 
HETATM   13  C   UNL     1      40.999 -17.537   1.696  1.00  0.00     0.181 C 
HETATM   14  O   UNL     1      40.743 -16.688   2.824  1.00  0.00    -0.350 OA
HETATM   15  C   UNL     1      40.587 -15.370   2.442  1.00  0.00     0.077 A 
HETATM   16  C   UNL     1      41.151 -14.857   1.262  1.00  0.00    -0.024 A 
HETATM   17  C   UNL     1      39.883 -14.543   3.321  1.00  0.00     0.074 A 
HETATM   18  C   UNL     1      41.921 -15.738   0.310  1.00  0.00     0.048 C 
HETATM   19  C   UNL     1      40.968 -13.506   0.958  1.00  0.00     0.012 A 
HETATM   20  C   UNL     1      40.255 -12.684   1.831  1.00  0.00     0.037 A 
HETATM   21  C   UNL     1      39.708 -13.194   3.010  1.00  0.00     0.070 A 
BRANCH  21  22
HETATM   22  O   UNL     1      39.040 -12.273   3.767  1.00  0.00    -0.356 OA
HETATM   23  C   UNL     1      38.416 -11.195   3.084  1.00  0.00     0.210 C 
ENDBRANCH  21  22
ENDBRANCH  11  12
ENDBRANCH   3  11
BRANCH   1  24
HETATM   24  N   UNL     1      44.512 -19.074   6.102  1.00  0.00    -0.281 NA
HETATM   25  C   UNL     1      45.139 -17.881   6.651  1.00  0.00     0.114 C 
HETATM   26  H   UNL     1      44.924 -19.924   6.478  1.00  0.00     0.128 HD
ENDBRANCH   1  24
TORSDOF 4
ENDMDL
MODEL 7
REMARK VINA RESULT:      -7.9      1.912      3.270
REMARK  4 active torsions:
REMARK  status: ('A' for Active; 'I' for Inactive)
REMARK    1  A    between atoms: N_2  and  C_3 
REMARK    2  A    between atoms: C_5  and  C_6 
REMARK    3  A    between atoms: C_6  and  C_7 
REMARK    4  A    between atoms: C_14  and  O_15 
ROOT
HETATM    1  C   UNL     1      39.701 -13.977   2.996  1.00  0.00     0.113 A 
HETATM    2  N   UNL     1      40.468 -15.081   2.898  1.00  0.00    -0.223 NA
HETATM    3  C   UNL     1      40.517 -15.736   1.709  1.00  0.00     0.106 A 
HETATM    4  N   UNL     1      39.825 -15.351   0.624  1.00  0.00    -0.347 N 
HETATM    5  H   UNL     1      39.863 -15.912  -0.229  1.00  0.00     0.167 HD
HETATM    6  C   UNL     1      39.078 -14.255   0.714  1.00  0.00     0.020 A 
HETATM    7  C   UNL     1      39.001 -13.537   1.896  1.00  0.00     0.005 A 
HETATM    8  C   UNL     1      38.085 -12.366   1.737  1.00  0.00     0.044 C 
HETATM    9  C   UNL     1      37.991 -12.262   0.203  1.00  0.00     0.011 C 
HETATM   10  C   UNL     1      38.214 -13.675  -0.359  1.00  0.00     0.058 C 
ENDROOT
BRANCH   3  11
HETATM   11  C   UNL     1      41.349 -16.982   1.615  1.00  0.00     0.085 C 
BRANCH  11  12
HETATM   12  C   UNL     1      42.839 -16.707   1.300  1.00  0.00     0.021 C 
HETATM   13  C   UNL     1      43.618 -16.114   2.476  1.00  0.00     0.181 C 
HETATM   14  O   UNL     1      43.403 -16.907   3.653  1.00  0.00    -0.350 OA
HETATM   15  C   UNL     1      43.805 -18.214   3.463  1.00  0.00     0.077 A 
HETATM   16  C   UNL     1      43.865 -18.806   2.191  1.00  0.00    -0.024 A 
HETATM   17  C   UNL     1      44.100 -18.951   4.613  1.00  0.00     0.074 A 
HETATM   18  C   UNL     1      43.540 -18.024   0.943  1.00  0.00     0.048 C 
HETATM   19  C   UNL     1      44.259 -20.143   2.085  1.00  0.00     0.012 A 
HETATM   20  C   UNL     1      44.564 -20.874   3.234  1.00  0.00     0.037 A 
HETATM   21  C   UNL     1      44.490 -20.285   4.499  1.00  0.00     0.070 A 
BRANCH  21  22
HETATM   22  O   UNL     1      44.813 -21.122   5.530  1.00  0.00    -0.356 OA
HETATM   23  C   UNL     1      45.154 -22.462   5.202  1.00  0.00     0.210 C 
ENDBRANCH  21  22
ENDBRANCH  11  12
ENDBRANCH   3  11
BRANCH   1  24
HETATM   24  N   UNL     1      39.679 -13.236   4.172  1.00  0.00    -0.281 NA
HETATM   25  C   UNL     1      40.650 -13.608   5.189  1.00  0.00     0.114 C 
HETATM   26  H   UNL     1      38.740 -13.155   4.557  1.00  0.00     0.128 HD
ENDBRANCH   1  24
TORSDOF 4
ENDMDL
MODEL 8
REMARK VINA RESULT:      -7.8      2.654      7.925
REMARK  4 active torsions:
REMARK  status: ('A' for Active; 'I' for Inactive)
REMARK    1  A    between atoms: N_2  and  C_3 
REMARK    2  A    between atoms: C_5  and  C_6 
REMARK    3  A    between atoms: C_6  and  C_7 
REMARK    4  A    between atoms: C_14  and  O_15 
ROOT
HETATM    1  C   UNL     1      42.826 -17.901   4.795  1.00  0.00     0.113 A 
HETATM    2  N   UNL     1      41.840 -17.080   4.384  1.00  0.00    -0.223 NA
HETATM    3  C   UNL     1      41.441 -17.140   3.086  1.00  0.00     0.106 A 
HETATM    4  N   UNL     1      41.992 -17.967   2.181  1.00  0.00    -0.347 N 
HETATM    5  H   UNL     1      41.685 -17.933   1.208  1.00  0.00     0.167 HD
HETATM    6  C   UNL     1      42.956 -18.787   2.589  1.00  0.00     0.020 A 
HETATM    7  C   UNL     1      43.393 -18.781   3.902  1.00  0.00     0.005 A 
HETATM    8  C   UNL     1      44.491 -19.779   4.093  1.00  0.00     0.044 C 
HETATM    9  C   UNL     1      44.327 -20.652   2.834  1.00  0.00     0.011 C 
HETATM   10  C   UNL     1      43.715 -19.758   1.743  1.00  0.00     0.058 C 
ENDROOT
BRANCH   3  11
HETATM   11  C   UNL     1      40.364 -16.202   2.626  1.00  0.00     0.085 C 
BRANCH  11  12
HETATM   12  C   UNL     1      40.863 -14.757   2.388  1.00  0.00     0.021 C 
HETATM   13  C   UNL     1      42.160 -14.679   1.581  1.00  0.00     0.181 C 
HETATM   14  O   UNL     1      42.037 -15.462   0.384  1.00  0.00    -0.350 OA
HETATM   15  C   UNL     1      40.993 -15.023  -0.404  1.00  0.00     0.077 A 
HETATM   16  C   UNL     1      39.891 -14.329   0.124  1.00  0.00    -0.024 A 
HETATM   17  C   UNL     1      41.050 -15.353  -1.760  1.00  0.00     0.074 A 
HETATM   18  C   UNL     1      39.813 -13.975   1.589  1.00  0.00     0.048 C 
HETATM   19  C   UNL     1      38.862 -13.939  -0.736  1.00  0.00     0.012 A 
HETATM   20  C   UNL     1      38.926 -14.260  -2.092  1.00  0.00     0.037 A 
HETATM   21  C   UNL     1      40.016 -14.962  -2.612  1.00  0.00     0.070 A 
BRANCH  21  22
HETATM   22  O   UNL     1      39.942 -15.207  -3.954  1.00  0.00    -0.356 OA
HETATM   23  C   UNL     1      38.946 -16.119  -4.397  1.00  0.00     0.210 C 
ENDBRANCH  21  22
ENDBRANCH  11  12
ENDBRANCH   3  11
BRANCH   1  24
HETATM   24  N   UNL     1      43.215 -17.923   6.130  1.00  0.00    -0.281 NA
HETATM   25  C   UNL     1      44.171 -16.906   6.541  1.00  0.00     0.114 C 
HETATM   26  H   UNL     1      43.498 -18.852   6.432  1.00  0.00     0.128 HD
ENDBRANCH   1  24
TORSDOF 4
ENDMDL
MODEL 9
REMARK VINA RESULT:      -7.7      2.280      3.337
REMARK  4 active torsions:
REMARK  status: ('A' for Active; 'I' for Inactive)
REMARK    1  A    between atoms: N_2  and  C_3 
REMARK    2  A    between atoms: C_5  and  C_6 
REMARK    3  A    between atoms: C_6  and  C_7 
REMARK    4  A    between atoms: C_14  and  O_15 
ROOT
HETATM    1  C   UNL     1      39.869 -13.421   2.280  1.00  0.00     0.113 A 
HETATM    2  N   UNL     1      40.341 -14.550   1.715  1.00  0.00    -0.223 NA
HETATM    3  C   UNL     1      40.700 -15.582   2.523  1.00  0.00     0.106 A 
HETATM    4  N   UNL     1      40.625 -15.531   3.864  1.00  0.00    -0.347 N 
HETATM    5  H   UNL     1      40.956 -16.320   4.422  1.00  0.00     0.167 HD
HETATM    6  C   UNL     1      40.147 -14.423   4.422  1.00  0.00     0.020 A 
HETATM    7  C   UNL     1      39.752 -13.345   3.649  1.00  0.00     0.005 A 
HETATM    8  C   UNL     1      39.273 -12.226   4.518  1.00  0.00     0.044 C 
HETATM    9  C   UNL     1      39.041 -12.959   5.853  1.00  0.00     0.011 C 
HETATM   10  C   UNL     1      40.009 -14.152   5.886  1.00  0.00     0.058 C 
ENDROOT
BRANCH   3  11
HETATM   11  C   UNL     1      41.254 -16.825   1.890  1.00  0.00     0.085 C 
BRANCH  11  12
HETATM   12  C   UNL     1      42.698 -16.657   1.362  1.00  0.00     0.021 C 
HETATM   13  C   UNL     1      43.674 -16.104   2.402  1.00  0.00     0.181 C 
HETATM   14  O   UNL     1      43.577 -16.866   3.615  1.00  0.00    -0.350 OA
HETATM   15  C   UNL     1      43.860 -18.199   3.400  1.00  0.00     0.077 A 
HETATM   16  C   UNL     1      43.699 -18.811   2.146  1.00  0.00    -0.024 A 
HETATM   17  C   UNL     1      44.267 -18.940   4.514  1.00  0.00     0.074 A 
HETATM   18  C   UNL     1      43.253 -18.024   0.939  1.00  0.00     0.048 C 
HETATM   19  C   UNL     1      43.985 -20.172   2.016  1.00  0.00     0.012 A 
HETATM   20  C   UNL     1      44.401 -20.908   3.126  1.00  0.00     0.037 A 
HETATM   21  C   UNL     1      44.547 -20.300   4.375  1.00  0.00     0.070 A 
BRANCH  21  22
HETATM   22  O   UNL     1      44.958 -21.143   5.368  1.00  0.00    -0.356 OA
HETATM   23  C   UNL     1      45.021 -22.529   5.064  1.00  0.00     0.210 C 
ENDBRANCH  21  22
ENDBRANCH  11  12
ENDBRANCH   3  11
BRANCH   1  24
HETATM   24  N   UNL     1      39.423 -12.370   1.488  1.00  0.00    -0.281 NA
HETATM   25  C   UNL     1      39.305 -12.639   0.062  1.00  0.00     0.114 C 
HETATM   26  H   UNL     1      39.935 -11.509   1.668  1.00  0.00     0.128 HD
ENDBRANCH   1  24
TORSDOF 4
ENDMDL
MODEL 10
REMARK VINA RESULT:      -7.6      3.039      7.831
REMARK  4 active torsions:
REMARK  status: ('A' for Active; 'I' for Inactive)
REMARK    1  A    between atoms: N_2  and  C_3 
REMARK    2  A    between atoms: C_5  and  C_6 
REMARK    3  A    between atoms: C_6  and  C_7 
REMARK    4  A    between atoms: C_14  and  O_15 
ROOT
HETATM    1  C   UNL     1      44.504 -19.033   4.956  1.00  0.00     0.113 A 
HETATM    2  N   UNL     1      44.140 -17.841   4.445  1.00  0.00    -0.223 NA
HETATM    3  C   UNL     1      43.824 -17.768   3.125  1.00  0.00     0.106 A 
HETATM    4  N   UNL     1      43.873 -18.823   2.294  1.00  0.00    -0.347 N 
HETATM    5  H   UNL     1      43.673 -18.697   1.300  1.00  0.00     0.167 HD
HETATM    6  C   UNL     1      44.220 -20.003   2.800  1.00  0.00     0.020 A 
HETATM    7  C   UNL     1      44.537 -20.141   4.140  1.00  0.00     0.005 A 
HETATM    8  C   UNL     1      44.908 -21.557   4.446  1.00  0.00     0.044 C 
HETATM    9  C   UNL     1      44.347 -22.289   3.212  1.00  0.00     0.011 C 
HETATM   10  C   UNL     1      44.363 -21.286   2.048  1.00  0.00     0.058 C 
ENDROOT
BRANCH   3  11
HETATM   11  C   UNL     1      43.449 -16.432   2.555  1.00  0.00     0.085 C 
BRANCH  11  12
HETATM   12  C   UNL     1      42.872 -15.452   3.605  1.00  0.00     0.021 C 
HETATM   13  C   UNL     1      43.168 -13.982   3.303  1.00  0.00     0.181 C 
HETATM   14  O   UNL     1      42.795 -13.678   1.950  1.00  0.00    -0.350 OA
HETATM   15  C   UNL     1      41.455 -13.920   1.726  1.00  0.00     0.077 A 
HETATM   16  C   UNL     1      40.719 -14.840   2.492  1.00  0.00    -0.024 A 
HETATM   17  C   UNL     1      40.867 -13.245   0.654  1.00  0.00     0.074 A 
HETATM   18  C   UNL     1      41.345 -15.583   3.646  1.00  0.00     0.048 C 
HETATM   19  C   UNL     1      39.371 -15.047   2.187  1.00  0.00     0.012 A 
HETATM   20  C   UNL     1      38.783 -14.363   1.123  1.00  0.00     0.037 A 
HETATM   21  C   UNL     1      39.521 -13.459   0.355  1.00  0.00     0.070 A 
BRANCH  21  22
HETATM   22  O   UNL     1      38.816 -12.867  -0.654  1.00  0.00    -0.356 OA
HETATM   23  C   UNL     1      38.672 -11.454  -0.609  1.00  0.00     0.210 C 
ENDBRANCH  21  22
ENDBRANCH  11  12
ENDBRANCH   3  11
BRANCH   1  24
HETATM   24  N   UNL     1      44.765 -19.168   6.315  1.00  0.00    -0.281 NA
HETATM   25  C   UNL     1      43.609 -19.152   7.199  1.00  0.00     0.114 C 
HETATM   26  H   UNL     1      45.491 -18.530   6.633  1.00  0.00     0.128 HD
ENDBRANCH   1  24
TORSDOF 4
ENDMDL
