MODEL 1
REMARK VINA RESULT:      -9.2      0.000      0.000
REMARK  6 active torsions:
REMARK  status: ('A' for Active; 'I' for Inactive)
REMARK    1  A    between atoms: O_2  and  C_3 
REMARK    2  A    between atoms: C_5  and  N_6 
REMARK    3  A    between atoms: C_8  and  C_9 
REMARK    4  A    between atoms: C_9  and  N_10 
REMARK       I    between atoms: N_10  and  C_11 
REMARK       I    between atoms: C_11  and  N_12 
REMARK    5  A    between atoms: N_12  and  C_13 
REMARK    6  A    between atoms: C_13  and  C_14 
ROOT
HETATM    1  N   UNL     1      40.241 -15.529   0.987  1.00  0.00    -0.343 N 
HETATM    2  C   UNL     1      41.595 -15.705   0.891  1.00  0.00     0.316 C 
HETATM    3  N   UNL     1      41.925 -17.033   0.926  1.00  0.00    -0.339 N 
HETATM    4  O   UNL     1      42.400 -14.797   0.744  1.00  0.00    -0.248 OA
HETATM    5  H   UNL     1      39.667 -16.343   0.826  1.00  0.00     0.164 HD
HETATM    6  H   UNL     1      41.312 -17.629   1.461  1.00  0.00     0.164 HD
ENDROOT
BRANCH   1   7
HETATM    7  C   UNL     1      39.624 -14.229   0.793  1.00  0.00     0.130 C 
BRANCH   7   8
HETATM    8  C   UNL     1      38.998 -13.656   2.075  1.00  0.00     0.023 C 
HETATM    9  C   UNL     1      39.470 -14.386   3.337  1.00  0.00     0.129 C 
HETATM   10  N   UNL     1      40.716 -13.710   3.695  1.00  0.00    -0.380 N 
HETATM   11  C   UNL     1      40.823 -12.410   3.036  1.00  0.00     0.123 C 
HETATM   12  C   UNL     1      39.472 -12.227   2.343  1.00  0.00     0.028 C 
BRANCH  10  13
HETATM   13  C   UNL     1      41.681 -14.249   4.517  1.00  0.00     0.032 A 
HETATM   14  C   UNL     1      41.401 -15.324   5.382  1.00  0.00     0.066 A 
HETATM   15  C   UNL     1      42.371 -15.865   6.239  1.00  0.00     0.070 A 
HETATM   16  C   UNL     1      43.652 -15.321   6.251  1.00  0.00     0.037 A 
HETATM   17  C   UNL     1      43.968 -14.269   5.401  1.00  0.00     0.005 A 
HETATM   18  C   UNL     1      42.993 -13.749   4.543  1.00  0.00     0.029 A 
BRANCH  15  19
HETATM   19  O   UNL     1      42.185 -16.902   7.112  1.00  0.00    -0.356 OA
HETATM   20  C   UNL     1      43.273 -17.224   7.968  1.00  0.00     0.210 C 
ENDBRANCH  15  19
ENDBRANCH  10  13
ENDBRANCH   7   8
ENDBRANCH   1   7
BRANCH   3  21
HETATM   21  C   UNL     1      43.310 -17.438   0.845  1.00  0.00     0.162 C 
BRANCH  21  22
HETATM   22  C   UNL     1      43.684 -18.319   2.008  1.00  0.00    -0.040 A 
HETATM   23  C   UNL     1      43.880 -19.697   1.835  1.00  0.00     0.021 A 
HETATM   24  C   UNL     1      44.199 -20.529   2.922  1.00  0.00    -0.025 A 
HETATM   25  C   UNL     1      44.328 -19.967   4.213  1.00  0.00    -0.026 A 
HETATM   26  C   UNL     1      44.388 -21.911   2.757  1.00  0.00     0.012 A 
HETATM   27  C   UNL     1      44.133 -18.587   4.381  1.00  0.00     0.013 A 
HETATM   28  C   UNL     1      44.642 -20.798   5.299  1.00  0.00     0.012 A 
HETATM   29  C   UNL     1      43.811 -17.775   3.294  1.00  0.00     0.010 A 
HETATM   30  C   UNL     1      44.824 -22.170   5.118  1.00  0.00     0.001 A 
HETATM   31  C   UNL     1      44.697 -22.725   3.849  1.00  0.00     0.001 A 
ENDBRANCH  21  22
ENDBRANCH   3  21
TORSDOF 6
ENDMDL
MODEL 2
REMARK VINA RESULT:      -8.8      1.041      1.475
REMARK  6 active torsions:
REMARK  status: ('A' for Active; 'I' for Inactive)
REMARK    1  A    between atoms: O_2  and  C_3 
REMARK    2  A    between atoms: C_5  and  N_6 
REMARK    3  A    between atoms: C_8  and  C_9 
REMARK    4  A    between atoms: C_9  and  N_10 
REMARK       I    between atoms: N_10  and  C_11 
REMARK       I    between atoms: C_11  and  N_12 
REMARK    5  A    between atoms: N_12  and  C_13 
REMARK    6  A    between atoms: C_13  and  C_14 
ROOT
HETATM    1  N   UNL     1      40.037 -15.299   1.054  1.00  0.00    -0.343 N 
HETATM    2  C   UNL     1      41.320 -15.607   0.691  1.00  0.00     0.316 C 
HETATM    3  N   UNL     1      41.664 -16.864   1.107  1.00  0.00    -0.339 N 
HETATM    4  O   UNL     1      42.047 -14.871   0.039  1.00  0.00    -0.248 OA
HETATM    5  H   UNL     1      39.451 -16.070   1.338  1.00  0.00     0.164 HD
HETATM    6  H   UNL     1      41.221 -17.190   1.951  1.00  0.00     0.164 HD
ENDROOT
BRANCH   1   7
HETATM    7  C   UNL     1      39.375 -14.098   0.577  1.00  0.00     0.130 C 
BRANCH   7   8
HETATM    8  C   UNL     1      39.013 -13.115   1.704  1.00  0.00     0.023 C 
HETATM    9  C   UNL     1      39.310 -13.681   3.097  1.00  0.00     0.129 C 
HETATM   10  N   UNL     1      40.717 -13.355   3.322  1.00  0.00    -0.380 N 
HETATM   11  C   UNL     1      41.173 -12.310   2.407  1.00  0.00     0.123 C 
HETATM   12  C   UNL     1      39.904 -11.873   1.674  1.00  0.00     0.028 C 
BRANCH  10  13
HETATM   13  C   UNL     1      41.519 -13.981   4.251  1.00  0.00     0.032 A 
HETATM   14  C   UNL     1      42.793 -13.484   4.586  1.00  0.00     0.066 A 
HETATM   15  C   UNL     1      43.625 -14.127   5.513  1.00  0.00     0.070 A 
HETATM   16  C   UNL     1      43.192 -15.302   6.120  1.00  0.00     0.037 A 
HETATM   17  C   UNL     1      41.936 -15.815   5.824  1.00  0.00     0.005 A 
HETATM   18  C   UNL     1      41.113 -15.154   4.906  1.00  0.00     0.029 A 
BRANCH  15  19
HETATM   19  O   UNL     1      44.874 -13.716   5.894  1.00  0.00    -0.356 OA
HETATM   20  C   UNL     1      45.151 -13.711   7.288  1.00  0.00     0.210 C 
ENDBRANCH  15  19
ENDBRANCH  10  13
ENDBRANCH   7   8
ENDBRANCH   1   7
BRANCH   3  21
HETATM   21  C   UNL     1      42.984 -17.384   0.830  1.00  0.00     0.162 C 
BRANCH  21  22
HETATM   22  C   UNL     1      43.469 -18.257   1.957  1.00  0.00    -0.040 A 
HETATM   23  C   UNL     1      43.676 -19.631   1.765  1.00  0.00     0.021 A 
HETATM   24  C   UNL     1      44.098 -20.457   2.822  1.00  0.00    -0.025 A 
HETATM   25  C   UNL     1      44.321 -19.893   4.098  1.00  0.00    -0.026 A 
HETATM   26  C   UNL     1      44.298 -21.835   2.640  1.00  0.00     0.012 A 
HETATM   27  C   UNL     1      44.115 -18.518   4.285  1.00  0.00     0.013 A 
HETATM   28  C   UNL     1      44.738 -20.718   5.154  1.00  0.00     0.012 A 
HETATM   29  C   UNL     1      43.690 -17.711   3.228  1.00  0.00     0.010 A 
HETATM   30  C   UNL     1      44.931 -22.086   4.957  1.00  0.00     0.001 A 
HETATM   31  C   UNL     1      44.711 -22.644   3.701  1.00  0.00     0.001 A 
ENDBRANCH  21  22
ENDBRANCH   3  21
TORSDOF 6
ENDMDL
MODEL 3
REMARK VINA RESULT:      -8.7      5.638      9.850
REMARK  6 active torsions:
REMARK  status: ('A' for Active; 'I' for Inactive)
REMARK    1  A    between atoms: O_2  and  C_3 
REMARK    2  A    between atoms: C_5  and  N_6 
REMARK    3  A    between atoms: C_8  and  C_9 
REMARK    4  A    between atoms: C_9  and  N_10 
REMARK       I    between atoms: N_10  and  C_11 
REMARK       I    between atoms: C_11  and  N_12 
REMARK    5  A    between atoms: N_12  and  C_13 
REMARK    6  A    between atoms: C_13  and  C_14 
ROOT
HETATM    1  N   UNL     1      43.259 -13.485   6.677  1.00  0.00    -0.343 N 
HETATM    2  C   UNL     1      44.104 -13.122   7.690  1.00  0.00     0.316 C 
HETATM    3  N   UNL     1      43.614 -12.051   8.385  1.00  0.00    -0.339 N 
HETATM    4  O   UNL     1      45.140 -13.711   7.967  1.00  0.00    -0.248 OA
HETATM    5  H   UNL     1      42.322 -13.113   6.717  1.00  0.00     0.164 HD
HETATM    6  H   UNL     1      43.048 -11.402   7.861  1.00  0.00     0.164 HD
ENDROOT
BRANCH   1   7
HETATM    7  C   UNL     1      43.462 -14.700   5.909  1.00  0.00     0.130 C 
BRANCH   7   8
HETATM    8  C   UNL     1      42.559 -14.792   4.668  1.00  0.00     0.023 C 
HETATM    9  C   UNL     1      43.113 -15.748   3.606  1.00  0.00     0.129 C 
HETATM   10  N   UNL     1      42.614 -17.061   4.014  1.00  0.00    -0.380 N 
HETATM   11  C   UNL     1      41.500 -16.938   4.951  1.00  0.00     0.123 C 
HETATM   12  C   UNL     1      41.212 -15.436   4.998  1.00  0.00     0.028 C 
BRANCH  10  13
HETATM   13  C   UNL     1      43.153 -18.258   3.598  1.00  0.00     0.032 A 
HETATM   14  C   UNL     1      44.006 -19.015   4.425  1.00  0.00     0.066 A 
HETATM   15  C   UNL     1      44.578 -20.223   4.001  1.00  0.00     0.070 A 
HETATM   16  C   UNL     1      44.310 -20.694   2.718  1.00  0.00     0.037 A 
HETATM   17  C   UNL     1      43.463 -19.981   1.880  1.00  0.00     0.005 A 
HETATM   18  C   UNL     1      42.890 -18.784   2.322  1.00  0.00     0.029 A 
BRANCH  15  19
HETATM   19  O   UNL     1      45.416 -21.018   4.735  1.00  0.00    -0.356 OA
HETATM   20  C   UNL     1      44.932 -22.306   5.090  1.00  0.00     0.210 C 
ENDBRANCH  15  19
ENDBRANCH  10  13
ENDBRANCH   7   8
ENDBRANCH   1   7
BRANCH   3  21
HETATM   21  C   UNL     1      44.359 -11.504   9.496  1.00  0.00     0.162 C 
BRANCH  21  22
HETATM   22  C   UNL     1      43.467 -10.696  10.401  1.00  0.00    -0.040 A 
HETATM   23  C   UNL     1      43.849 -10.408  11.719  1.00  0.00     0.021 A 
HETATM   24  C   UNL     1      43.006  -9.681  12.579  1.00  0.00    -0.025 A 
HETATM   25  C   UNL     1      41.753  -9.230  12.105  1.00  0.00    -0.026 A 
HETATM   26  C   UNL     1      43.379  -9.396  13.903  1.00  0.00     0.012 A 
HETATM   27  C   UNL     1      41.376  -9.519  10.785  1.00  0.00     0.013 A 
HETATM   28  C   UNL     1      40.910  -8.509  12.965  1.00  0.00     0.012 A 
HETATM   29  C   UNL     1      42.220 -10.247   9.945  1.00  0.00     0.010 A 
HETATM   30  C   UNL     1      41.294  -8.237  14.278  1.00  0.00     0.001 A 
HETATM   31  C   UNL     1      42.528  -8.680  14.746  1.00  0.00     0.001 A 
ENDBRANCH  21  22
ENDBRANCH   3  21
TORSDOF 6
ENDMDL
MODEL 4
REMARK VINA RESULT:      -8.4      5.380      9.408
REMARK  6 active torsions:
REMARK  status: ('A' for Active; 'I' for Inactive)
REMARK    1  A    between atoms: O_2  and  C_3 
REMARK    2  A    between atoms: C_5  and  N_6 
REMARK    3  A    between atoms: C_8  and  C_9 
REMARK    4  A    between atoms: C_9  and  N_10 
REMARK       I    between atoms: N_10  and  C_11 
REMARK       I    between atoms: C_11  and  N_12 
REMARK    5  A    between atoms: N_12  and  C_13 
REMARK    6  A    between atoms: C_13  and  C_14 
ROOT
HETATM    1  N   UNL     1      42.153 -13.470   6.052  1.00  0.00    -0.343 N 
HETATM    2  C   UNL     1      41.847 -12.153   6.260  1.00  0.00     0.316 C 
HETATM    3  N   UNL     1      42.234 -11.747   7.508  1.00  0.00    -0.339 N 
HETATM    4  O   UNL     1      41.338 -11.423   5.422  1.00  0.00    -0.248 OA
HETATM    5  H   UNL     1      42.809 -13.889   6.695  1.00  0.00     0.164 HD
HETATM    6  H   UNL     1      42.223 -12.452   8.228  1.00  0.00     0.164 HD
ENDROOT
BRANCH   1   7
HETATM    7  C   UNL     1      42.010 -14.092   4.747  1.00  0.00     0.130 C 
BRANCH   7   8
HETATM    8  C   UNL     1      40.874 -15.126   4.689  1.00  0.00     0.023 C 
HETATM    9  C   UNL     1      41.150 -16.248   3.682  1.00  0.00     0.129 C 
HETATM   10  N   UNL     1      41.938 -17.220   4.439  1.00  0.00    -0.380 N 
HETATM   11  C   UNL     1      41.811 -17.001   5.878  1.00  0.00     0.123 C 
HETATM   12  C   UNL     1      40.752 -15.904   5.999  1.00  0.00     0.028 C 
BRANCH  10  13
HETATM   13  C   UNL     1      42.728 -18.191   3.865  1.00  0.00     0.032 A 
HETATM   14  C   UNL     1      43.618 -18.970   4.630  1.00  0.00     0.066 A 
HETATM   15  C   UNL     1      44.443 -19.945   4.052  1.00  0.00     0.070 A 
HETATM   16  C   UNL     1      44.397 -20.152   2.676  1.00  0.00     0.037 A 
HETATM   17  C   UNL     1      43.522 -19.412   1.893  1.00  0.00     0.005 A 
HETATM   18  C   UNL     1      42.696 -18.451   2.486  1.00  0.00     0.029 A 
BRANCH  15  19
HETATM   19  O   UNL     1      45.336 -20.741   4.718  1.00  0.00    -0.356 OA
HETATM   20  C   UNL     1      44.928 -22.076   4.988  1.00  0.00     0.210 C 
ENDBRANCH  15  19
ENDBRANCH  10  13
ENDBRANCH   7   8
ENDBRANCH   1   7
BRANCH   3  21
HETATM   21  C   UNL     1      41.996 -10.386   7.934  1.00  0.00     0.162 C 
BRANCH  21  22
HETATM   22  C   UNL     1      42.384 -10.195   9.376  1.00  0.00    -0.040 A 
HETATM   23  C   UNL     1      41.577  -9.448  10.246  1.00  0.00     0.021 A 
HETATM   24  C   UNL     1      41.950  -9.240  11.586  1.00  0.00    -0.025 A 
HETATM   25  C   UNL     1      43.158  -9.796  12.065  1.00  0.00    -0.026 A 
HETATM   26  C   UNL     1      41.152  -8.485  12.461  1.00  0.00     0.012 A 
HETATM   27  C   UNL     1      43.961 -10.545  11.192  1.00  0.00     0.013 A 
HETATM   28  C   UNL     1      43.532  -9.585  13.401  1.00  0.00     0.012 A 
HETATM   29  C   UNL     1      43.581 -10.738   9.863  1.00  0.00     0.010 A 
HETATM   30  C   UNL     1      42.728  -8.830  14.257  1.00  0.00     0.001 A 
HETATM   31  C   UNL     1      41.540  -8.281  13.787  1.00  0.00     0.001 A 
ENDBRANCH  21  22
ENDBRANCH   3  21
TORSDOF 6
ENDMDL
MODEL 5
REMARK VINA RESULT:      -8.3      5.243      6.577
REMARK  6 active torsions:
REMARK  status: ('A' for Active; 'I' for Inactive)
REMARK    1  A    between atoms: O_2  and  C_3 
REMARK    2  A    between atoms: C_5  and  N_6 
REMARK    3  A    between atoms: C_8  and  C_9 
REMARK    4  A    between atoms: C_9  and  N_10 
REMARK       I    between atoms: N_10  and  C_11 
REMARK       I    between atoms: C_11  and  N_12 
REMARK    5  A    between atoms: N_12  and  C_13 
REMARK    6  A    between atoms: C_13  and  C_14 
ROOT
HETATM    1  N   UNL     1      44.609 -14.426   6.975  1.00  0.00    -0.343 N 
HETATM    2  C   UNL     1      43.609 -14.655   6.070  1.00  0.00     0.316 C 
HETATM    3  N   UNL     1      44.043 -15.452   5.045  1.00  0.00    -0.339 N 
HETATM    4  O   UNL     1      42.465 -14.241   6.187  1.00  0.00    -0.248 OA
HETATM    5  H   UNL     1      45.414 -15.032   6.922  1.00  0.00     0.164 HD
HETATM    6  H   UNL     1      45.018 -15.374   4.804  1.00  0.00     0.164 HD
ENDROOT
BRANCH   1   7
HETATM    7  C   UNL     1      44.357 -13.761   8.241  1.00  0.00     0.130 C 
BRANCH   7   8
HETATM    8  C   UNL     1      44.645 -12.251   8.203  1.00  0.00     0.023 C 
HETATM    9  C   UNL     1      43.502 -11.418   8.792  1.00  0.00     0.129 C 
HETATM   10  N   UNL     1      43.782 -11.393  10.227  1.00  0.00    -0.380 N 
HETATM   11  C   UNL     1      45.169 -11.761  10.504  1.00  0.00     0.123 C 
HETATM   12  C   UNL     1      45.811 -11.877   9.120  1.00  0.00     0.028 C 
BRANCH  10  13
HETATM   13  C   UNL     1      42.848 -11.097  11.194  1.00  0.00     0.032 A 
HETATM   14  C   UNL     1      43.217 -10.841  12.529  1.00  0.00     0.066 A 
HETATM   15  C   UNL     1      42.271 -10.561  13.525  1.00  0.00     0.070 A 
HETATM   16  C   UNL     1      40.918 -10.544  13.198  1.00  0.00     0.037 A 
HETATM   17  C   UNL     1      40.518 -10.778  11.889  1.00  0.00     0.005 A 
HETATM   18  C   UNL     1      41.475 -11.043  10.904  1.00  0.00     0.029 A 
BRANCH  15  19
HETATM   19  O   UNL     1      42.541 -10.305  14.842  1.00  0.00    -0.356 OA
HETATM   20  C   UNL     1      41.526  -9.646  15.589  1.00  0.00     0.210 C 
ENDBRANCH  15  19
ENDBRANCH  10  13
ENDBRANCH   7   8
ENDBRANCH   1   7
BRANCH   3  21
HETATM   21  C   UNL     1      43.141 -15.811   3.975  1.00  0.00     0.162 C 
BRANCH  21  22
HETATM   22  C   UNL     1      43.378 -17.227   3.520  1.00  0.00    -0.040 A 
HETATM   23  C   UNL     1      43.843 -18.202   4.415  1.00  0.00     0.021 A 
HETATM   24  C   UNL     1      44.097 -19.518   3.989  1.00  0.00    -0.025 A 
HETATM   25  C   UNL     1      43.876 -19.866   2.637  1.00  0.00    -0.026 A 
HETATM   26  C   UNL     1      44.572 -20.497   4.877  1.00  0.00     0.012 A 
HETATM   27  C   UNL     1      43.408 -18.888   1.746  1.00  0.00     0.013 A 
HETATM   28  C   UNL     1      44.134 -21.178   2.211  1.00  0.00     0.012 A 
HETATM   29  C   UNL     1      43.167 -17.584   2.182  1.00  0.00     0.010 A 
HETATM   30  C   UNL     1      44.607 -22.138   3.106  1.00  0.00     0.001 A 
HETATM   31  C   UNL     1      44.826 -21.798   4.437  1.00  0.00     0.001 A 
ENDBRANCH  21  22
ENDBRANCH   3  21
TORSDOF 6
ENDMDL
MODEL 6
REMARK VINA RESULT:      -8.3      5.298      9.295
REMARK  6 active torsions:
REMARK  status: ('A' for Active; 'I' for Inactive)
REMARK    1  A    between atoms: O_2  and  C_3 
REMARK    2  A    between atoms: C_5  and  N_6 
REMARK    3  A    between atoms: C_8  and  C_9 
REMARK    4  A    between atoms: C_9  and  N_10 
REMARK       I    between atoms: N_10  and  C_11 
REMARK       I    between atoms: C_11  and  N_12 
REMARK    5  A    between atoms: N_12  and  C_13 
REMARK    6  A    between atoms: C_13  and  C_14 
ROOT
HETATM    1  N   UNL     1      42.112 -13.454   6.056  1.00  0.00    -0.343 N 
HETATM    2  C   UNL     1      41.670 -12.188   6.326  1.00  0.00     0.316 C 
HETATM    3  N   UNL     1      42.079 -11.774   7.564  1.00  0.00    -0.339 N 
HETATM    4  O   UNL     1      41.033 -11.498   5.542  1.00  0.00    -0.248 OA
HETATM    5  H   UNL     1      42.847 -13.812   6.648  1.00  0.00     0.164 HD
HETATM    6  H   UNL     1      42.190 -12.496   8.260  1.00  0.00     0.164 HD
ENDROOT
BRANCH   1   7
HETATM    7  C   UNL     1      41.966 -14.051   4.741  1.00  0.00     0.130 C 
BRANCH   7   8
HETATM    8  C   UNL     1      40.889 -15.148   4.688  1.00  0.00     0.023 C 
HETATM    9  C   UNL     1      41.327 -16.364   3.865  1.00  0.00     0.129 C 
HETATM   10  N   UNL     1      42.064 -17.193   4.819  1.00  0.00    -0.380 N 
HETATM   11  C   UNL     1      41.762 -16.812   6.197  1.00  0.00     0.123 C 
HETATM   12  C   UNL     1      40.650 -15.770   6.064  1.00  0.00     0.028 C 
BRANCH  10  13
HETATM   13  C   UNL     1      42.955 -18.180   4.461  1.00  0.00     0.032 A 
HETATM   14  C   UNL     1      42.910 -18.796   3.195  1.00  0.00     0.066 A 
HETATM   15  C   UNL     1      43.799 -19.817   2.830  1.00  0.00     0.070 A 
HETATM   16  C   UNL     1      44.754 -20.252   3.745  1.00  0.00     0.037 A 
HETATM   17  C   UNL     1      44.837 -19.658   4.997  1.00  0.00     0.005 A 
HETATM   18  C   UNL     1      43.951 -18.632   5.342  1.00  0.00     0.029 A 
BRANCH  15  19
HETATM   19  O   UNL     1      43.824 -20.470   1.628  1.00  0.00    -0.356 OA
HETATM   20  C   UNL     1      43.973 -21.883   1.667  1.00  0.00     0.210 C 
ENDBRANCH  15  19
ENDBRANCH  10  13
ENDBRANCH   7   8
ENDBRANCH   1   7
BRANCH   3  21
HETATM   21  C   UNL     1      41.712 -10.463   8.049  1.00  0.00     0.162 C 
BRANCH  21  22
HETATM   22  C   UNL     1      41.575 -10.459   9.548  1.00  0.00    -0.040 A 
HETATM   23  C   UNL     1      42.580  -9.916  10.362  1.00  0.00     0.021 A 
HETATM   24  C   UNL     1      42.473  -9.937  11.764  1.00  0.00    -0.025 A 
HETATM   25  C   UNL     1      41.330 -10.514  12.364  1.00  0.00    -0.026 A 
HETATM   26  C   UNL     1      43.479  -9.403  12.585  1.00  0.00     0.012 A 
HETATM   27  C   UNL     1      40.327 -11.055  11.546  1.00  0.00     0.013 A 
HETATM   28  C   UNL     1      41.225 -10.540  13.763  1.00  0.00     0.012 A 
HETATM   29  C   UNL     1      40.450 -11.032  10.156  1.00  0.00     0.010 A 
HETATM   30  C   UNL     1      42.235 -10.007  14.565  1.00  0.00     0.001 A 
HETATM   31  C   UNL     1      43.361  -9.439  13.976  1.00  0.00     0.001 A 
ENDBRANCH  21  22
ENDBRANCH   3  21
TORSDOF 6
ENDMDL
MODEL 7
REMARK VINA RESULT:      -8.3      5.683      9.913
REMARK  6 active torsions:
REMARK  status: ('A' for Active; 'I' for Inactive)
REMARK    1  A    between atoms: O_2  and  C_3 
REMARK    2  A    between atoms: C_5  and  N_6 
REMARK    3  A    between atoms: C_8  and  C_9 
REMARK    4  A    between atoms: C_9  and  N_10 
REMARK       I    between atoms: N_10  and  C_11 
REMARK       I    between atoms: C_11  and  N_12 
REMARK    5  A    between atoms: N_12  and  C_13 
REMARK    6  A    between atoms: C_13  and  C_14 
ROOT
HETATM    1  N   UNL     1      43.527 -13.190   7.056  1.00  0.00    -0.343 N 
HETATM    2  C   UNL     1      44.317 -12.911   8.137  1.00  0.00     0.316 C 
HETATM    3  N   UNL     1      43.628 -12.206   9.085  1.00  0.00    -0.339 N 
HETATM    4  O   UNL     1      45.475 -13.284   8.259  1.00  0.00    -0.248 OA
HETATM    5  H   UNL     1      42.532 -13.078   7.183  1.00  0.00     0.164 HD
HETATM    6  H   UNL     1      42.898 -11.599   8.745  1.00  0.00     0.164 HD
ENDROOT
BRANCH   1   7
HETATM    7  C   UNL     1      43.967 -14.080   5.996  1.00  0.00     0.130 C 
BRANCH   7   8
HETATM    8  C   UNL     1      42.847 -14.448   5.008  1.00  0.00     0.023 C 
HETATM    9  C   UNL     1      43.275 -15.531   4.011  1.00  0.00     0.129 C 
HETATM   10  N   UNL     1      43.009 -16.786   4.713  1.00  0.00    -0.380 N 
HETATM   11  C   UNL     1      42.099 -16.583   5.838  1.00  0.00     0.123 C 
HETATM   12  C   UNL     1      41.670 -15.120   5.715  1.00  0.00     0.028 C 
BRANCH  10  13
HETATM   13  C   UNL     1      43.577 -17.995   4.378  1.00  0.00     0.032 A 
HETATM   14  C   UNL     1      43.268 -18.650   3.170  1.00  0.00     0.066 A 
HETATM   15  C   UNL     1      43.823 -19.892   2.831  1.00  0.00     0.070 A 
HETATM   16  C   UNL     1      44.700 -20.513   3.715  1.00  0.00     0.037 A 
HETATM   17  C   UNL     1      45.039 -19.891   4.909  1.00  0.00     0.005 A 
HETATM   18  C   UNL     1      44.486 -18.646   5.228  1.00  0.00     0.029 A 
BRANCH  15  19
HETATM   19  O   UNL     1      43.577 -20.597   1.684  1.00  0.00    -0.356 OA
HETATM   20  C   UNL     1      44.154 -21.893   1.590  1.00  0.00     0.210 C 
ENDBRANCH  15  19
ENDBRANCH  10  13
ENDBRANCH   7   8
ENDBRANCH   1   7
BRANCH   3  21
HETATM   21  C   UNL     1      44.284 -11.802  10.308  1.00  0.00     0.162 C 
BRANCH  21  22
HETATM   22  C   UNL     1      43.370 -10.961  11.160  1.00  0.00    -0.040 A 
HETATM   23  C   UNL     1      41.991 -10.913  10.907  1.00  0.00     0.021 A 
HETATM   24  C   UNL     1      41.137 -10.105  11.678  1.00  0.00    -0.025 A 
HETATM   25  C   UNL     1      41.677  -9.330  12.729  1.00  0.00    -0.026 A 
HETATM   26  C   UNL     1      39.757 -10.046  11.425  1.00  0.00     0.012 A 
HETATM   27  C   UNL     1      43.057  -9.382  12.980  1.00  0.00     0.013 A 
HETATM   28  C   UNL     1      40.826  -8.519  13.496  1.00  0.00     0.012 A 
HETATM   29  C   UNL     1      43.893 -10.184  12.202  1.00  0.00     0.010 A 
HETATM   30  C   UNL     1      39.457  -8.470  13.230  1.00  0.00     0.001 A 
HETATM   31  C   UNL     1      38.923  -9.232  12.195  1.00  0.00     0.001 A 
ENDBRANCH  21  22
ENDBRANCH   3  21
TORSDOF 6
ENDMDL
MODEL 8
REMARK VINA RESULT:      -8.3      3.141      6.167
REMARK  6 active torsions:
REMARK  status: ('A' for Active; 'I' for Inactive)
REMARK    1  A    between atoms: O_2  and  C_3 
REMARK    2  A    between atoms: C_5  and  N_6 
REMARK    3  A    between atoms: C_8  and  C_9 
REMARK    4  A    between atoms: C_9  and  N_10 
REMARK       I    between atoms: N_10  and  C_11 
REMARK       I    between atoms: C_11  and  N_12 
REMARK    5  A    between atoms: N_12  and  C_13 
REMARK    6  A    between atoms: C_13  and  C_14 
ROOT
HETATM    1  N   UNL     1      41.789 -14.054   2.232  1.00  0.00    -0.343 N 
HETATM    2  C   UNL     1      41.772 -14.710   3.433  1.00  0.00     0.316 C 
HETATM    3  N   UNL     1      42.971 -15.321   3.681  1.00  0.00    -0.339 N 
HETATM    4  O   UNL     1      40.823 -14.710   4.205  1.00  0.00    -0.248 OA
HETATM    5  H   UNL     1      42.696 -13.893   1.819  1.00  0.00     0.164 HD
HETATM    6  H   UNL     1      43.486 -15.632   2.872  1.00  0.00     0.164 HD
ENDROOT
BRANCH   1   7
HETATM    7  C   UNL     1      40.705 -13.180   1.822  1.00  0.00     0.130 C 
BRANCH   7   8
HETATM    8  C   UNL     1      41.069 -12.276   0.632  1.00  0.00     0.023 C 
HETATM    9  C   UNL     1      41.297 -13.067  -0.660  1.00  0.00     0.129 C 
HETATM   10  N   UNL     1      39.959 -13.208  -1.232  1.00  0.00    -0.380 N 
HETATM   11  C   UNL     1      39.027 -12.246  -0.646  1.00  0.00     0.123 C 
HETATM   12  C   UNL     1      39.906 -11.364   0.241  1.00  0.00     0.028 C 
BRANCH  10  13
HETATM   13  C   UNL     1      39.614 -14.152  -2.174  1.00  0.00     0.032 A 
HETATM   14  C   UNL     1      38.391 -14.092  -2.870  1.00  0.00     0.066 A 
HETATM   15  C   UNL     1      38.022 -15.061  -3.814  1.00  0.00     0.070 A 
HETATM   16  C   UNL     1      38.879 -16.128  -4.071  1.00  0.00     0.037 A 
HETATM   17  C   UNL     1      40.099 -16.212  -3.413  1.00  0.00     0.005 A 
HETATM   18  C   UNL     1      40.458 -15.230  -2.483  1.00  0.00     0.029 A 
BRANCH  15  19
HETATM   19  O   UNL     1      36.857 -15.083  -4.532  1.00  0.00    -0.356 OA
HETATM   20  C   UNL     1      36.164 -13.849  -4.668  1.00  0.00     0.210 C 
ENDBRANCH  15  19
ENDBRANCH  10  13
ENDBRANCH   7   8
ENDBRANCH   1   7
BRANCH   3  21
HETATM   21  C   UNL     1      43.162 -16.076   4.898  1.00  0.00     0.162 C 
BRANCH  21  22
HETATM   22  C   UNL     1      43.625 -17.477   4.597  1.00  0.00    -0.040 A 
HETATM   23  C   UNL     1      43.239 -18.126   3.415  1.00  0.00     0.021 A 
HETATM   24  C   UNL     1      43.642 -19.445   3.144  1.00  0.00    -0.025 A 
HETATM   25  C   UNL     1      44.455 -20.129   4.077  1.00  0.00    -0.026 A 
HETATM   26  C   UNL     1      43.252 -20.104   1.966  1.00  0.00     0.012 A 
HETATM   27  C   UNL     1      44.841 -19.476   5.257  1.00  0.00     0.013 A 
HETATM   28  C   UNL     1      44.854 -21.447   3.808  1.00  0.00     0.012 A 
HETATM   29  C   UNL     1      44.427 -18.168   5.516  1.00  0.00     0.010 A 
HETATM   30  C   UNL     1      44.455 -22.088   2.634  1.00  0.00     0.001 A 
HETATM   31  C   UNL     1      43.655 -21.417   1.715  1.00  0.00     0.001 A 
ENDBRANCH  21  22
ENDBRANCH   3  21
TORSDOF 6
ENDMDL
MODEL 9
REMARK VINA RESULT:      -8.2      2.515      5.329
REMARK  6 active torsions:
REMARK  status: ('A' for Active; 'I' for Inactive)
REMARK    1  A    between atoms: O_2  and  C_3 
REMARK    2  A    between atoms: C_5  and  N_6 
REMARK    3  A    between atoms: C_8  and  C_9 
REMARK    4  A    between atoms: C_9  and  N_10 
REMARK       I    between atoms: N_10  and  C_11 
REMARK       I    between atoms: C_11  and  N_12 
REMARK    5  A    between atoms: N_12  and  C_13 
REMARK    6  A    between atoms: C_13  and  C_14 
ROOT
HETATM    1  N   UNL     1      40.883 -15.209   4.348  1.00  0.00    -0.343 N 
HETATM    2  C   UNL     1      42.213 -15.472   4.533  1.00  0.00     0.316 C 
HETATM    3  N   UNL     1      42.402 -16.386   5.535  1.00  0.00    -0.339 N 
HETATM    4  O   UNL     1      43.112 -14.990   3.860  1.00  0.00    -0.248 OA
HETATM    5  H   UNL     1      40.232 -15.859   4.762  1.00  0.00     0.164 HD
HETATM    6  H   UNL     1      41.716 -16.383   6.274  1.00  0.00     0.164 HD
ENDROOT
BRANCH   1   7
HETATM    7  C   UNL     1      40.410 -14.413   3.229  1.00  0.00     0.130 C 
BRANCH   7   8
HETATM    8  C   UNL     1      39.673 -15.241   2.163  1.00  0.00     0.023 C 
HETATM    9  C   UNL     1      39.564 -14.510   0.821  1.00  0.00     0.129 C 
HETATM   10  N   UNL     1      40.818 -14.828   0.139  1.00  0.00    -0.380 N 
HETATM   11  C   UNL     1      41.472 -15.987   0.744  1.00  0.00     0.123 C 
HETATM   12  C   UNL     1      40.463 -16.492   1.776  1.00  0.00     0.028 C 
BRANCH  10  13
HETATM   13  C   UNL     1      41.333 -14.103  -0.912  1.00  0.00     0.032 A 
HETATM   14  C   UNL     1      42.059 -12.914  -0.708  1.00  0.00     0.066 A 
HETATM   15  C   UNL     1      42.568 -12.157  -1.773  1.00  0.00     0.070 A 
HETATM   16  C   UNL     1      42.344 -12.580  -3.080  1.00  0.00     0.037 A 
HETATM   17  C   UNL     1      41.645 -13.755  -3.319  1.00  0.00     0.005 A 
HETATM   18  C   UNL     1      41.155 -14.505  -2.245  1.00  0.00     0.029 A 
BRANCH  15  19
HETATM   19  O   UNL     1      43.278 -10.992  -1.665  1.00  0.00    -0.356 OA
HETATM   20  C   UNL     1      42.901 -10.104  -0.622  1.00  0.00     0.210 C 
ENDBRANCH  15  19
ENDBRANCH  10  13
ENDBRANCH   7   8
ENDBRANCH   1   7
BRANCH   3  21
HETATM   21  C   UNL     1      43.738 -16.799   5.897  1.00  0.00     0.162 C 
BRANCH  21  22
HETATM   22  C   UNL     1      44.003 -18.216   5.460  1.00  0.00    -0.040 A 
HETATM   23  C   UNL     1      43.970 -18.570   4.103  1.00  0.00     0.021 A 
HETATM   24  C   UNL     1      44.185 -19.897   3.692  1.00  0.00    -0.025 A 
HETATM   25  C   UNL     1      44.442 -20.892   4.663  1.00  0.00    -0.026 A 
HETATM   26  C   UNL     1      44.144 -20.260   2.336  1.00  0.00     0.012 A 
HETATM   27  C   UNL     1      44.476 -20.533   6.019  1.00  0.00     0.013 A 
HETATM   28  C   UNL     1      44.652 -22.217   4.252  1.00  0.00     0.012 A 
HETATM   29  C   UNL     1      44.255 -19.213   6.413  1.00  0.00     0.010 A 
HETATM   30  C   UNL     1      44.606 -22.562   2.901  1.00  0.00     0.001 A 
HETATM   31  C   UNL     1      44.352 -21.584   1.944  1.00  0.00     0.001 A 
ENDBRANCH  21  22
ENDBRANCH   3  21
TORSDOF 6
ENDMDL
MODEL 10
REMARK VINA RESULT:      -8.0      1.744      4.896
REMARK  6 active torsions:
REMARK  status: ('A' for Active; 'I' for Inactive)
REMARK    1  A    between atoms: O_2  and  C_3 
REMARK    2  A    between atoms: C_5  and  N_6 
REMARK    3  A    between atoms: C_8  and  C_9 
REMARK    4  A    between atoms: C_9  and  N_10 
REMARK       I    between atoms: N_10  and  C_11 
REMARK       I    between atoms: C_11  and  N_12 
REMARK    5  A    between atoms: N_12  and  C_13 
REMARK    6  A    between atoms: C_13  and  C_14 
ROOT
HETATM    1  N   UNL     1      42.246 -13.686   5.146  1.00  0.00    -0.343 N 
HETATM    2  C   UNL     1      42.350 -14.944   5.675  1.00  0.00     0.316 C 
HETATM    3  N   UNL     1      43.611 -15.447   5.510  1.00  0.00    -0.339 N 
HETATM    4  O   UNL     1      41.445 -15.523   6.259  1.00  0.00    -0.248 OA
HETATM    5  H   UNL     1      43.112 -13.209   4.942  1.00  0.00     0.164 HD
HETATM    6  H   UNL     1      44.113 -15.132   4.694  1.00  0.00     0.164 HD
ENDROOT
BRANCH   1   7
HETATM    7  C   UNL     1      41.066 -12.866   5.350  1.00  0.00     0.130 C 
BRANCH   7   8
HETATM    8  C   UNL     1      40.845 -11.831   4.235  1.00  0.00     0.023 C 
HETATM    9  C   UNL     1      41.514 -12.233   2.916  1.00  0.00     0.129 C 
HETATM   10  N   UNL     1      40.525 -13.088   2.261  1.00  0.00    -0.380 N 
HETATM   11  C   UNL     1      39.197 -12.905   2.843  1.00  0.00     0.123 C 
HETATM   12  C   UNL     1      39.373 -11.747   3.827  1.00  0.00     0.028 C 
BRANCH  10  13
HETATM   13  C   UNL     1      40.817 -13.977   1.251  1.00  0.00     0.032 A 
HETATM   14  C   UNL     1      41.064 -13.546  -0.068  1.00  0.00     0.066 A 
HETATM   15  C   UNL     1      41.340 -14.446  -1.107  1.00  0.00     0.070 A 
HETATM   16  C   UNL     1      41.362 -15.812  -0.842  1.00  0.00     0.037 A 
HETATM   17  C   UNL     1      41.138 -16.272   0.449  1.00  0.00     0.005 A 
HETATM   18  C   UNL     1      40.876 -15.361   1.478  1.00  0.00     0.029 A 
BRANCH  15  19
HETATM   19  O   UNL     1      41.586 -14.116  -2.412  1.00  0.00    -0.356 OA
HETATM   20  C   UNL     1      40.564 -14.412  -3.354  1.00  0.00     0.210 C 
ENDBRANCH  15  19
ENDBRANCH  10  13
ENDBRANCH   7   8
ENDBRANCH   1   7
BRANCH   3  21
HETATM   21  C   UNL     1      43.933 -16.771   5.993  1.00  0.00     0.162 C 
BRANCH  21  22
HETATM   22  C   UNL     1      43.859 -17.785   4.882  1.00  0.00    -0.040 A 
HETATM   23  C   UNL     1      44.289 -19.105   5.082  1.00  0.00     0.021 A 
HETATM   24  C   UNL     1      44.252 -20.048   4.039  1.00  0.00    -0.025 A 
HETATM   25  C   UNL     1      43.769 -19.660   2.769  1.00  0.00    -0.026 A 
HETATM   26  C   UNL     1      44.689 -21.369   4.230  1.00  0.00     0.012 A 
HETATM   27  C   UNL     1      43.338 -18.339   2.574  1.00  0.00     0.013 A 
HETATM   28  C   UNL     1      43.736 -20.600   1.727  1.00  0.00     0.012 A 
HETATM   29  C   UNL     1      43.386 -17.412   3.616  1.00  0.00     0.010 A 
HETATM   30  C   UNL     1      44.177 -21.908   1.932  1.00  0.00     0.001 A 
HETATM   31  C   UNL     1      44.653 -22.292   3.182  1.00  0.00     0.001 A 
ENDBRANCH  21  22
ENDBRANCH   3  21
TORSDOF 6
ENDMDL
