MODEL 1
REMARK VINA RESULT:      -9.5      0.000      0.000
REMARK  7 active torsions:
REMARK  status: ('A' for Active; 'I' for Inactive)
REMARK    1  A    between atoms: C_2  and  C_3 
REMARK       I    between atoms: C_3  and  N_4 
REMARK    2  A    between atoms: N_7  and  C_8 
REMARK    3  A    between atoms: C_11  and  N_12 
REMARK    4  A    between atoms: N_12  and  C_13 
REMARK    5  A    between atoms: C_13  and  N_14 
REMARK       I    between atoms: N_14  and  C_15 
REMARK    6  A    between atoms: C_15  and  C_16 
REMARK    7  A    between atoms: C_18  and  C_19 
ROOT
HETATM    1  C   UNL     1      43.487 -15.872   6.960  1.00  0.00     0.179 C 
HETATM    2  S   UNL     1      44.243 -17.363   6.843  1.00  0.00    -0.040 SA
ENDROOT
BRANCH   1   3
HETATM    3  N   UNL     1      42.246 -15.503   6.500  1.00  0.00    -0.333 N 
HETATM    4  H   UNL     1      41.593 -15.209   7.224  1.00  0.00     0.168 HD
BRANCH   3   5
HETATM    5  C   UNL     1      41.819 -15.325   5.167  1.00  0.00     0.034 A 
HETATM    6  C   UNL     1      40.519 -14.957   4.840  1.00  0.00     0.032 A 
HETATM    7  C   UNL     1      40.142 -14.797   3.504  1.00  0.00     0.031 A 
HETATM    8  C   UNL     1      41.033 -15.017   2.444  1.00  0.00     0.030 A 
HETATM    9  C   UNL     1      42.357 -15.314   2.795  1.00  0.00     0.031 A 
HETATM   10  C   UNL     1      42.751 -15.451   4.139  1.00  0.00     0.032 A 
BRANCH   8  11
HETATM   11  N   UNL     1      40.581 -14.882   1.124  1.00  0.00    -0.378 N 
HETATM   12  C   UNL     1      41.647 -14.981   0.094  1.00  0.00     0.143 C 
HETATM   13  C   UNL     1      41.032 -15.285  -1.278  1.00  0.00     0.145 C 
HETATM   14  N   UNL     1      39.960 -14.357  -1.655  1.00  0.00    -0.349 N 
HETATM   15  C   UNL     1      39.663 -14.274  -3.013  1.00  0.00     0.219 C 
HETATM   16  C   UNL     1      38.976 -14.081  -0.595  1.00  0.00     0.145 C 
HETATM   17  O   UNL     1      40.383 -14.786  -3.871  1.00  0.00    -0.273 OA
HETATM   18  C   UNL     1      39.601 -13.831   0.795  1.00  0.00     0.143 C 
BRANCH  15  19
HETATM   19  C   UNL     1      38.414 -13.495  -3.395  1.00  0.00     0.098 C 
HETATM   20  C   UNL     1      37.302 -14.402  -3.900  1.00  0.00     0.014 C 
ENDBRANCH  15  19
ENDBRANCH   8  11
ENDBRANCH   3   5
ENDBRANCH   1   3
BRANCH   1  21
HETATM   21  N   UNL     1      44.213 -14.886   7.586  1.00  0.00    -0.298 N 
HETATM   22  C   UNL     1      44.878 -13.786   7.063  1.00  0.00     0.281 C 
HETATM   23  O   UNL     1      45.235 -13.704   5.890  1.00  0.00    -0.265 OA
HETATM   24  H   UNL     1      44.078 -14.867   8.590  1.00  0.00     0.171 HD
BRANCH  22  25
HETATM   25  C   UNL     1      45.142 -12.782   8.074  1.00  0.00     0.144 A 
HETATM   26  O   UNL     1      44.082 -12.332   8.817  1.00  0.00    -0.304 OA
HETATM   27  C   UNL     1      44.535 -11.368   9.670  1.00  0.00     0.086 A 
HETATM   28  C   UNL     1      45.895 -11.210   9.488  1.00  0.00     0.041 A 
HETATM   29  C   UNL     1      46.286 -12.119   8.467  1.00  0.00     0.046 A 
BRANCH  27  30
HETATM   30  C   UNL     1      43.517 -10.747  10.515  1.00  0.00    -0.001 A 
HETATM   31  C   UNL     1      43.835 -10.278  11.798  1.00  0.00     0.038 A 
HETATM   32  C   UNL     1      42.860  -9.703  12.620  1.00  0.00     0.040 A 
HETATM   33 CL   UNL     1      43.346  -9.163  14.189  1.00  0.00    -0.084 Cl
HETATM   34  C   UNL     1      41.537  -9.579  12.179  1.00  0.00    -0.040 A 
HETATM   35  C   UNL     1      40.465  -8.981  13.046  1.00  0.00     0.050 C 
HETATM   36  C   UNL     1      41.216 -10.044  10.897  1.00  0.00     0.009 A 
HETATM   37  C   UNL     1      42.195 -10.619  10.075  1.00  0.00     0.015 A 
ENDBRANCH  27  30
ENDBRANCH  22  25
ENDBRANCH   1  21
TORSDOF 7
ENDMDL
MODEL 2
REMARK VINA RESULT:      -9.4      4.866     11.168
REMARK  7 active torsions:
REMARK  status: ('A' for Active; 'I' for Inactive)
REMARK    1  A    between atoms: C_2  and  C_3 
REMARK       I    between atoms: C_3  and  N_4 
REMARK    2  A    between atoms: N_7  and  C_8 
REMARK    3  A    between atoms: C_11  and  N_12 
REMARK    4  A    between atoms: N_12  and  C_13 
REMARK    5  A    between atoms: C_13  and  N_14 
REMARK       I    between atoms: N_14  and  C_15 
REMARK    6  A    between atoms: C_15  and  C_16 
REMARK    7  A    between atoms: C_18  and  C_19 
ROOT
HETATM    1  C   UNL     1      40.380 -11.625   1.731  1.00  0.00     0.179 C 
HETATM    2  S   UNL     1      40.822 -10.319   0.779  1.00  0.00    -0.040 SA
ENDROOT
BRANCH   1   3
HETATM    3  N   UNL     1      39.578 -11.639   2.847  1.00  0.00    -0.333 N 
HETATM    4  H   UNL     1      38.600 -11.855   2.667  1.00  0.00     0.168 HD
BRANCH   3   5
HETATM    5  C   UNL     1      39.957 -11.554   4.204  1.00  0.00     0.034 A 
HETATM    6  C   UNL     1      39.465 -12.418   5.175  1.00  0.00     0.032 A 
HETATM    7  C   UNL     1      39.867 -12.293   6.507  1.00  0.00     0.031 A 
HETATM    8  C   UNL     1      40.755 -11.292   6.929  1.00  0.00     0.030 A 
HETATM    9  C   UNL     1      41.297 -10.478   5.925  1.00  0.00     0.031 A 
HETATM   10  C   UNL     1      40.918 -10.616   4.577  1.00  0.00     0.032 A 
BRANCH   8  11
HETATM   11  N   UNL     1      41.085 -11.191   8.287  1.00  0.00    -0.378 N 
HETATM   12  C   UNL     1      39.982 -10.705   9.155  1.00  0.00     0.143 C 
HETATM   13  C   UNL     1      40.264 -11.060  10.620  1.00  0.00     0.145 C 
HETATM   14  N   UNL     1      41.586 -10.624  11.081  1.00  0.00    -0.349 N 
HETATM   15  C   UNL     1      41.751 -10.500  12.459  1.00  0.00     0.219 C 
HETATM   16  C   UNL     1      42.695 -10.919  10.160  1.00  0.00     0.145 C 
HETATM   17  O   UNL     1      40.798 -10.552  13.237  1.00  0.00    -0.273 OA
HETATM   18  C   UNL     1      42.383 -10.610   8.679  1.00  0.00     0.143 C 
BRANCH  15  19
HETATM   19  C   UNL     1      43.167 -10.270  12.962  1.00  0.00     0.098 C 
HETATM   20  C   UNL     1      43.237  -9.157  13.996  1.00  0.00     0.014 C 
ENDBRANCH  15  19
ENDBRANCH   8  11
ENDBRANCH   3   5
ENDBRANCH   1   3
BRANCH   1  21
HETATM   21  N   UNL     1      40.901 -12.840   1.352  1.00  0.00    -0.298 N 
HETATM   22  C   UNL     1      41.997 -13.542   1.835  1.00  0.00     0.281 C 
HETATM   23  O   UNL     1      42.916 -13.017   2.460  1.00  0.00    -0.265 OA
HETATM   24  H   UNL     1      40.277 -13.376   0.761  1.00  0.00     0.171 HD
BRANCH  22  25
HETATM   25  C   UNL     1      41.946 -14.943   1.469  1.00  0.00     0.144 A 
HETATM   26  O   UNL     1      42.601 -15.837   2.275  1.00  0.00    -0.304 OA
HETATM   27  C   UNL     1      42.468 -17.081   1.732  1.00  0.00     0.086 A 
HETATM   28  C   UNL     1      41.708 -16.991   0.581  1.00  0.00     0.041 A 
HETATM   29  C   UNL     1      41.370 -15.620   0.414  1.00  0.00     0.046 A 
BRANCH  27  30
HETATM   30  C   UNL     1      43.148 -18.157   2.450  1.00  0.00    -0.001 A 
HETATM   31  C   UNL     1      43.398 -19.391   1.830  1.00  0.00     0.038 A 
HETATM   32  C   UNL     1      44.027 -20.432   2.520  1.00  0.00     0.040 A 
HETATM   33 CL   UNL     1      44.284 -21.919   1.676  1.00  0.00    -0.084 Cl
HETATM   34  C   UNL     1      44.428 -20.267   3.852  1.00  0.00    -0.040 A 
HETATM   35  C   UNL     1      45.091 -21.372   4.624  1.00  0.00     0.050 C 
HETATM   36  C   UNL     1      44.182 -19.035   4.473  1.00  0.00     0.009 A 
HETATM   37  C   UNL     1      43.552 -17.993   3.780  1.00  0.00     0.015 A 
ENDBRANCH  27  30
ENDBRANCH  22  25
ENDBRANCH   1  21
TORSDOF 7
ENDMDL
MODEL 3
REMARK VINA RESULT:      -9.0      4.886     10.825
REMARK  7 active torsions:
REMARK  status: ('A' for Active; 'I' for Inactive)
REMARK    1  A    between atoms: C_2  and  C_3 
REMARK       I    between atoms: C_3  and  N_4 
REMARK    2  A    between atoms: N_7  and  C_8 
REMARK    3  A    between atoms: C_11  and  N_12 
REMARK    4  A    between atoms: N_12  and  C_13 
REMARK    5  A    between atoms: C_13  and  N_14 
REMARK       I    between atoms: N_14  and  C_15 
REMARK    6  A    between atoms: C_15  and  C_16 
REMARK    7  A    between atoms: C_18  and  C_19 
ROOT
HETATM    1  C   UNL     1      39.866 -13.729   2.592  1.00  0.00     0.179 C 
HETATM    2  S   UNL     1      38.865 -14.427   1.444  1.00  0.00    -0.040 SA
ENDROOT
BRANCH   1   3
HETATM    3  N   UNL     1      39.839 -12.448   3.086  1.00  0.00    -0.333 N 
HETATM    4  H   UNL     1      39.487 -11.747   2.436  1.00  0.00     0.168 HD
BRANCH   3   5
HETATM    5  C   UNL     1      40.075 -12.008   4.406  1.00  0.00     0.034 A 
HETATM    6  C   UNL     1      41.087 -11.111   4.728  1.00  0.00     0.032 A 
HETATM    7  C   UNL     1      41.285 -10.708   6.050  1.00  0.00     0.031 A 
HETATM    8  C   UNL     1      40.502 -11.198   7.106  1.00  0.00     0.030 A 
HETATM    9  C   UNL     1      39.441 -12.043   6.754  1.00  0.00     0.031 A 
HETATM   10  C   UNL     1      39.218 -12.432   5.420  1.00  0.00     0.032 A 
BRANCH   8  11
HETATM   11  N   UNL     1      40.779 -10.789   8.418  1.00  0.00    -0.378 N 
HETATM   12  C   UNL     1      39.579 -10.447   9.224  1.00  0.00     0.143 C 
HETATM   13  C   UNL     1      39.922 -10.467  10.719  1.00  0.00     0.145 C 
HETATM   14  N   UNL     1      41.090  -9.647  11.060  1.00  0.00    -0.349 N 
HETATM   15  C   UNL     1      41.202  -9.253  12.391  1.00  0.00     0.219 C 
HETATM   16  C   UNL     1      42.249  -9.814  10.168  1.00  0.00     0.145 C 
HETATM   17  O   UNL     1      40.282  -9.403  13.195  1.00  0.00    -0.273 OA
HETATM   18  C   UNL     1      41.888  -9.849   8.667  1.00  0.00     0.143 C 
BRANCH  15  19
HETATM   19  C   UNL     1      42.511  -8.600  12.806  1.00  0.00     0.098 C 
HETATM   20  C   UNL     1      43.341  -9.497  13.710  1.00  0.00     0.014 C 
ENDBRANCH  15  19
ENDBRANCH   8  11
ENDBRANCH   3   5
ENDBRANCH   1   3
BRANCH   1  21
HETATM   21  N   UNL     1      40.853 -14.545   3.094  1.00  0.00    -0.298 N 
HETATM   22  C   UNL     1      42.225 -14.350   3.184  1.00  0.00     0.281 C 
HETATM   23  O   UNL     1      42.842 -13.545   2.491  1.00  0.00    -0.265 OA
HETATM   24  H   UNL     1      40.493 -15.316   3.644  1.00  0.00     0.171 HD
BRANCH  22  25
HETATM   25  C   UNL     1      42.835 -15.243   4.149  1.00  0.00     0.144 A 
HETATM   26  O   UNL     1      43.111 -16.523   3.748  1.00  0.00    -0.304 OA
HETATM   27  C   UNL     1      43.633 -17.202   4.809  1.00  0.00     0.086 A 
HETATM   28  C   UNL     1      43.711 -16.350   5.894  1.00  0.00     0.041 A 
HETATM   29  C   UNL     1      43.201 -15.092   5.470  1.00  0.00     0.046 A 
BRANCH  27  30
HETATM   30  C   UNL     1      43.950 -18.607   4.564  1.00  0.00    -0.001 A 
HETATM   31  C   UNL     1      43.900 -19.141   3.268  1.00  0.00     0.038 A 
HETATM   32  C   UNL     1      44.180 -20.491   3.030  1.00  0.00     0.040 A 
HETATM   33 CL   UNL     1      44.084 -21.059   1.400  1.00  0.00    -0.084 Cl
HETATM   34  C   UNL     1      44.522 -21.345   4.085  1.00  0.00    -0.040 A 
HETATM   35  C   UNL     1      44.812 -22.803   3.863  1.00  0.00     0.050 C 
HETATM   36  C   UNL     1      44.575 -20.815   5.381  1.00  0.00     0.009 A 
HETATM   37  C   UNL     1      44.295 -19.463   5.617  1.00  0.00     0.015 A 
ENDBRANCH  27  30
ENDBRANCH  22  25
ENDBRANCH   1  21
TORSDOF 7
ENDMDL
MODEL 4
REMARK VINA RESULT:      -9.0      4.536     11.269
REMARK  7 active torsions:
REMARK  status: ('A' for Active; 'I' for Inactive)
REMARK    1  A    between atoms: C_2  and  C_3 
REMARK       I    between atoms: C_3  and  N_4 
REMARK    2  A    between atoms: N_7  and  C_8 
REMARK    3  A    between atoms: C_11  and  N_12 
REMARK    4  A    between atoms: N_12  and  C_13 
REMARK    5  A    between atoms: C_13  and  N_14 
REMARK       I    between atoms: N_14  and  C_15 
REMARK    6  A    between atoms: C_15  and  C_16 
REMARK    7  A    between atoms: C_18  and  C_19 
ROOT
HETATM    1  C   UNL     1      40.547 -12.225   2.787  1.00  0.00     0.179 C 
HETATM    2  S   UNL     1      38.882 -12.115   2.634  1.00  0.00    -0.040 SA
ENDROOT
BRANCH   1   3
HETATM    3  N   UNL     1      41.408 -11.359   3.417  1.00  0.00    -0.333 N 
HETATM    4  H   UNL     1      41.968 -10.782   2.792  1.00  0.00     0.168 HD
BRANCH   3   5
HETATM    5  C   UNL     1      41.499 -11.055   4.792  1.00  0.00     0.034 A 
HETATM    6  C   UNL     1      41.771 -12.018   5.757  1.00  0.00     0.032 A 
HETATM    7  C   UNL     1      41.848 -11.668   7.107  1.00  0.00     0.031 A 
HETATM    8  C   UNL     1      41.636 -10.355   7.553  1.00  0.00     0.030 A 
HETATM    9  C   UNL     1      41.438  -9.386   6.561  1.00  0.00     0.031 A 
HETATM   10  C   UNL     1      41.386  -9.726   5.196  1.00  0.00     0.032 A 
BRANCH   8  11
HETATM   11  N   UNL     1      41.683 -10.077   8.926  1.00  0.00    -0.378 N 
HETATM   12  C   UNL     1      41.264  -8.700   9.291  1.00  0.00     0.143 C 
HETATM   13  C   UNL     1      40.906  -8.632  10.781  1.00  0.00     0.145 C 
HETATM   14  N   UNL     1      41.958  -9.158  11.657  1.00  0.00    -0.349 N 
HETATM   15  C   UNL     1      41.922  -8.741  12.986  1.00  0.00     0.219 C 
HETATM   16  C   UNL     1      42.540 -10.440  11.229  1.00  0.00     0.145 C 
HETATM   17  O   UNL     1      41.184  -7.831  13.364  1.00  0.00    -0.273 OA
HETATM   18  C   UNL     1      42.846 -10.521   9.718  1.00  0.00     0.143 C 
BRANCH  15  19
HETATM   19  C   UNL     1      42.860  -9.447  13.952  1.00  0.00     0.098 C 
HETATM   20  C   UNL     1      42.416  -9.298  15.398  1.00  0.00     0.014 C 
ENDBRANCH  15  19
ENDBRANCH   8  11
ENDBRANCH   3   5
ENDBRANCH   1   3
BRANCH   1  21
HETATM   21  N   UNL     1      41.127 -13.320   2.191  1.00  0.00    -0.298 N 
HETATM   22  C   UNL     1      42.390 -13.874   2.355  1.00  0.00     0.281 C 
HETATM   23  O   UNL     1      43.348 -13.253   2.811  1.00  0.00    -0.265 OA
HETATM   24  H   UNL     1      40.462 -13.909   1.703  1.00  0.00     0.171 HD
BRANCH  22  25
HETATM   25  C   UNL     1      42.446 -15.241   1.879  1.00  0.00     0.144 A 
HETATM   26  O   UNL     1      42.927 -16.195   2.737  1.00  0.00    -0.304 OA
HETATM   27  C   UNL     1      42.940 -17.392   2.083  1.00  0.00     0.086 A 
HETATM   28  C   UNL     1      42.448 -17.212   0.805  1.00  0.00     0.041 A 
HETATM   29  C   UNL     1      42.128 -15.833   0.675  1.00  0.00     0.046 A 
BRANCH  27  30
HETATM   30  C   UNL     1      43.467 -18.521   2.847  1.00  0.00    -0.001 A 
HETATM   31  C   UNL     1      43.498 -18.491   4.249  1.00  0.00     0.038 A 
HETATM   32  C   UNL     1      44.022 -19.559   4.984  1.00  0.00     0.040 A 
HETATM   33 CL   UNL     1      44.025 -19.426   6.709  1.00  0.00    -0.084 Cl
HETATM   34  C   UNL     1      44.529 -20.691   4.336  1.00  0.00    -0.040 A 
HETATM   35  C   UNL     1      45.114 -21.847   5.098  1.00  0.00     0.050 C 
HETATM   36  C   UNL     1      44.498 -20.726   2.935  1.00  0.00     0.009 A 
HETATM   37  C   UNL     1      43.972 -19.656   2.201  1.00  0.00     0.015 A 
ENDBRANCH  27  30
ENDBRANCH  22  25
ENDBRANCH   1  21
TORSDOF 7
ENDMDL
MODEL 5
REMARK VINA RESULT:      -8.7      4.980     11.550
REMARK  7 active torsions:
REMARK  status: ('A' for Active; 'I' for Inactive)
REMARK    1  A    between atoms: C_2  and  C_3 
REMARK       I    between atoms: C_3  and  N_4 
REMARK    2  A    between atoms: N_7  and  C_8 
REMARK    3  A    between atoms: C_11  and  N_12 
REMARK    4  A    between atoms: N_12  and  C_13 
REMARK    5  A    between atoms: C_13  and  N_14 
REMARK       I    between atoms: N_14  and  C_15 
REMARK    6  A    between atoms: C_15  and  C_16 
REMARK    7  A    between atoms: C_18  and  C_19 
ROOT
HETATM    1  C   UNL     1      40.811 -11.430   3.383  1.00  0.00     0.179 C 
HETATM    2  S   UNL     1      39.709 -11.194   2.142  1.00  0.00    -0.040 SA
ENDROOT
BRANCH   1   3
HETATM    3  N   UNL     1      41.388 -10.493   4.205  1.00  0.00    -0.333 N 
HETATM    4  H   UNL     1      41.861  -9.733   3.719  1.00  0.00     0.168 HD
BRANCH   3   5
HETATM    5  C   UNL     1      41.274 -10.361   5.605  1.00  0.00     0.034 A 
HETATM    6  C   UNL     1      40.366  -9.496   6.205  1.00  0.00     0.032 A 
HETATM    7  C   UNL     1      40.293  -9.398   7.596  1.00  0.00     0.031 A 
HETATM    8  C   UNL     1      41.132 -10.137   8.444  1.00  0.00     0.030 A 
HETATM    9  C   UNL     1      41.987 -11.057   7.824  1.00  0.00     0.031 A 
HETATM   10  C   UNL     1      42.048 -11.181   6.423  1.00  0.00     0.032 A 
BRANCH   8  11
HETATM   11  N   UNL     1      41.039  -9.960   9.831  1.00  0.00    -0.378 N 
HETATM   12  C   UNL     1      40.781  -8.561  10.258  1.00  0.00     0.143 C 
HETATM   13  C   UNL     1      40.245  -8.535  11.695  1.00  0.00     0.145 C 
HETATM   14  N   UNL     1      41.085  -9.275  12.644  1.00  0.00    -0.349 N 
HETATM   15  C   UNL     1      40.936  -8.946  13.989  1.00  0.00     0.219 C 
HETATM   16  C   UNL     1      41.524 -10.602  12.182  1.00  0.00     0.145 C 
HETATM   17  O   UNL     1      40.296  -7.958  14.351  1.00  0.00    -0.273 OA
HETATM   18  C   UNL     1      42.010 -10.630  10.716  1.00  0.00     0.143 C 
BRANCH  15  19
HETATM   19  C   UNL     1      41.626  -9.850  14.997  1.00  0.00     0.098 C 
HETATM   20  C   UNL     1      42.011  -9.109  16.268  1.00  0.00     0.014 C 
ENDBRANCH  15  19
ENDBRANCH   8  11
ENDBRANCH   3   5
ENDBRANCH   1   3
BRANCH   1  21
HETATM   21  N   UNL     1      41.196 -12.733   3.595  1.00  0.00    -0.298 N 
HETATM   22  C   UNL     1      42.294 -13.437   3.122  1.00  0.00     0.281 C 
HETATM   23  O   UNL     1      42.932 -13.108   2.124  1.00  0.00    -0.265 OA
HETATM   24  H   UNL     1      40.699 -13.178   4.358  1.00  0.00     0.171 HD
BRANCH  22  25
HETATM   25  C   UNL     1      42.558 -14.623   3.912  1.00  0.00     0.144 A 
HETATM   26  O   UNL     1      42.910 -15.768   3.246  1.00  0.00    -0.304 OA
HETATM   27  C   UNL     1      43.065 -16.766   4.162  1.00  0.00     0.086 A 
HETATM   28  C   UNL     1      42.830 -16.259   5.425  1.00  0.00     0.041 A 
HETATM   29  C   UNL     1      42.507 -14.883   5.265  1.00  0.00     0.046 A 
BRANCH  27  30
HETATM   30  C   UNL     1      43.406 -18.077   3.613  1.00  0.00    -0.001 A 
HETATM   31  C   UNL     1      44.036 -19.048   4.405  1.00  0.00     0.038 A 
HETATM   32  C   UNL     1      44.384 -20.296   3.878  1.00  0.00     0.040 A 
HETATM   33 CL   UNL     1      45.166 -21.425   4.929  1.00  0.00    -0.084 Cl
HETATM   34  C   UNL     1      44.108 -20.609   2.541  1.00  0.00    -0.040 A 
HETATM   35  C   UNL     1      44.485 -21.935   1.943  1.00  0.00     0.050 C 
HETATM   36  C   UNL     1      43.476 -19.642   1.748  1.00  0.00     0.009 A 
HETATM   37  C   UNL     1      43.128 -18.393   2.278  1.00  0.00     0.015 A 
ENDBRANCH  27  30
ENDBRANCH  22  25
ENDBRANCH   1  21
TORSDOF 7
ENDMDL
MODEL 6
REMARK VINA RESULT:      -8.7      4.106      9.951
REMARK  7 active torsions:
REMARK  status: ('A' for Active; 'I' for Inactive)
REMARK    1  A    between atoms: C_2  and  C_3 
REMARK       I    between atoms: C_3  and  N_4 
REMARK    2  A    between atoms: N_7  and  C_8 
REMARK    3  A    between atoms: C_11  and  N_12 
REMARK    4  A    between atoms: N_12  and  C_13 
REMARK    5  A    between atoms: C_13  and  N_14 
REMARK       I    between atoms: N_14  and  C_15 
REMARK    6  A    between atoms: C_15  and  C_16 
REMARK    7  A    between atoms: C_18  and  C_19 
ROOT
HETATM    1  C   UNL     1      39.280 -13.851   1.511  1.00  0.00     0.179 C 
HETATM    2  S   UNL     1      37.735 -14.150   0.937  1.00  0.00    -0.040 SA
ENDROOT
BRANCH   1   3
HETATM    3  N   UNL     1      39.787 -12.688   2.040  1.00  0.00    -0.333 N 
HETATM    4  H   UNL     1      39.880 -11.922   1.375  1.00  0.00     0.168 HD
BRANCH   3   5
HETATM    5  C   UNL     1      40.037 -12.373   3.392  1.00  0.00     0.034 A 
HETATM    6  C   UNL     1      39.095 -11.752   4.204  1.00  0.00     0.032 A 
HETATM    7  C   UNL     1      39.391 -11.455   5.536  1.00  0.00     0.031 A 
HETATM    8  C   UNL     1      40.640 -11.744   6.107  1.00  0.00     0.030 A 
HETATM    9  C   UNL     1      41.549 -12.436   5.296  1.00  0.00     0.031 A 
HETATM   10  C   UNL     1      41.249 -12.762   3.961  1.00  0.00     0.032 A 
BRANCH   8  11
HETATM   11  N   UNL     1      40.890 -11.381   7.437  1.00  0.00    -0.378 N 
HETATM   12  C   UNL     1      39.683 -10.982   8.205  1.00  0.00     0.143 C 
HETATM   13  C   UNL     1      39.964 -11.055   9.711  1.00  0.00     0.145 C 
HETATM   14  N   UNL     1      41.166 -10.318  10.116  1.00  0.00    -0.349 N 
HETATM   15  C   UNL     1      41.249  -9.961  11.460  1.00  0.00     0.219 C 
HETATM   16  C   UNL     1      42.347 -10.540   9.266  1.00  0.00     0.145 C 
HETATM   17  O   UNL     1      40.289 -10.070  12.224  1.00  0.00    -0.273 OA
HETATM   18  C   UNL     1      42.045 -10.520   7.751  1.00  0.00     0.143 C 
BRANCH  15  19
HETATM   19  C   UNL     1      42.579  -9.402  11.940  1.00  0.00     0.098 C 
HETATM   20  C   UNL     1      43.016 -10.011  13.263  1.00  0.00     0.014 C 
ENDBRANCH  15  19
ENDBRANCH   8  11
ENDBRANCH   3   5
ENDBRANCH   1   3
BRANCH   1  21
HETATM   21  N   UNL     1      40.158 -14.906   1.430  1.00  0.00    -0.298 N 
HETATM   22  C   UNL     1      41.374 -15.018   0.770  1.00  0.00     0.281 C 
HETATM   23  O   UNL     1      41.707 -14.294  -0.165  1.00  0.00    -0.265 OA
HETATM   24  H   UNL     1      39.970 -15.637   2.106  1.00  0.00     0.171 HD
BRANCH  22  25
HETATM   25  C   UNL     1      42.169 -16.116   1.283  1.00  0.00     0.144 A 
HETATM   26  O   UNL     1      42.275 -16.245   2.643  1.00  0.00    -0.304 OA
HETATM   27  C   UNL     1      43.095 -17.302   2.910  1.00  0.00     0.086 A 
HETATM   28  C   UNL     1      43.504 -17.868   1.718  1.00  0.00     0.041 A 
HETATM   29  C   UNL     1      42.907 -17.109   0.674  1.00  0.00     0.046 A 
BRANCH  27  30
HETATM   30  C   UNL     1      43.352 -17.557   4.326  1.00  0.00    -0.001 A 
HETATM   31  C   UNL     1      43.440 -18.868   4.817  1.00  0.00     0.038 A 
HETATM   32  C   UNL     1      43.662 -19.118   6.175  1.00  0.00     0.040 A 
HETATM   33 CL   UNL     1      43.746 -20.768   6.688  1.00  0.00    -0.084 Cl
HETATM   34  C   UNL     1      43.806 -18.061   7.082  1.00  0.00    -0.040 A 
HETATM   35  C   UNL     1      44.030 -18.298   8.549  1.00  0.00     0.050 C 
HETATM   36  C   UNL     1      43.721 -16.750   6.594  1.00  0.00     0.009 A 
HETATM   37  C   UNL     1      43.499 -16.501   5.234  1.00  0.00     0.015 A 
ENDBRANCH  27  30
ENDBRANCH  22  25
ENDBRANCH   1  21
TORSDOF 7
ENDMDL
MODEL 7
REMARK VINA RESULT:      -8.3      3.825      6.612
REMARK  7 active torsions:
REMARK  status: ('A' for Active; 'I' for Inactive)
REMARK    1  A    between atoms: C_2  and  C_3 
REMARK       I    between atoms: C_3  and  N_4 
REMARK    2  A    between atoms: N_7  and  C_8 
REMARK    3  A    between atoms: C_11  and  N_12 
REMARK    4  A    between atoms: N_12  and  C_13 
REMARK    5  A    between atoms: C_13  and  N_14 
REMARK       I    between atoms: N_14  and  C_15 
REMARK    6  A    between atoms: C_15  and  C_16 
REMARK    7  A    between atoms: C_18  and  C_19 
ROOT
HETATM    1  C   UNL     1      42.668  -9.861  11.416  1.00  0.00     0.179 C 
HETATM    2  S   UNL     1      43.116  -9.356  12.949  1.00  0.00    -0.040 SA
ENDROOT
BRANCH   1   3
HETATM    3  N   UNL     1      41.456  -9.711  10.785  1.00  0.00    -0.333 N 
HETATM    4  H   UNL     1      40.836  -9.025  11.211  1.00  0.00     0.168 HD
BRANCH   3   5
HETATM    5  C   UNL     1      41.032 -10.255   9.555  1.00  0.00     0.034 A 
HETATM    6  C   UNL     1      39.888 -11.036   9.435  1.00  0.00     0.032 A 
HETATM    7  C   UNL     1      39.510 -11.556   8.195  1.00  0.00     0.031 A 
HETATM    8  C   UNL     1      40.264 -11.339   7.032  1.00  0.00     0.030 A 
HETATM    9  C   UNL     1      41.371 -10.490   7.157  1.00  0.00     0.031 A 
HETATM   10  C   UNL     1      41.743  -9.940   8.398  1.00  0.00     0.032 A 
BRANCH   8  11
HETATM   11  N   UNL     1      39.855 -11.926   5.826  1.00  0.00    -0.378 N 
HETATM   12  C   UNL     1      40.421 -13.276   5.574  1.00  0.00     0.143 C 
HETATM   13  C   UNL     1      39.589 -14.010   4.514  1.00  0.00     0.145 C 
HETATM   14  N   UNL     1      39.397 -13.234   3.284  1.00  0.00    -0.349 N 
HETATM   15  C   UNL     1      39.060 -13.957   2.143  1.00  0.00     0.219 C 
HETATM   16  C   UNL     1      39.016 -11.827   3.490  1.00  0.00     0.145 C 
HETATM   17  O   UNL     1      39.118 -15.187   2.109  1.00  0.00    -0.273 OA
HETATM   18  C   UNL     1      39.820 -11.111   4.597  1.00  0.00     0.143 C 
BRANCH  15  19
HETATM   19  C   UNL     1      38.639 -13.155   0.922  1.00  0.00     0.098 C 
HETATM   20  C   UNL     1      37.186 -13.398   0.547  1.00  0.00     0.014 C 
ENDBRANCH  15  19
ENDBRANCH   8  11
ENDBRANCH   3   5
ENDBRANCH   1   3
BRANCH   1  21
HETATM   21  N   UNL     1      43.638 -10.524  10.702  1.00  0.00    -0.298 N 
HETATM   22  C   UNL     1      44.102 -11.828  10.806  1.00  0.00     0.281 C 
HETATM   23  O   UNL     1      43.966 -12.517  11.815  1.00  0.00    -0.265 OA
HETATM   24  H   UNL     1      43.916 -10.038   9.857  1.00  0.00     0.171 HD
BRANCH  22  25
HETATM   25  C   UNL     1      44.803 -12.250   9.611  1.00  0.00     0.144 A 
HETATM   26  O   UNL     1      44.162 -13.120   8.769  1.00  0.00    -0.304 OA
HETATM   27  C   UNL     1      45.006 -13.422   7.741  1.00  0.00     0.086 A 
HETATM   28  C   UNL     1      46.189 -12.730   7.911  1.00  0.00     0.041 A 
HETATM   29  C   UNL     1      46.058 -11.975   9.109  1.00  0.00     0.046 A 
BRANCH  27  30
HETATM   30  C   UNL     1      44.490 -14.378   6.763  1.00  0.00    -0.001 A 
HETATM   31  C   UNL     1      44.062 -13.954   5.496  1.00  0.00     0.038 A 
HETATM   32  C   UNL     1      43.546 -14.861   4.565  1.00  0.00     0.040 A 
HETATM   33 CL   UNL     1      43.037 -14.242   3.033  1.00  0.00    -0.084 Cl
HETATM   34  C   UNL     1      43.446 -16.223   4.875  1.00  0.00    -0.040 A 
HETATM   35  C   UNL     1      42.881 -17.219   3.902  1.00  0.00     0.050 C 
HETATM   36  C   UNL     1      43.874 -16.651   6.139  1.00  0.00     0.009 A 
HETATM   37  C   UNL     1      44.391 -15.741   7.070  1.00  0.00     0.015 A 
ENDBRANCH  27  30
ENDBRANCH  22  25
ENDBRANCH   1  21
TORSDOF 7
ENDMDL
MODEL 8
REMARK VINA RESULT:      -8.2      1.888      2.330
REMARK  7 active torsions:
REMARK  status: ('A' for Active; 'I' for Inactive)
REMARK    1  A    between atoms: C_2  and  C_3 
REMARK       I    between atoms: C_3  and  N_4 
REMARK    2  A    between atoms: N_7  and  C_8 
REMARK    3  A    between atoms: C_11  and  N_12 
REMARK    4  A    between atoms: N_12  and  C_13 
REMARK    5  A    between atoms: C_13  and  N_14 
REMARK       I    between atoms: N_14  and  C_15 
REMARK    6  A    between atoms: C_15  and  C_16 
REMARK    7  A    between atoms: C_18  and  C_19 
ROOT
HETATM    1  C   UNL     1      42.918 -16.351   6.891  1.00  0.00     0.179 C 
HETATM    2  S   UNL     1      43.559 -17.891   6.734  1.00  0.00    -0.040 SA
ENDROOT
BRANCH   1   3
HETATM    3  N   UNL     1      41.638 -15.926   6.632  1.00  0.00    -0.333 N 
HETATM    4  H   UNL     1      41.011 -15.942   7.434  1.00  0.00     0.168 HD
BRANCH   3   5
HETATM    5  C   UNL     1      41.131 -15.327   5.459  1.00  0.00     0.034 A 
HETATM    6  C   UNL     1      40.524 -14.076   5.458  1.00  0.00     0.032 A 
HETATM    7  C   UNL     1      40.034 -13.526   4.271  1.00  0.00     0.031 A 
HETATM    8  C   UNL     1      40.107 -14.205   3.046  1.00  0.00     0.030 A 
HETATM    9  C   UNL     1      40.788 -15.429   3.053  1.00  0.00     0.031 A 
HETATM   10  C   UNL     1      41.308 -15.978   4.240  1.00  0.00     0.032 A 
BRANCH   8  11
HETATM   11  N   UNL     1      39.557 -13.617   1.898  1.00  0.00    -0.378 N 
HETATM   12  C   UNL     1      38.622 -12.495   2.168  1.00  0.00     0.143 C 
HETATM   13  C   UNL     1      38.442 -11.640   0.908  1.00  0.00     0.145 C 
HETATM   14  N   UNL     1      38.069 -12.420  -0.277  1.00  0.00    -0.349 N 
HETATM   15  C   UNL     1      37.465 -11.716  -1.317  1.00  0.00     0.219 C 
HETATM   16  C   UNL     1      38.850 -13.650  -0.483  1.00  0.00     0.145 C 
HETATM   17  O   UNL     1      37.079 -10.554  -1.179  1.00  0.00    -0.273 OA
HETATM   18  C   UNL     1      39.074 -14.477   0.802  1.00  0.00     0.143 C 
BRANCH  15  19
HETATM   19  C   UNL     1      37.279 -12.457  -2.630  1.00  0.00     0.098 C 
HETATM   20  C   UNL     1      37.398 -11.536  -3.834  1.00  0.00     0.014 C 
ENDBRANCH  15  19
ENDBRANCH   8  11
ENDBRANCH   3   5
ENDBRANCH   1   3
BRANCH   1  21
HETATM   21  N   UNL     1      43.795 -15.384   7.325  1.00  0.00    -0.298 N 
HETATM   22  C   UNL     1      44.282 -14.254   6.683  1.00  0.00     0.281 C 
HETATM   23  O   UNL     1      44.284 -14.117   5.462  1.00  0.00    -0.265 OA
HETATM   24  H   UNL     1      43.957 -15.411   8.326  1.00  0.00     0.171 HD
BRANCH  22  25
HETATM   25  C   UNL     1      44.828 -13.293   7.620  1.00  0.00     0.144 A 
HETATM   26  O   UNL     1      43.954 -12.658   8.463  1.00  0.00    -0.304 OA
HETATM   27  C   UNL     1      44.660 -11.770   9.221  1.00  0.00     0.086 A 
HETATM   28  C   UNL     1      45.996 -11.847   8.878  1.00  0.00     0.041 A 
HETATM   29  C   UNL     1      46.104 -12.826   7.853  1.00  0.00     0.046 A 
BRANCH  27  30
HETATM   30  C   UNL     1      43.868 -10.972  10.155  1.00  0.00    -0.001 A 
HETATM   31  C   UNL     1      42.593 -10.505   9.803  1.00  0.00     0.038 A 
HETATM   32  C   UNL     1      41.841  -9.722  10.685  1.00  0.00     0.040 A 
HETATM   33 CL   UNL     1      40.284  -9.185  10.158  1.00  0.00    -0.084 Cl
HETATM   34  C   UNL     1      42.343  -9.385  11.947  1.00  0.00    -0.040 A 
HETATM   35  C   UNL     1      41.566  -8.531  12.909  1.00  0.00     0.050 C 
HETATM   36  C   UNL     1      43.616  -9.851  12.303  1.00  0.00     0.009 A 
HETATM   37  C   UNL     1      44.368 -10.637  11.420  1.00  0.00     0.015 A 
ENDBRANCH  27  30
ENDBRANCH  22  25
ENDBRANCH   1  21
TORSDOF 7
ENDMDL
MODEL 9
REMARK VINA RESULT:      -8.1      4.433      6.078
REMARK  7 active torsions:
REMARK  status: ('A' for Active; 'I' for Inactive)
REMARK    1  A    between atoms: C_2  and  C_3 
REMARK       I    between atoms: C_3  and  N_4 
REMARK    2  A    between atoms: N_7  and  C_8 
REMARK    3  A    between atoms: C_11  and  N_12 
REMARK    4  A    between atoms: N_12  and  C_13 
REMARK    5  A    between atoms: C_13  and  N_14 
REMARK       I    between atoms: N_14  and  C_15 
REMARK    6  A    between atoms: C_15  and  C_16 
REMARK    7  A    between atoms: C_18  and  C_19 
ROOT
HETATM    1  C   UNL     1      39.533 -10.763   4.251  1.00  0.00     0.179 C 
HETATM    2  S   UNL     1      39.997 -10.010   2.828  1.00  0.00    -0.040 SA
ENDROOT
BRANCH   1   3
HETATM    3  N   UNL     1      39.060 -12.041   4.429  1.00  0.00    -0.333 N 
HETATM    4  H   UNL     1      38.054 -12.108   4.568  1.00  0.00     0.168 HD
BRANCH   3   5
HETATM    5  C   UNL     1      39.751 -13.262   4.284  1.00  0.00     0.034 A 
HETATM    6  C   UNL     1      40.194 -14.007   5.370  1.00  0.00     0.032 A 
HETATM    7  C   UNL     1      40.877 -15.210   5.176  1.00  0.00     0.031 A 
HETATM    8  C   UNL     1      41.166 -15.707   3.896  1.00  0.00     0.030 A 
HETATM    9  C   UNL     1      40.648 -14.982   2.815  1.00  0.00     0.031 A 
HETATM   10  C   UNL     1      39.935 -13.783   3.004  1.00  0.00     0.032 A 
BRANCH   8  11
HETATM   11  N   UNL     1      41.894 -16.898   3.768  1.00  0.00    -0.378 N 
HETATM   12  C   UNL     1      42.774 -17.210   4.924  1.00  0.00     0.143 C 
HETATM   13  C   UNL     1      43.155 -18.696   4.914  1.00  0.00     0.145 C 
HETATM   14  N   UNL     1      43.714 -19.146   3.634  1.00  0.00    -0.349 N 
HETATM   15  C   UNL     1      44.477 -20.310   3.668  1.00  0.00     0.219 C 
HETATM   16  C   UNL     1      42.976 -18.699   2.442  1.00  0.00     0.145 C 
HETATM   17  O   UNL     1      44.837 -20.824   4.728  1.00  0.00    -0.273 OA
HETATM   18  C   UNL     1      42.548 -17.216   2.485  1.00  0.00     0.143 C 
BRANCH  15  19
HETATM   19  C   UNL     1      44.872 -20.911   2.328  1.00  0.00     0.098 C 
HETATM   20  C   UNL     1      43.949 -22.044   1.910  1.00  0.00     0.014 C 
ENDBRANCH  15  19
ENDBRANCH   8  11
ENDBRANCH   3   5
ENDBRANCH   1   3
BRANCH   1  21
HETATM   21  N   UNL     1      39.626  -9.994   5.388  1.00  0.00    -0.298 N 
HETATM   22  C   UNL     1      39.562 -10.352   6.727  1.00  0.00     0.281 C 
HETATM   23  O   UNL     1      39.045 -11.394   7.126  1.00  0.00    -0.265 OA
HETATM   24  H   UNL     1      39.979  -9.060   5.211  1.00  0.00     0.171 HD
BRANCH  22  25
HETATM   25  C   UNL     1      40.127  -9.333   7.587  1.00  0.00     0.144 A 
HETATM   26  O   UNL     1      40.519  -9.706   8.846  1.00  0.00    -0.304 OA
HETATM   27  C   UNL     1      40.974  -8.599   9.499  1.00  0.00     0.086 A 
HETATM   28  C   UNL     1      40.894  -7.511   8.651  1.00  0.00     0.041 A 
HETATM   29  C   UNL     1      40.353  -7.982   7.424  1.00  0.00     0.046 A 
BRANCH  27  30
HETATM   30  C   UNL     1      41.398  -8.813  10.881  1.00  0.00    -0.001 A 
HETATM   31  C   UNL     1      40.615  -8.361  11.953  1.00  0.00     0.038 A 
HETATM   32  C   UNL     1      41.027  -8.543  13.278  1.00  0.00     0.040 A 
HETATM   33 CL   UNL     1      39.998  -7.943  14.531  1.00  0.00    -0.084 Cl
HETATM   34  C   UNL     1      42.236  -9.187  13.567  1.00  0.00    -0.040 A 
HETATM   35  C   UNL     1      42.713  -9.383  14.979  1.00  0.00     0.050 C 
HETATM   36  C   UNL     1      43.020  -9.643  12.498  1.00  0.00     0.009 A 
HETATM   37  C   UNL     1      42.605  -9.460  11.173  1.00  0.00     0.015 A 
ENDBRANCH  27  30
ENDBRANCH  22  25
ENDBRANCH   1  21
TORSDOF 7
ENDMDL
MODEL 10
REMARK VINA RESULT:      -8.1      4.168      6.458
REMARK  7 active torsions:
REMARK  status: ('A' for Active; 'I' for Inactive)
REMARK    1  A    between atoms: C_2  and  C_3 
REMARK       I    between atoms: C_3  and  N_4 
REMARK    2  A    between atoms: N_7  and  C_8 
REMARK    3  A    between atoms: C_11  and  N_12 
REMARK    4  A    between atoms: N_12  and  C_13 
REMARK    5  A    between atoms: C_13  and  N_14 
REMARK       I    between atoms: N_14  and  C_15 
REMARK    6  A    between atoms: C_15  and  C_16 
REMARK    7  A    between atoms: C_18  and  C_19 
ROOT
HETATM    1  C   UNL     1      40.123 -10.448   3.048  1.00  0.00     0.179 C 
HETATM    2  S   UNL     1      40.824  -9.517   1.844  1.00  0.00    -0.040 SA
ENDROOT
BRANCH   1   3
HETATM    3  N   UNL     1      39.639 -11.731   2.965  1.00  0.00    -0.333 N 
HETATM    4  H   UNL     1      38.658 -11.802   2.703  1.00  0.00     0.168 HD
BRANCH   3   5
HETATM    5  C   UNL     1      40.353 -12.946   3.035  1.00  0.00     0.034 A 
HETATM    6  C   UNL     1      40.490 -13.669   4.214  1.00  0.00     0.032 A 
HETATM    7  C   UNL     1      41.210 -14.866   4.234  1.00  0.00     0.031 A 
HETATM    8  C   UNL     1      41.840 -15.379   3.090  1.00  0.00     0.030 A 
HETATM    9  C   UNL     1      41.629 -14.677   1.896  1.00  0.00     0.031 A 
HETATM   10  C   UNL     1      40.882 -13.484   1.863  1.00  0.00     0.032 A 
BRANCH   8  11
HETATM   11  N   UNL     1      42.585 -16.562   3.186  1.00  0.00    -0.378 N 
HETATM   12  C   UNL     1      42.237 -17.593   2.174  1.00  0.00     0.143 C 
HETATM   13  C   UNL     1      43.369 -18.620   2.053  1.00  0.00     0.145 C 
HETATM   14  N   UNL     1      43.773 -19.198   3.340  1.00  0.00    -0.349 N 
HETATM   15  C   UNL     1      44.447 -20.415   3.287  1.00  0.00     0.219 C 
HETATM   16  C   UNL     1      43.948 -18.225   4.430  1.00  0.00     0.145 C 
HETATM   17  O   UNL     1      44.524 -21.074   2.249  1.00  0.00    -0.273 OA
HETATM   18  C   UNL     1      42.832 -17.161   4.511  1.00  0.00     0.143 C 
BRANCH  15  19
HETATM   19  C   UNL     1      45.066 -20.913   4.583  1.00  0.00     0.098 C 
HETATM   20  C   UNL     1      44.789 -22.389   4.825  1.00  0.00     0.014 C 
ENDBRANCH  15  19
ENDBRANCH   8  11
ENDBRANCH   3   5
ENDBRANCH   1   3
BRANCH   1  21
HETATM   21  N   UNL     1      40.004  -9.840   4.276  1.00  0.00    -0.298 N 
HETATM   22  C   UNL     1      38.916  -9.741   5.132  1.00  0.00     0.281 C 
HETATM   23  O   UNL     1      37.751  -9.879   4.766  1.00  0.00    -0.265 OA
HETATM   24  H   UNL     1      40.897  -9.594   4.688  1.00  0.00     0.171 HD
BRANCH  22  25
HETATM   25  C   UNL     1      39.320  -9.406   6.483  1.00  0.00     0.144 A 
HETATM   26  O   UNL     1      40.477  -9.963   6.959  1.00  0.00    -0.304 OA
HETATM   27  C   UNL     1      40.647  -9.561   8.251  1.00  0.00     0.086 A 
HETATM   28  C   UNL     1      39.604  -8.725   8.603  1.00  0.00     0.041 A 
HETATM   29  C   UNL     1      38.754  -8.624   7.468  1.00  0.00     0.046 A 
BRANCH  27  30
HETATM   30  C   UNL     1      41.824 -10.101   8.929  1.00  0.00    -0.001 A 
HETATM   31  C   UNL     1      42.131  -9.728  10.246  1.00  0.00     0.038 A 
HETATM   32  C   UNL     1      43.268 -10.224  10.892  1.00  0.00     0.040 A 
HETATM   33 CL   UNL     1      43.568  -9.700  12.512  1.00  0.00    -0.084 Cl
HETATM   34  C   UNL     1      44.130 -11.112  10.237  1.00  0.00    -0.040 A 
HETATM   35  C   UNL     1      45.368 -11.649  10.899  1.00  0.00     0.050 C 
HETATM   36  C   UNL     1      43.826 -11.488   8.922  1.00  0.00     0.009 A 
HETATM   37  C   UNL     1      42.686 -10.991   8.277  1.00  0.00     0.015 A 
ENDBRANCH  27  30
ENDBRANCH  22  25
ENDBRANCH   1  21
TORSDOF 7
ENDMDL
