MODEL 1
REMARK VINA RESULT:      -8.7      0.000      0.000
REMARK  6 active torsions:
REMARK  status: ('A' for Active; 'I' for Inactive)
REMARK    1  A    between atoms: C_3  and  C_4 
REMARK    2  A    between atoms: C_4  and  N_5 
REMARK    3  A    between atoms: C_4  and  C_19 
REMARK    4  A    between atoms: N_9  and  C_10 
REMARK    5  A    between atoms: C_25  and  N_26 
REMARK       I    between atoms: N_26  and  C_27 
REMARK    6  A    between atoms: C_27  and  C_28 
ROOT
HETATM    1  C   UNL     1      40.215 -15.112   2.517  1.00  0.00     0.259 C 
ENDROOT
BRANCH   1   2
HETATM    2  C   UNL     1      40.415 -14.069   3.607  1.00  0.00     0.018 A 
HETATM    3  C   UNL     1      40.909 -12.717   3.309  1.00  0.00    -0.038 A 
HETATM    4  C   UNL     1      41.349 -12.240   1.952  1.00  0.00     0.050 C 
HETATM    5  C   UNL     1      40.931 -11.911   4.437  1.00  0.00    -0.013 A 
HETATM    6  S   UNL     1      40.436 -12.748   5.827  1.00  0.00    -0.076 SA
HETATM    7  C   UNL     1      41.353 -10.479   4.559  1.00  0.00     0.057 C 
HETATM    8  C   UNL     1      40.124 -14.173   4.963  1.00  0.00     0.086 A 
BRANCH   8   9
HETATM    9  N   UNL     1      39.788 -15.298   5.686  1.00  0.00    -0.315 N 
HETATM   10  C   UNL     1      40.601 -16.289   6.211  1.00  0.00     0.280 C 
HETATM   11  O   UNL     1      40.024 -17.319   6.569  1.00  0.00    -0.265 OA
HETATM   12  H   UNL     1      38.817 -15.579   5.690  1.00  0.00     0.170 HD
BRANCH  10  13
HETATM   13  C   UNL     1      42.000 -16.048   6.493  1.00  0.00     0.142 A 
HETATM   14  O   UNL     1      42.676 -16.848   7.383  1.00  0.00    -0.317 OA
HETATM   15  C   UNL     1      43.948 -16.373   7.455  1.00  0.00     0.143 A 
HETATM   16  C   UNL     1      44.129 -15.339   6.569  1.00  0.00     0.027 A 
HETATM   17  C   UNL     1      42.883 -15.145   5.930  1.00  0.00     0.045 A 
ENDBRANCH  10  13
ENDBRANCH   8   9
ENDBRANCH   1   2
BRANCH   1  18
HETATM   18  N   UNL     1      41.424 -15.966   2.088  1.00  0.00    -0.056 N 
HETATM   19  H   UNL     1      41.594 -15.668   1.120  1.00  0.00     0.281 HD
HETATM   20  C   UNL     1      42.740 -15.729   2.812  1.00  0.00     0.256 C 
HETATM   21  C   UNL     1      43.891 -16.526   2.141  1.00  0.00     0.152 C 
HETATM   22  N   UNL     1      43.556 -17.966   2.027  1.00  0.00    -0.364 N 
HETATM   23  C   UNL     1      42.259 -18.230   1.351  1.00  0.00     0.152 C 
HETATM   24  C   UNL     1      41.087 -17.455   2.008  1.00  0.00     0.256 C 
BRANCH  22  25
HETATM   25  C   UNL     1      44.020 -18.836   3.002  1.00  0.00     0.102 A 
HETATM   26  N   UNL     1      44.285 -20.110   2.653  1.00  0.00    -0.352 N 
HETATM   27  H   UNL     1      44.077 -20.392   1.698  1.00  0.00     0.166 HD
HETATM   28  C   UNL     1      44.723 -21.051   3.505  1.00  0.00     0.089 A 
HETATM   29  C   UNL     1      44.916 -20.743   4.841  1.00  0.00     0.017 A 
HETATM   30  C   UNL     1      44.628 -19.458   5.272  1.00  0.00     0.005 A 
HETATM   31  C   UNL     1      44.175 -18.507   4.358  1.00  0.00     0.048 A 
ENDBRANCH  22  25
ENDBRANCH   1  18
BRANCH   1  32
HETATM   32  C   UNL     1      39.395 -14.553   1.369  1.00  0.00    -0.005 A 
HETATM   33  C   UNL     1      39.979 -14.544   0.098  1.00  0.00     0.125 A 
HETATM   34  N   UNL     1      39.415 -14.025  -1.009  1.00  0.00    -0.273 NA
HETATM   35  C   UNL     1      38.165 -13.537  -0.894  1.00  0.00     0.116 A 
HETATM   36  C   UNL     1      37.471 -13.527   0.299  1.00  0.00     0.020 A 
HETATM   37  C   UNL     1      38.093 -14.040   1.440  1.00  0.00     0.012 A 
ENDBRANCH   1  32
TORSDOF 6
ENDMDL
MODEL 2
REMARK VINA RESULT:      -8.3      2.916      4.700
REMARK  6 active torsions:
REMARK  status: ('A' for Active; 'I' for Inactive)
REMARK    1  A    between atoms: C_3  and  C_4 
REMARK    2  A    between atoms: C_4  and  N_5 
REMARK    3  A    between atoms: C_4  and  C_19 
REMARK    4  A    between atoms: N_9  and  C_10 
REMARK    5  A    between atoms: C_25  and  N_26 
REMARK       I    between atoms: N_26  and  C_27 
REMARK    6  A    between atoms: C_27  and  C_28 
ROOT
HETATM    1  C   UNL     1      41.025 -11.975   2.088  1.00  0.00     0.259 C 
ENDROOT
BRANCH   1   2
HETATM    2  C   UNL     1      41.261 -12.758   0.804  1.00  0.00     0.018 A 
HETATM    3  C   UNL     1      41.914 -12.155  -0.367  1.00  0.00    -0.038 A 
HETATM    4  C   UNL     1      42.335 -10.714  -0.472  1.00  0.00     0.050 C 
HETATM    5  C   UNL     1      42.102 -13.073  -1.388  1.00  0.00    -0.013 A 
HETATM    6  S   UNL     1      41.469 -14.597  -0.998  1.00  0.00    -0.076 SA
HETATM    7  C   UNL     1      42.734 -12.867  -2.731  1.00  0.00     0.057 C 
HETATM    8  C   UNL     1      40.987 -14.098   0.549  1.00  0.00     0.086 A 
BRANCH   8   9
HETATM    9  N   UNL     1      40.251 -14.983   1.307  1.00  0.00    -0.315 N 
HETATM   10  C   UNL     1      40.522 -16.299   1.644  1.00  0.00     0.280 C 
HETATM   11  O   UNL     1      39.571 -16.941   2.095  1.00  0.00    -0.265 OA
HETATM   12  H   UNL     1      39.288 -14.745   1.502  1.00  0.00     0.170 HD
BRANCH  10  13
HETATM   13  C   UNL     1      41.874 -16.817   1.644  1.00  0.00     0.142 A 
HETATM   14  O   UNL     1      42.923 -16.016   2.025  1.00  0.00    -0.317 OA
HETATM   15  C   UNL     1      44.055 -16.761   1.905  1.00  0.00     0.143 A 
HETATM   16  C   UNL     1      43.748 -18.049   1.536  1.00  0.00     0.027 A 
HETATM   17  C   UNL     1      42.342 -18.093   1.392  1.00  0.00     0.045 A 
ENDBRANCH  10  13
ENDBRANCH   8   9
ENDBRANCH   1   2
BRANCH   1  18
HETATM   18  N   UNL     1      41.458 -12.609   3.424  1.00  0.00    -0.056 N 
HETATM   19  H   UNL     1      41.556 -11.802   4.050  1.00  0.00     0.281 HD
HETATM   20  C   UNL     1      40.466 -13.530   4.116  1.00  0.00     0.256 C 
HETATM   21  C   UNL     1      40.976 -13.931   5.526  1.00  0.00     0.152 C 
HETATM   22  N   UNL     1      42.340 -14.511   5.462  1.00  0.00    -0.364 N 
HETATM   23  C   UNL     1      43.327 -13.648   4.762  1.00  0.00     0.152 C 
HETATM   24  C   UNL     1      42.849 -13.240   3.345  1.00  0.00     0.256 C 
BRANCH  22  25
HETATM   25  C   UNL     1      42.476 -15.891   5.426  1.00  0.00     0.102 A 
HETATM   26  N   UNL     1      43.710 -16.418   5.545  1.00  0.00    -0.352 N 
HETATM   27  H   UNL     1      44.495 -15.776   5.600  1.00  0.00     0.166 HD
HETATM   28  C   UNL     1      43.974 -17.734   5.510  1.00  0.00     0.089 A 
HETATM   29  C   UNL     1      42.948 -18.645   5.327  1.00  0.00     0.017 A 
HETATM   30  C   UNL     1      41.659 -18.166   5.162  1.00  0.00     0.005 A 
HETATM   31  C   UNL     1      41.422 -16.791   5.204  1.00  0.00     0.048 A 
ENDBRANCH  22  25
ENDBRANCH   1  18
BRANCH   1  32
HETATM   32  C   UNL     1      39.643 -11.351   2.101  1.00  0.00    -0.005 A 
HETATM   33  C   UNL     1      39.458 -10.196   2.870  1.00  0.00     0.125 A 
HETATM   34  N   UNL     1      38.284  -9.560   3.041  1.00  0.00    -0.273 NA
HETATM   35  C   UNL     1      37.220 -10.036   2.367  1.00  0.00     0.116 A 
HETATM   36  C   UNL     1      37.286 -11.144   1.546  1.00  0.00     0.020 A 
HETATM   37  C   UNL     1      38.509 -11.807   1.414  1.00  0.00     0.012 A 
ENDBRANCH   1  32
TORSDOF 6
ENDMDL
MODEL 3
REMARK VINA RESULT:      -8.2      3.370      7.087
REMARK  6 active torsions:
REMARK  status: ('A' for Active; 'I' for Inactive)
REMARK    1  A    between atoms: C_3  and  C_4 
REMARK    2  A    between atoms: C_4  and  N_5 
REMARK    3  A    between atoms: C_4  and  C_19 
REMARK    4  A    between atoms: N_9  and  C_10 
REMARK    5  A    between atoms: C_25  and  N_26 
REMARK       I    between atoms: N_26  and  C_27 
REMARK    6  A    between atoms: C_27  and  C_28 
ROOT
HETATM    1  C   UNL     1      41.803 -13.100   4.623  1.00  0.00     0.259 C 
ENDROOT
BRANCH   1   2
HETATM    2  C   UNL     1      42.188 -14.515   5.028  1.00  0.00     0.018 A 
HETATM    3  C   UNL     1      43.311 -14.787   5.937  1.00  0.00    -0.038 A 
HETATM    4  C   UNL     1      44.243 -13.744   6.491  1.00  0.00     0.050 C 
HETATM    5  C   UNL     1      43.425 -16.136   6.235  1.00  0.00    -0.013 A 
HETATM    6  S   UNL     1      42.270 -17.069   5.414  1.00  0.00    -0.076 SA
HETATM    7  C   UNL     1      44.419 -16.821   7.122  1.00  0.00     0.057 C 
HETATM    8  C   UNL     1      41.556 -15.710   4.695  1.00  0.00     0.086 A 
BRANCH   8   9
HETATM    9  N   UNL     1      40.568 -15.926   3.758  1.00  0.00    -0.315 N 
HETATM   10  C   UNL     1      40.673 -16.336   2.439  1.00  0.00     0.280 C 
HETATM   11  O   UNL     1      39.662 -16.181   1.750  1.00  0.00    -0.265 OA
HETATM   12  H   UNL     1      39.646 -15.563   3.958  1.00  0.00     0.170 HD
BRANCH  10  13
HETATM   13  C   UNL     1      41.827 -17.070   1.965  1.00  0.00     0.142 A 
HETATM   14  O   UNL     1      41.977 -18.401   2.271  1.00  0.00    -0.317 OA
HETATM   15  C   UNL     1      43.148 -18.807   1.712  1.00  0.00     0.143 A 
HETATM   16  C   UNL     1      43.714 -17.789   0.983  1.00  0.00     0.027 A 
HETATM   17  C   UNL     1      42.852 -16.677   1.124  1.00  0.00     0.045 A 
ENDBRANCH  10  13
ENDBRANCH   8   9
ENDBRANCH   1   2
BRANCH   1  18
HETATM   18  N   UNL     1      40.835 -12.316   5.530  1.00  0.00    -0.056 N 
HETATM   19  H   UNL     1      40.021 -12.155   4.925  1.00  0.00     0.281 HD
HETATM   20  C   UNL     1      40.284 -13.033   6.752  1.00  0.00     0.256 C 
HETATM   21  C   UNL     1      39.190 -12.179   7.447  1.00  0.00     0.152 C 
HETATM   22  N   UNL     1      39.685 -10.817   7.762  1.00  0.00    -0.364 N 
HETATM   23  C   UNL     1      40.260 -10.101   6.593  1.00  0.00     0.152 C 
HETATM   24  C   UNL     1      41.365 -10.926   5.886  1.00  0.00     0.256 C 
BRANCH  22  25
HETATM   25  C   UNL     1      40.169 -10.564   9.037  1.00  0.00     0.102 A 
HETATM   26  N   UNL     1      39.853 -11.423  10.026  1.00  0.00    -0.352 N 
HETATM   27  H   UNL     1      39.225 -12.190   9.804  1.00  0.00     0.166 HD
HETATM   28  C   UNL     1      40.246 -11.280  11.303  1.00  0.00     0.089 A 
HETATM   29  C   UNL     1      41.012 -10.190  11.677  1.00  0.00     0.017 A 
HETATM   30  C   UNL     1      41.342  -9.251  10.714  1.00  0.00     0.005 A 
HETATM   31  C   UNL     1      40.917  -9.432   9.397  1.00  0.00     0.048 A 
ENDBRANCH  22  25
ENDBRANCH   1  18
BRANCH   1  32
HETATM   32  C   UNL     1      41.488 -13.022   3.142  1.00  0.00    -0.005 A 
HETATM   33  C   UNL     1      40.169 -12.733   2.772  1.00  0.00     0.125 A 
HETATM   34  N   UNL     1      39.711 -12.692   1.507  1.00  0.00    -0.273 NA
HETATM   35  C   UNL     1      40.608 -12.881   0.520  1.00  0.00     0.116 A 
HETATM   36  C   UNL     1      41.944 -13.134   0.758  1.00  0.00     0.020 A 
HETATM   37  C   UNL     1      42.386 -13.206   2.082  1.00  0.00     0.012 A 
ENDBRANCH   1  32
TORSDOF 6
ENDMDL
MODEL 4
REMARK VINA RESULT:      -8.2      3.066      5.534
REMARK  6 active torsions:
REMARK  status: ('A' for Active; 'I' for Inactive)
REMARK    1  A    between atoms: C_3  and  C_4 
REMARK    2  A    between atoms: C_4  and  N_5 
REMARK    3  A    between atoms: C_4  and  C_19 
REMARK    4  A    between atoms: N_9  and  C_10 
REMARK    5  A    between atoms: C_25  and  N_26 
REMARK       I    between atoms: N_26  and  C_27 
REMARK    6  A    between atoms: C_27  and  C_28 
ROOT
HETATM    1  C   UNL     1      41.546 -12.539   2.045  1.00  0.00     0.259 C 
ENDROOT
BRANCH   1   2
HETATM    2  C   UNL     1      41.453 -13.219   0.686  1.00  0.00     0.018 A 
HETATM    3  C   UNL     1      41.971 -12.588  -0.537  1.00  0.00    -0.038 A 
HETATM    4  C   UNL     1      42.554 -11.204  -0.611  1.00  0.00     0.050 C 
HETATM    5  C   UNL     1      41.858 -13.421  -1.640  1.00  0.00    -0.013 A 
HETATM    6  S   UNL     1      41.106 -14.891  -1.253  1.00  0.00    -0.076 SA
HETATM    7  C   UNL     1      42.273 -13.164  -3.056  1.00  0.00     0.057 C 
HETATM    8  C   UNL     1      40.965 -14.488   0.388  1.00  0.00     0.086 A 
BRANCH   8   9
HETATM    9  N   UNL     1      40.259 -15.349   1.200  1.00  0.00    -0.315 N 
HETATM   10  C   UNL     1      40.619 -16.590   1.701  1.00  0.00     0.280 C 
HETATM   11  O   UNL     1      39.698 -17.263   2.169  1.00  0.00    -0.265 OA
HETATM   12  H   UNL     1      39.268 -15.180   1.312  1.00  0.00     0.170 HD
BRANCH  10  13
HETATM   13  C   UNL     1      42.006 -16.977   1.836  1.00  0.00     0.142 A 
HETATM   14  O   UNL     1      42.433 -17.652   2.954  1.00  0.00    -0.317 OA
HETATM   15  C   UNL     1      43.769 -17.859   2.807  1.00  0.00     0.143 A 
HETATM   16  C   UNL     1      44.195 -17.409   1.581  1.00  0.00     0.027 A 
HETATM   17  C   UNL     1      43.057 -16.863   0.944  1.00  0.00     0.045 A 
ENDBRANCH  10  13
ENDBRANCH   8   9
ENDBRANCH   1   2
BRANCH   1  18
HETATM   18  N   UNL     1      41.951 -13.391   3.264  1.00  0.00    -0.056 N 
HETATM   19  H   UNL     1      41.476 -14.285   3.098  1.00  0.00     0.281 HD
HETATM   20  C   UNL     1      43.422 -13.745   3.413  1.00  0.00     0.256 C 
HETATM   21  C   UNL     1      43.632 -14.752   4.575  1.00  0.00     0.152 C 
HETATM   22  N   UNL     1      43.037 -14.252   5.838  1.00  0.00    -0.364 N 
HETATM   23  C   UNL     1      41.606 -13.867   5.717  1.00  0.00     0.152 C 
HETATM   24  C   UNL     1      41.368 -12.851   4.570  1.00  0.00     0.256 C 
BRANCH  22  25
HETATM   25  C   UNL     1      43.856 -13.600   6.748  1.00  0.00     0.102 A 
HETATM   26  N   UNL     1      43.310 -12.664   7.548  1.00  0.00    -0.352 N 
HETATM   27  H   UNL     1      42.329 -12.437   7.410  1.00  0.00     0.166 HD
HETATM   28  C   UNL     1      43.999 -11.954   8.457  1.00  0.00     0.089 A 
HETATM   29  C   UNL     1      45.361 -12.151   8.606  1.00  0.00     0.017 A 
HETATM   30  C   UNL     1      45.990 -13.075   7.788  1.00  0.00     0.005 A 
HETATM   31  C   UNL     1      45.242 -13.794   6.856  1.00  0.00     0.048 A 
ENDBRANCH  22  25
ENDBRANCH   1  18
BRANCH   1  32
HETATM   32  C   UNL     1      40.362 -11.621   2.278  1.00  0.00    -0.005 A 
HETATM   33  C   UNL     1      40.625 -10.264   2.494  1.00  0.00     0.125 A 
HETATM   34  N   UNL     1      39.696  -9.332   2.780  1.00  0.00    -0.273 NA
HETATM   35  C   UNL     1      38.409  -9.727   2.795  1.00  0.00     0.116 A 
HETATM   36  C   UNL     1      38.021 -11.031   2.557  1.00  0.00     0.020 A 
HETATM   37  C   UNL     1      39.008 -11.986   2.298  1.00  0.00     0.012 A 
ENDBRANCH   1  32
TORSDOF 6
ENDMDL
MODEL 5
REMARK VINA RESULT:      -7.9      3.562      6.034
REMARK  6 active torsions:
REMARK  status: ('A' for Active; 'I' for Inactive)
REMARK    1  A    between atoms: C_3  and  C_4 
REMARK    2  A    between atoms: C_4  and  N_5 
REMARK    3  A    between atoms: C_4  and  C_19 
REMARK    4  A    between atoms: N_9  and  C_10 
REMARK    5  A    between atoms: C_25  and  N_26 
REMARK       I    between atoms: N_26  and  C_27 
REMARK    6  A    between atoms: C_27  and  C_28 
ROOT
HETATM    1  C   UNL     1      40.806 -13.131   1.756  1.00  0.00     0.259 C 
ENDROOT
BRANCH   1   2
HETATM    2  C   UNL     1      39.916 -12.240   0.900  1.00  0.00     0.018 A 
HETATM    3  C   UNL     1      38.525 -12.599   0.589  1.00  0.00    -0.038 A 
HETATM    4  C   UNL     1      37.857 -13.886   0.989  1.00  0.00     0.050 C 
HETATM    5  C   UNL     1      37.880 -11.604  -0.130  1.00  0.00    -0.013 A 
HETATM    6  S   UNL     1      38.909 -10.303  -0.481  1.00  0.00    -0.076 SA
HETATM    7  C   UNL     1      36.467 -11.573  -0.629  1.00  0.00     0.057 C 
HETATM    8  C   UNL     1      40.211 -10.993   0.357  1.00  0.00     0.086 A 
BRANCH   8   9
HETATM    9  N   UNL     1      41.432 -10.358   0.279  1.00  0.00    -0.315 N 
HETATM   10  C   UNL     1      42.527 -10.638  -0.522  1.00  0.00     0.280 C 
HETATM   11  O   UNL     1      43.582 -10.090  -0.194  1.00  0.00    -0.265 OA
HETATM   12  H   UNL     1      41.675  -9.719   1.024  1.00  0.00     0.170 HD
BRANCH  10  13
HETATM   13  C   UNL     1      42.387 -11.367  -1.764  1.00  0.00     0.142 A 
HETATM   14  O   UNL     1      42.300 -12.739  -1.757  1.00  0.00    -0.317 OA
HETATM   15  C   UNL     1      42.198 -13.136  -3.054  1.00  0.00     0.143 A 
HETATM   16  C   UNL     1      42.132 -12.047  -3.889  1.00  0.00     0.027 A 
HETATM   17  C   UNL     1      42.229 -10.907  -3.058  1.00  0.00     0.045 A 
ENDBRANCH  10  13
ENDBRANCH   8   9
ENDBRANCH   1   2
BRANCH   1  18
HETATM   18  N   UNL     1      40.836 -14.642   1.455  1.00  0.00    -0.056 N 
HETATM   19  H   UNL     1      40.095 -14.760   0.755  1.00  0.00     0.281 HD
HETATM   20  C   UNL     1      42.091 -15.201   0.803  1.00  0.00     0.256 C 
HETATM   21  C   UNL     1      41.888 -16.686   0.400  1.00  0.00     0.152 C 
HETATM   22  N   UNL     1      41.435 -17.502   1.552  1.00  0.00    -0.364 N 
HETATM   23  C   UNL     1      40.228 -16.964   2.231  1.00  0.00     0.152 C 
HETATM   24  C   UNL     1      40.405 -15.484   2.657  1.00  0.00     0.256 C 
BRANCH  22  25
HETATM   25  C   UNL     1      42.379 -18.214   2.276  1.00  0.00     0.102 A 
HETATM   26  N   UNL     1      42.454 -18.013   3.606  1.00  0.00    -0.352 N 
HETATM   27  H   UNL     1      41.849 -17.304   4.012  1.00  0.00     0.166 HD
HETATM   28  C   UNL     1      43.333 -18.627   4.414  1.00  0.00     0.089 A 
HETATM   29  C   UNL     1      44.252 -19.521   3.890  1.00  0.00     0.017 A 
HETATM   30  C   UNL     1      44.251 -19.745   2.523  1.00  0.00     0.005 A 
HETATM   31  C   UNL     1      43.323 -19.089   1.715  1.00  0.00     0.048 A 
ENDBRANCH  22  25
ENDBRANCH   1  18
BRANCH   1  32
HETATM   32  C   UNL     1      40.678 -12.779   3.226  1.00  0.00    -0.005 A 
HETATM   33  C   UNL     1      41.855 -12.692   3.978  1.00  0.00     0.125 A 
HETATM   34  N   UNL     1      41.912 -12.457   5.302  1.00  0.00    -0.273 NA
HETATM   35  C   UNL     1      40.748 -12.222   5.937  1.00  0.00     0.116 A 
HETATM   36  C   UNL     1      39.526 -12.240   5.296  1.00  0.00     0.020 A 
HETATM   37  C   UNL     1      39.492 -12.523   3.927  1.00  0.00     0.012 A 
ENDBRANCH   1  32
TORSDOF 6
ENDMDL
MODEL 6
REMARK VINA RESULT:      -7.8      2.820      4.427
REMARK  6 active torsions:
REMARK  status: ('A' for Active; 'I' for Inactive)
REMARK    1  A    between atoms: C_3  and  C_4 
REMARK    2  A    between atoms: C_4  and  N_5 
REMARK    3  A    between atoms: C_4  and  C_19 
REMARK    4  A    between atoms: N_9  and  C_10 
REMARK    5  A    between atoms: C_25  and  N_26 
REMARK       I    between atoms: N_26  and  C_27 
REMARK    6  A    between atoms: C_27  and  C_28 
ROOT
HETATM    1  C   UNL     1      40.446 -14.753   2.485  1.00  0.00     0.259 C 
ENDROOT
BRANCH   1   2
HETATM    2  C   UNL     1      40.751 -13.523   3.328  1.00  0.00     0.018 A 
HETATM    3  C   UNL     1      40.362 -13.432   4.743  1.00  0.00    -0.038 A 
HETATM    4  C   UNL     1      39.564 -14.469   5.484  1.00  0.00     0.050 C 
HETATM    5  C   UNL     1      40.815 -12.262   5.333  1.00  0.00    -0.013 A 
HETATM    6  S   UNL     1      41.630 -11.266   4.228  1.00  0.00    -0.076 SA
HETATM    7  C   UNL     1      40.642 -11.796   6.746  1.00  0.00     0.057 C 
HETATM    8  C   UNL     1      41.457 -12.380   2.962  1.00  0.00     0.086 A 
BRANCH   8   9
HETATM    9  N   UNL     1      41.866 -11.990   1.705  1.00  0.00    -0.315 N 
HETATM   10  C   UNL     1      41.221 -11.197   0.770  1.00  0.00     0.280 C 
HETATM   11  O   UNL     1      41.685 -11.234  -0.372  1.00  0.00    -0.265 OA
HETATM   12  H   UNL     1      42.648 -12.481   1.294  1.00  0.00     0.170 HD
BRANCH  10  13
HETATM   13  C   UNL     1      40.199 -10.249   1.159  1.00  0.00     0.142 A 
HETATM   14  O   UNL     1      40.540  -8.960   1.495  1.00  0.00    -0.317 OA
HETATM   15  C   UNL     1      39.387  -8.320   1.830  1.00  0.00     0.143 A 
HETATM   16  C   UNL     1      38.304  -9.143   1.636  1.00  0.00     0.027 A 
HETATM   17  C   UNL     1      38.823 -10.377   1.181  1.00  0.00     0.045 A 
ENDBRANCH  10  13
ENDBRANCH   8   9
ENDBRANCH   1   2
BRANCH   1  18
HETATM   18  N   UNL     1      41.606 -15.706   2.134  1.00  0.00    -0.056 N 
HETATM   19  H   UNL     1      41.834 -15.456   1.165  1.00  0.00     0.281 HD
HETATM   20  C   UNL     1      42.907 -15.538   2.902  1.00  0.00     0.256 C 
HETATM   21  C   UNL     1      44.020 -16.440   2.304  1.00  0.00     0.152 C 
HETATM   22  N   UNL     1      43.586 -17.855   2.225  1.00  0.00    -0.364 N 
HETATM   23  C   UNL     1      42.299 -18.049   1.507  1.00  0.00     0.152 C 
HETATM   24  C   UNL     1      41.164 -17.169   2.090  1.00  0.00     0.256 C 
BRANCH  22  25
HETATM   25  C   UNL     1      43.948 -18.721   3.246  1.00  0.00     0.102 A 
HETATM   26  N   UNL     1      44.390 -19.951   2.918  1.00  0.00    -0.352 N 
HETATM   27  H   UNL     1      44.385 -20.209   1.936  1.00  0.00     0.166 HD
HETATM   28  C   UNL     1      44.755 -20.884   3.813  1.00  0.00     0.089 A 
HETATM   29  C   UNL     1      44.675 -20.617   5.168  1.00  0.00     0.017 A 
HETATM   30  C   UNL     1      44.195 -19.382   5.573  1.00  0.00     0.005 A 
HETATM   31  C   UNL     1      43.825 -18.437   4.615  1.00  0.00     0.048 A 
ENDBRANCH  22  25
ENDBRANCH   1  18
BRANCH   1  32
HETATM   32  C   UNL     1      39.536 -14.408   1.323  1.00  0.00    -0.005 A 
HETATM   33  C   UNL     1      40.081 -14.452   0.035  1.00  0.00     0.125 A 
HETATM   34  N   UNL     1      39.430 -14.112  -1.093  1.00  0.00    -0.273 NA
HETATM   35  C   UNL     1      38.134 -13.765  -0.977  1.00  0.00     0.116 A 
HETATM   36  C   UNL     1      37.474 -13.723   0.234  1.00  0.00     0.020 A 
HETATM   37  C   UNL     1      38.183 -14.046   1.395  1.00  0.00     0.012 A 
ENDBRANCH   1  32
TORSDOF 6
ENDMDL
MODEL 7
REMARK VINA RESULT:      -7.7      3.962      6.255
REMARK  6 active torsions:
REMARK  status: ('A' for Active; 'I' for Inactive)
REMARK    1  A    between atoms: C_3  and  C_4 
REMARK    2  A    between atoms: C_4  and  N_5 
REMARK    3  A    between atoms: C_4  and  C_19 
REMARK    4  A    between atoms: N_9  and  C_10 
REMARK    5  A    between atoms: C_25  and  N_26 
REMARK       I    between atoms: N_26  and  C_27 
REMARK    6  A    between atoms: C_27  and  C_28 
ROOT
HETATM    1  C   UNL     1      40.094 -14.120   0.237  1.00  0.00     0.259 C 
ENDROOT
BRANCH   1   2
HETATM    2  C   UNL     1      40.355 -12.627   0.373  1.00  0.00     0.018 A 
HETATM    3  C   UNL     1      39.453 -11.745   1.128  1.00  0.00    -0.038 A 
HETATM    4  C   UNL     1      38.159 -12.176   1.762  1.00  0.00     0.050 C 
HETATM    5  C   UNL     1      39.930 -10.445   1.192  1.00  0.00    -0.013 A 
HETATM    6  S   UNL     1      41.380 -10.256   0.332  1.00  0.00    -0.076 SA
HETATM    7  C   UNL     1      39.323  -9.254   1.870  1.00  0.00     0.057 C 
HETATM    8  C   UNL     1      41.442 -11.895  -0.094  1.00  0.00     0.086 A 
BRANCH   8   9
HETATM    9  N   UNL     1      42.433 -12.292  -0.967  1.00  0.00    -0.315 N 
HETATM   10  C   UNL     1      42.453 -12.274  -2.352  1.00  0.00     0.280 C 
HETATM   11  O   UNL     1      43.345 -12.940  -2.882  1.00  0.00    -0.265 OA
HETATM   12  H   UNL     1      43.185 -12.857  -0.596  1.00  0.00     0.170 HD
BRANCH  10  13
HETATM   13  C   UNL     1      41.602 -11.381  -3.109  1.00  0.00     0.142 A 
HETATM   14  O   UNL     1      41.991 -10.083  -3.341  1.00  0.00    -0.317 OA
HETATM   15  C   UNL     1      40.994  -9.491  -4.050  1.00  0.00     0.143 A 
HETATM   16  C   UNL     1      40.010 -10.402  -4.353  1.00  0.00     0.027 A 
HETATM   17  C   UNL     1      40.412 -11.625  -3.769  1.00  0.00     0.045 A 
ENDBRANCH  10  13
ENDBRANCH   8   9
ENDBRANCH   1   2
BRANCH   1  18
HETATM   18  N   UNL     1      41.075 -15.100   0.910  1.00  0.00    -0.056 N 
HETATM   19  H   UNL     1      41.635 -15.453   0.126  1.00  0.00     0.281 HD
HETATM   20  C   UNL     1      42.084 -14.519   1.888  1.00  0.00     0.256 C 
HETATM   21  C   UNL     1      43.109 -15.599   2.329  1.00  0.00     0.152 C 
HETATM   22  N   UNL     1      42.429 -16.803   2.863  1.00  0.00    -0.364 N 
HETATM   23  C   UNL     1      41.412 -17.377   1.943  1.00  0.00     0.152 C 
HETATM   24  C   UNL     1      40.367 -16.323   1.494  1.00  0.00     0.256 C 
BRANCH  22  25
HETATM   25  C   UNL     1      42.269 -16.924   4.235  1.00  0.00     0.102 A 
HETATM   26  N   UNL     1      41.084 -16.580   4.777  1.00  0.00    -0.352 N 
HETATM   27  H   UNL     1      40.377 -16.192   4.159  1.00  0.00     0.166 HD
HETATM   28  C   UNL     1      40.811 -16.637   6.091  1.00  0.00     0.089 A 
HETATM   29  C   UNL     1      41.780 -17.055   6.986  1.00  0.00     0.017 A 
HETATM   30  C   UNL     1      43.032 -17.390   6.497  1.00  0.00     0.005 A 
HETATM   31  C   UNL     1      43.280 -17.319   5.126  1.00  0.00     0.048 A 
ENDBRANCH  22  25
ENDBRANCH   1  18
BRANCH   1  32
HETATM   32  C   UNL     1      39.716 -14.481  -1.187  1.00  0.00    -0.005 A 
HETATM   33  C   UNL     1      40.645 -15.205  -1.943  1.00  0.00     0.125 A 
HETATM   34  N   UNL     1      40.492 -15.546  -3.236  1.00  0.00    -0.273 NA
HETATM   35  C   UNL     1      39.327 -15.220  -3.827  1.00  0.00     0.116 A 
HETATM   36  C   UNL     1      38.318 -14.542  -3.173  1.00  0.00     0.020 A 
HETATM   37  C   UNL     1      38.516 -14.168  -1.841  1.00  0.00     0.012 A 
ENDBRANCH   1  32
TORSDOF 6
ENDMDL
MODEL 8
REMARK VINA RESULT:      -7.7      2.729      4.314
REMARK  6 active torsions:
REMARK  status: ('A' for Active; 'I' for Inactive)
REMARK    1  A    between atoms: C_3  and  C_4 
REMARK    2  A    between atoms: C_4  and  N_5 
REMARK    3  A    between atoms: C_4  and  C_19 
REMARK    4  A    between atoms: N_9  and  C_10 
REMARK    5  A    between atoms: C_25  and  N_26 
REMARK       I    between atoms: N_26  and  C_27 
REMARK    6  A    between atoms: C_27  and  C_28 
ROOT
HETATM    1  C   UNL     1      40.311 -13.511   0.894  1.00  0.00     0.259 C 
ENDROOT
BRANCH   1   2
HETATM    2  C   UNL     1      39.261 -12.451   1.190  1.00  0.00     0.018 A 
HETATM    3  C   UNL     1      37.897 -12.533   0.646  1.00  0.00    -0.038 A 
HETATM    4  C   UNL     1      37.413 -13.589  -0.309  1.00  0.00     0.050 C 
HETATM    5  C   UNL     1      37.088 -11.509   1.114  1.00  0.00    -0.013 A 
HETATM    6  S   UNL     1      37.933 -10.442   2.126  1.00  0.00    -0.076 SA
HETATM    7  C   UNL     1      35.645 -11.241   0.814  1.00  0.00     0.057 C 
HETATM    8  C   UNL     1      39.368 -11.337   2.018  1.00  0.00     0.086 A 
BRANCH   8   9
HETATM    9  N   UNL     1      40.499 -10.806   2.599  1.00  0.00    -0.315 N 
HETATM   10  C   UNL     1      40.853 -10.724   3.936  1.00  0.00     0.280 C 
HETATM   11  O   UNL     1      41.783  -9.956   4.196  1.00  0.00    -0.265 OA
HETATM   12  H   UNL     1      41.086 -10.214   2.027  1.00  0.00     0.170 HD
BRANCH  10  13
HETATM   13  C   UNL     1      40.293 -11.622   4.923  1.00  0.00     0.142 A 
HETATM   14  O   UNL     1      40.729 -12.923   5.004  1.00  0.00    -0.317 OA
HETATM   15  C   UNL     1      40.017 -13.519   5.997  1.00  0.00     0.143 A 
HETATM   16  C   UNL     1      39.192 -12.609   6.613  1.00  0.00     0.027 A 
HETATM   17  C   UNL     1      39.387 -11.381   5.939  1.00  0.00     0.045 A 
ENDBRANCH  10  13
ENDBRANCH   8   9
ENDBRANCH   1   2
BRANCH   1  18
HETATM   18  N   UNL     1      41.003 -14.209   2.081  1.00  0.00    -0.056 N 
HETATM   19  H   UNL     1      40.871 -13.548   2.855  1.00  0.00     0.281 HD
HETATM   20  C   UNL     1      40.402 -15.517   2.572  1.00  0.00     0.256 C 
HETATM   21  C   UNL     1      41.096 -15.987   3.878  1.00  0.00     0.152 C 
HETATM   22  N   UNL     1      42.567 -16.066   3.710  1.00  0.00    -0.364 N 
HETATM   23  C   UNL     1      43.182 -14.812   3.201  1.00  0.00     0.152 C 
HETATM   24  C   UNL     1      42.516 -14.323   1.889  1.00  0.00     0.256 C 
BRANCH  22  25
HETATM   25  C   UNL     1      43.138 -17.292   3.404  1.00  0.00     0.102 A 
HETATM   26  N   UNL     1      43.615 -18.049   4.411  1.00  0.00    -0.352 N 
HETATM   27  H   UNL     1      43.586 -17.659   5.350  1.00  0.00     0.166 HD
HETATM   28  C   UNL     1      44.202 -19.245   4.244  1.00  0.00     0.089 A 
HETATM   29  C   UNL     1      44.364 -19.768   2.973  1.00  0.00     0.017 A 
HETATM   30  C   UNL     1      43.927 -19.023   1.889  1.00  0.00     0.005 A 
HETATM   31  C   UNL     1      43.321 -17.785   2.102  1.00  0.00     0.048 A 
ENDBRANCH  22  25
ENDBRANCH   1  18
BRANCH   1  32
HETATM   32  C   UNL     1      41.249 -13.058  -0.209  1.00  0.00    -0.005 A 
HETATM   33  C   UNL     1      41.268 -13.804  -1.392  1.00  0.00     0.125 A 
HETATM   34  N   UNL     1      42.086 -13.577  -2.437  1.00  0.00    -0.273 NA
HETATM   35  C   UNL     1      42.903 -12.509  -2.361  1.00  0.00     0.116 A 
HETATM   36  C   UNL     1      42.946 -11.674  -1.262  1.00  0.00     0.020 A 
HETATM   37  C   UNL     1      42.112 -11.954  -0.176  1.00  0.00     0.012 A 
ENDBRANCH   1  32
TORSDOF 6
ENDMDL
MODEL 9
REMARK VINA RESULT:      -7.6      1.984      5.599
REMARK  6 active torsions:
REMARK  status: ('A' for Active; 'I' for Inactive)
REMARK    1  A    between atoms: C_3  and  C_4 
REMARK    2  A    between atoms: C_4  and  N_5 
REMARK    3  A    between atoms: C_4  and  C_19 
REMARK    4  A    between atoms: N_9  and  C_10 
REMARK    5  A    between atoms: C_25  and  N_26 
REMARK       I    between atoms: N_26  and  C_27 
REMARK    6  A    between atoms: C_27  and  C_28 
ROOT
HETATM    1  C   UNL     1      41.351 -13.744   2.305  1.00  0.00     0.259 C 
ENDROOT
BRANCH   1   2
HETATM    2  C   UNL     1      40.901 -13.733   3.759  1.00  0.00     0.018 A 
HETATM    3  C   UNL     1      40.776 -12.484   4.525  1.00  0.00    -0.038 A 
HETATM    4  C   UNL     1      41.149 -11.120   4.015  1.00  0.00     0.050 C 
HETATM    5  C   UNL     1      40.270 -12.704   5.797  1.00  0.00    -0.013 A 
HETATM    6  S   UNL     1      40.003 -14.351   6.101  1.00  0.00    -0.076 SA
HETATM    7  C   UNL     1      39.983 -11.706   6.878  1.00  0.00     0.057 C 
HETATM    8  C   UNL     1      40.492 -14.807   4.543  1.00  0.00     0.086 A 
BRANCH   8   9
HETATM    9  N   UNL     1      40.593 -16.155   4.273  1.00  0.00    -0.315 N 
HETATM   10  C   UNL     1      41.558 -17.068   4.668  1.00  0.00     0.280 C 
HETATM   11  O   UNL     1      41.558 -18.141   4.061  1.00  0.00    -0.265 OA
HETATM   12  H   UNL     1      40.015 -16.529   3.533  1.00  0.00     0.170 HD
BRANCH  10  13
HETATM   13  C   UNL     1      42.375 -16.843   5.841  1.00  0.00     0.142 A 
HETATM   14  O   UNL     1      42.141 -17.549   6.996  1.00  0.00    -0.317 OA
HETATM   15  C   UNL     1      43.042 -17.114   7.917  1.00  0.00     0.143 A 
HETATM   16  C   UNL     1      43.906 -16.205   7.355  1.00  0.00     0.027 A 
HETATM   17  C   UNL     1      43.494 -16.048   6.012  1.00  0.00     0.045 A 
ENDBRANCH  10  13
ENDBRANCH   8   9
ENDBRANCH   1   2
BRANCH   1  18
HETATM   18  N   UNL     1      40.322 -13.380   1.216  1.00  0.00    -0.056 N 
HETATM   19  H   UNL     1      39.865 -12.541   1.592  1.00  0.00     0.281 HD
HETATM   20  C   UNL     1      40.859 -12.964  -0.144  1.00  0.00     0.256 C 
HETATM   21  C   UNL     1      39.712 -12.454  -1.057  1.00  0.00     0.152 C 
HETATM   22  N   UNL     1      38.618 -13.451  -1.159  1.00  0.00    -0.364 N 
HETATM   23  C   UNL     1      38.093 -13.902   0.156  1.00  0.00     0.152 C 
HETATM   24  C   UNL     1      39.216 -14.428   1.087  1.00  0.00     0.256 C 
BRANCH  22  25
HETATM   25  C   UNL     1      38.601 -14.312  -2.245  1.00  0.00     0.102 A 
HETATM   26  N   UNL     1      39.666 -15.114  -2.446  1.00  0.00    -0.352 N 
HETATM   27  H   UNL     1      40.460 -15.010  -1.821  1.00  0.00     0.166 HD
HETATM   28  C   UNL     1      39.777 -15.979  -3.467  1.00  0.00     0.089 A 
HETATM   29  C   UNL     1      38.766 -16.078  -4.408  1.00  0.00     0.017 A 
HETATM   30  C   UNL     1      37.659 -15.255  -4.279  1.00  0.00     0.005 A 
HETATM   31  C   UNL     1      37.578 -14.369  -3.205  1.00  0.00     0.048 A 
ENDBRANCH  22  25
ENDBRANCH   1  18
BRANCH   1  32
HETATM   32  C   UNL     1      42.187 -14.972   2.001  1.00  0.00    -0.005 A 
HETATM   33  C   UNL     1      41.656 -15.917   1.116  1.00  0.00     0.125 A 
HETATM   34  N   UNL     1      42.238 -17.087   0.793  1.00  0.00    -0.273 NA
HETATM   35  C   UNL     1      43.456 -17.336   1.313  1.00  0.00     0.116 A 
HETATM   36  C   UNL     1      44.100 -16.462   2.166  1.00  0.00     0.020 A 
HETATM   37  C   UNL     1      43.458 -15.270   2.513  1.00  0.00     0.012 A 
ENDBRANCH   1  32
TORSDOF 6
ENDMDL
MODEL 10
REMARK VINA RESULT:      -7.6      1.774      6.440
REMARK  6 active torsions:
REMARK  status: ('A' for Active; 'I' for Inactive)
REMARK    1  A    between atoms: C_3  and  C_4 
REMARK    2  A    between atoms: C_4  and  N_5 
REMARK    3  A    between atoms: C_4  and  C_19 
REMARK    4  A    between atoms: N_9  and  C_10 
REMARK    5  A    between atoms: C_25  and  N_26 
REMARK       I    between atoms: N_26  and  C_27 
REMARK    6  A    between atoms: C_27  and  C_28 
ROOT
HETATM    1  C   UNL     1      41.128 -14.471   2.014  1.00  0.00     0.259 C 
ENDROOT
BRANCH   1   2
HETATM    2  C   UNL     1      40.888 -14.045   3.455  1.00  0.00     0.018 A 
HETATM    3  C   UNL     1      40.989 -12.640   3.879  1.00  0.00    -0.038 A 
HETATM    4  C   UNL     1      41.414 -11.502   2.992  1.00  0.00     0.050 C 
HETATM    5  C   UNL     1      40.647 -12.473   5.211  1.00  0.00    -0.013 A 
HETATM    6  S   UNL     1      40.272 -13.947   5.962  1.00  0.00    -0.076 SA
HETATM    7  C   UNL     1      40.609 -11.212   6.020  1.00  0.00     0.057 C 
HETATM    8  C   UNL     1      40.494 -14.831   4.533  1.00  0.00     0.086 A 
BRANCH   8   9
HETATM    9  N   UNL     1      40.429 -16.206   4.615  1.00  0.00    -0.315 N 
HETATM   10  C   UNL     1      41.370 -17.111   5.078  1.00  0.00     0.280 C 
HETATM   11  O   UNL     1      41.167 -18.291   4.782  1.00  0.00    -0.265 OA
HETATM   12  H   UNL     1      39.693 -16.671   4.100  1.00  0.00     0.170 HD
BRANCH  10  13
HETATM   13  C   UNL     1      42.409 -16.714   6.005  1.00  0.00     0.142 A 
HETATM   14  O   UNL     1      42.372 -17.138   7.311  1.00  0.00    -0.317 OA
HETATM   15  C   UNL     1      43.452 -16.597   7.935  1.00  0.00     0.143 A 
HETATM   16  C   UNL     1      44.229 -15.903   7.039  1.00  0.00     0.027 A 
HETATM   17  C   UNL     1      43.572 -15.998   5.790  1.00  0.00     0.045 A 
ENDBRANCH  10  13
ENDBRANCH   8   9
ENDBRANCH   1   2
BRANCH   1  18
HETATM   18  N   UNL     1      39.947 -14.408   1.025  1.00  0.00    -0.056 N 
HETATM   19  H   UNL     1      39.757 -15.395   0.819  1.00  0.00     0.281 HD
HETATM   20  C   UNL     1      38.631 -13.850   1.541  1.00  0.00     0.256 C 
HETATM   21  C   UNL     1      37.505 -14.029   0.488  1.00  0.00     0.152 C 
HETATM   22  N   UNL     1      37.893 -13.450  -0.822  1.00  0.00    -0.364 N 
HETATM   23  C   UNL     1      39.193 -13.952  -1.338  1.00  0.00     0.152 C 
HETATM   24  C   UNL     1      40.340 -13.776  -0.311  1.00  0.00     0.256 C 
BRANCH  22  25
HETATM   25  C   UNL     1      37.472 -12.166  -1.133  1.00  0.00     0.102 A 
HETATM   26  N   UNL     1      38.127 -11.491  -2.097  1.00  0.00    -0.352 N 
HETATM   27  H   UNL     1      38.941 -11.934  -2.515  1.00  0.00     0.166 HD
HETATM   28  C   UNL     1      37.827 -10.238  -2.478  1.00  0.00     0.089 A 
HETATM   29  C   UNL     1      36.796  -9.552  -1.861  1.00  0.00     0.017 A 
HETATM   30  C   UNL     1      36.104 -10.178  -0.836  1.00  0.00     0.005 A 
HETATM   31  C   UNL     1      36.444 -11.479  -0.467  1.00  0.00     0.048 A 
ENDBRANCH  22  25
ENDBRANCH   1  18
BRANCH   1  32
HETATM   32  C   UNL     1      41.940 -15.751   1.951  1.00  0.00    -0.005 A 
HETATM   33  C   UNL     1      41.302 -16.902   1.476  1.00  0.00     0.125 A 
HETATM   34  N   UNL     1      41.858 -18.127   1.419  1.00  0.00    -0.273 NA
HETATM   35  C   UNL     1      43.149 -18.236   1.786  1.00  0.00     0.116 A 
HETATM   36  C   UNL     1      43.895 -17.165   2.233  1.00  0.00     0.020 A 
HETATM   37  C   UNL     1      43.283 -15.911   2.317  1.00  0.00     0.012 A 
ENDBRANCH   1  32
TORSDOF 6
ENDMDL
