MODEL 1
REMARK VINA RESULT:      -7.9      0.000      0.000
REMARK  6 active torsions:
REMARK  status: ('A' for Active; 'I' for Inactive)
REMARK    1  A    between atoms: C_2  and  O_3 
REMARK    2  A    between atoms: O_3  and  C_4 
REMARK    3  A    between atoms: C_4  and  C_5 
REMARK    4  A    between atoms: C_6  and  O_7 
REMARK    5  A    between atoms: C_12  and  O_13 
REMARK    6  A    between atoms: C_17  and  C_18 
ROOT
HETATM    1  C   UNL     1      42.499 -18.321   3.779  1.00  0.00     0.133 C 
HETATM    2  C   UNL     1      42.921 -18.321   2.271  1.00  0.00     0.073 C 
HETATM    3  C   UNL     1      43.433 -19.701   1.824  1.00  0.00     0.047 C 
HETATM    4  C   UNL     1      41.719 -17.937   1.349  1.00  0.00     0.097 C 
HETATM    5  C   UNL     1      40.922 -16.841   1.955  1.00  0.00     0.042 A 
HETATM    6  C   UNL     1      40.939 -16.418   3.268  1.00  0.00     0.030 A 
HETATM    7  C   UNL     1      39.981 -15.393   3.289  1.00  0.00     0.190 A 
HETATM    8  N   UNL     1      39.397 -15.183   2.116  1.00  0.00    -0.149 NA
HETATM    9  N   UNL     1      40.007 -16.063   1.303  1.00  0.00    -0.279 N 
HETATM   10  H   UNL     1      39.738 -16.082   0.325  1.00  0.00     0.189 HD
HETATM   11  C   UNL     1      41.809 -17.033   4.311  1.00  0.00     0.075 C 
ENDROOT
BRANCH  11  12
HETATM   12  C   UNL     1      42.700 -15.924   4.852  1.00  0.00    -0.045 A 
HETATM   13  C   UNL     1      43.078 -15.821   6.201  1.00  0.00     0.050 A 
HETATM   14  C   UNL     1      43.887 -14.771   6.628  1.00  0.00     0.117 A 
HETATM   15  F   UNL     1      44.230 -14.687   7.920  1.00  0.00    -0.206 F 
HETATM   16  C   UNL     1      44.343 -13.807   5.740  1.00  0.00     0.042 A 
HETATM   17  C   UNL     1      43.981 -13.889   4.399  1.00  0.00     0.004 A 
HETATM   18  C   UNL     1      43.163 -14.935   3.961  1.00  0.00     0.008 A 
ENDBRANCH  11  12
BRANCH   1  19
HETATM   19  C   UNL     1      43.570 -18.751   4.758  1.00  0.00     0.267 C 
HETATM   20  O   UNL     1      44.768 -18.647   4.522  1.00  0.00    -0.265 OA
BRANCH  19  21
HETATM   21  O   UNL     1      43.045 -19.300   5.886  1.00  0.00    -0.316 OA
BRANCH  21  22
HETATM   22  C   UNL     1      43.983 -19.786   6.867  1.00  0.00     0.123 C 
HETATM   23  C   UNL     1      43.529 -21.145   7.383  1.00  0.00     0.040 C 
HETATM   24  C   UNL     1      44.010 -18.763   7.997  1.00  0.00     0.040 C 
ENDBRANCH  21  22
ENDBRANCH  19  21
ENDBRANCH   1  19
BRANCH   2  25
HETATM   25  O   UNL     1      43.969 -17.383   2.002  1.00  0.00    -0.389 OA
HETATM   26  H   UNL     1      44.811 -17.776   2.307  1.00  0.00     0.210 HD
ENDBRANCH   2  25
BRANCH   7  27
HETATM   27  O   UNL     1      39.591 -14.612   4.299  1.00  0.00    -0.343 OA
HETATM   28  H   UNL     1      40.164 -14.766   5.063  1.00  0.00     0.219 HD
ENDBRANCH   7  27
TORSDOF 6
ENDMDL
MODEL 2
REMARK VINA RESULT:      -7.5      1.684      2.288
REMARK  6 active torsions:
REMARK  status: ('A' for Active; 'I' for Inactive)
REMARK    1  A    between atoms: C_2  and  O_3 
REMARK    2  A    between atoms: O_3  and  C_4 
REMARK    3  A    between atoms: C_4  and  C_5 
REMARK    4  A    between atoms: C_6  and  O_7 
REMARK    5  A    between atoms: C_12  and  O_13 
REMARK    6  A    between atoms: C_17  and  C_18 
ROOT
HETATM    1  C   UNL     1      42.572 -17.722   3.127  1.00  0.00     0.133 C 
HETATM    2  C   UNL     1      43.108 -16.840   1.949  1.00  0.00     0.073 C 
HETATM    3  C   UNL     1      43.692 -17.700   0.816  1.00  0.00     0.047 C 
HETATM    4  C   UNL     1      41.971 -15.958   1.342  1.00  0.00     0.097 C 
HETATM    5  C   UNL     1      41.098 -15.414   2.414  1.00  0.00     0.042 A 
HETATM    6  C   UNL     1      41.002 -15.851   3.719  1.00  0.00     0.030 A 
HETATM    7  C   UNL     1      40.016 -15.016   4.266  1.00  0.00     0.190 A 
HETATM    8  N   UNL     1      39.518 -14.140   3.403  1.00  0.00    -0.149 NA
HETATM    9  N   UNL     1      40.214 -14.382   2.278  1.00  0.00    -0.279 N 
HETATM   10  H   UNL     1      40.022 -13.812   1.461  1.00  0.00     0.189 HD
HETATM   11  C   UNL     1      41.807 -16.983   4.261  1.00  0.00     0.075 C 
ENDROOT
BRANCH  11  12
HETATM   12  C   UNL     1      42.621 -16.429   5.421  1.00  0.00    -0.045 A 
HETATM   13  C   UNL     1      42.667 -17.026   6.692  1.00  0.00     0.050 A 
HETATM   14  C   UNL     1      43.425 -16.457   7.712  1.00  0.00     0.117 A 
HETATM   15  F   UNL     1      43.450 -17.038   8.917  1.00  0.00    -0.206 F 
HETATM   16  C   UNL     1      44.155 -15.295   7.502  1.00  0.00     0.042 A 
HETATM   17  C   UNL     1      44.125 -14.687   6.251  1.00  0.00     0.004 A 
HETATM   18  C   UNL     1      43.361 -15.246   5.222  1.00  0.00     0.008 A 
ENDBRANCH  11  12
BRANCH   1  19
HETATM   19  C   UNL     1      43.577 -18.672   3.743  1.00  0.00     0.267 C 
HETATM   20  O   UNL     1      44.559 -18.288   4.367  1.00  0.00    -0.265 OA
BRANCH  19  21
HETATM   21  O   UNL     1      43.283 -19.973   3.479  1.00  0.00    -0.316 OA
BRANCH  21  22
HETATM   22  C   UNL     1      44.366 -20.799   3.008  1.00  0.00     0.123 C 
HETATM   23  C   UNL     1      43.914 -21.595   1.790  1.00  0.00     0.040 C 
HETATM   24  C   UNL     1      44.739 -21.734   4.152  1.00  0.00     0.040 C 
ENDBRANCH  21  22
ENDBRANCH  19  21
ENDBRANCH   1  19
BRANCH   2  25
HETATM   25  O   UNL     1      44.147 -15.948   2.371  1.00  0.00    -0.389 OA
HETATM   26  H   UNL     1      44.990 -16.443   2.364  1.00  0.00     0.210 HD
ENDBRANCH   2  25
BRANCH   7  27
HETATM   27  O   UNL     1      39.527 -14.974   5.508  1.00  0.00    -0.343 OA
HETATM   28  H   UNL     1      39.174 -15.845   5.742  1.00  0.00     0.219 HD
ENDBRANCH   7  27
TORSDOF 6
ENDMDL
MODEL 3
REMARK VINA RESULT:      -7.4      2.774      4.420
REMARK  6 active torsions:
REMARK  status: ('A' for Active; 'I' for Inactive)
REMARK    1  A    between atoms: C_2  and  O_3 
REMARK    2  A    between atoms: O_3  and  C_4 
REMARK    3  A    between atoms: C_4  and  C_5 
REMARK    4  A    between atoms: C_6  and  O_7 
REMARK    5  A    between atoms: C_12  and  O_13 
REMARK    6  A    between atoms: C_17  and  C_18 
ROOT
HETATM    1  C   UNL     1      40.888 -14.635   3.023  1.00  0.00     0.133 C 
HETATM    2  C   UNL     1      41.771 -13.481   2.439  1.00  0.00     0.073 C 
HETATM    3  C   UNL     1      41.867 -13.559   0.906  1.00  0.00     0.047 C 
HETATM    4  C   UNL     1      41.188 -12.080   2.810  1.00  0.00     0.097 C 
HETATM    5  C   UNL     1      40.687 -12.073   4.208  1.00  0.00     0.042 A 
HETATM    6  C   UNL     1      40.404 -13.164   5.003  1.00  0.00     0.030 A 
HETATM    7  C   UNL     1      39.939 -12.584   6.193  1.00  0.00     0.190 A 
HETATM    8  N   UNL     1      39.914 -11.257   6.167  1.00  0.00    -0.149 NA
HETATM    9  N   UNL     1      40.402 -10.962   4.949  1.00  0.00    -0.279 N 
HETATM   10  H   UNL     1      40.499  -9.984   4.694  1.00  0.00     0.189 HD
HETATM   11  C   UNL     1      40.575 -14.573   4.545  1.00  0.00     0.075 C 
ENDROOT
BRANCH  11  12
HETATM   12  C   UNL     1      41.563 -15.229   5.498  1.00  0.00    -0.045 A 
HETATM   13  C   UNL     1      42.841 -14.714   5.767  1.00  0.00     0.050 A 
HETATM   14  C   UNL     1      43.699 -15.374   6.643  1.00  0.00     0.117 A 
HETATM   15  F   UNL     1      44.916 -14.869   6.879  1.00  0.00    -0.206 F 
HETATM   16  C   UNL     1      43.316 -16.551   7.273  1.00  0.00     0.042 A 
HETATM   17  C   UNL     1      42.054 -17.080   7.022  1.00  0.00     0.004 A 
HETATM   18  C   UNL     1      41.188 -16.428   6.139  1.00  0.00     0.008 A 
ENDBRANCH  11  12
BRANCH   1  19
HETATM   19  C   UNL     1      41.322 -16.039   2.662  1.00  0.00     0.267 C 
HETATM   20  O   UNL     1      40.528 -16.950   2.461  1.00  0.00    -0.265 OA
BRANCH  19  21
HETATM   21  O   UNL     1      42.676 -16.168   2.639  1.00  0.00    -0.316 OA
BRANCH  21  22
HETATM   22  C   UNL     1      43.197 -17.505   2.512  1.00  0.00     0.123 C 
HETATM   23  C   UNL     1      43.856 -17.927   3.820  1.00  0.00     0.040 C 
HETATM   24  C   UNL     1      44.218 -17.476   1.381  1.00  0.00     0.040 C 
ENDBRANCH  21  22
ENDBRANCH  19  21
ENDBRANCH   1  19
BRANCH   2  25
HETATM   25  O   UNL     1      43.113 -13.520   2.941  1.00  0.00    -0.389 OA
HETATM   26  H   UNL     1      43.628 -14.129   2.375  1.00  0.00     0.210 HD
ENDBRANCH   2  25
BRANCH   7  27
HETATM   27  O   UNL     1      39.538 -13.166   7.325  1.00  0.00    -0.343 OA
HETATM   28  H   UNL     1      39.077 -12.516   7.874  1.00  0.00     0.219 HD
ENDBRANCH   7  27
TORSDOF 6
ENDMDL
MODEL 4
REMARK VINA RESULT:      -7.3      2.034      2.633
REMARK  6 active torsions:
REMARK  status: ('A' for Active; 'I' for Inactive)
REMARK    1  A    between atoms: C_2  and  O_3 
REMARK    2  A    between atoms: O_3  and  C_4 
REMARK    3  A    between atoms: C_4  and  C_5 
REMARK    4  A    between atoms: C_6  and  O_7 
REMARK    5  A    between atoms: C_12  and  O_13 
REMARK    6  A    between atoms: C_17  and  C_18 
ROOT
HETATM    1  C   UNL     1      41.752 -17.329   3.052  1.00  0.00     0.133 C 
HETATM    2  C   UNL     1      42.956 -17.230   2.054  1.00  0.00     0.073 C 
HETATM    3  C   UNL     1      43.797 -18.518   2.049  1.00  0.00     0.047 C 
HETATM    4  C   UNL     1      42.460 -16.979   0.594  1.00  0.00     0.097 C 
HETATM    5  C   UNL     1      41.330 -16.014   0.582  1.00  0.00     0.042 A 
HETATM    6  C   UNL     1      40.543 -15.631   1.647  1.00  0.00     0.030 A 
HETATM    7  C   UNL     1      39.626 -14.741   1.068  1.00  0.00     0.190 A 
HETATM    8  N   UNL     1      39.796 -14.574  -0.238  1.00  0.00    -0.149 NA
HETATM    9  N   UNL     1      40.864 -15.344  -0.513  1.00  0.00    -0.279 N 
HETATM   10  H   UNL     1      41.206 -15.368  -1.468  1.00  0.00     0.189 HD
HETATM   11  C   UNL     1      40.729 -16.158   3.030  1.00  0.00     0.075 C 
ENDROOT
BRANCH  11  12
HETATM   12  C   UNL     1      41.006 -14.959   3.925  1.00  0.00    -0.045 A 
HETATM   13  C   UNL     1      40.220 -14.624   5.040  1.00  0.00     0.050 A 
HETATM   14  C   UNL     1      40.526 -13.504   5.809  1.00  0.00     0.117 A 
HETATM   15  F   UNL     1      39.759 -13.199   6.863  1.00  0.00    -0.206 F 
HETATM   16  C   UNL     1      41.610 -12.694   5.499  1.00  0.00     0.042 A 
HETATM   17  C   UNL     1      42.403 -13.006   4.399  1.00  0.00     0.004 A 
HETATM   18  C   UNL     1      42.101 -14.125   3.617  1.00  0.00     0.008 A 
ENDBRANCH  11  12
BRANCH   1  19
HETATM   19  C   UNL     1      42.116 -17.644   4.487  1.00  0.00     0.267 C 
HETATM   20  O   UNL     1      41.356 -18.222   5.254  1.00  0.00    -0.265 OA
BRANCH  19  21
HETATM   21  O   UNL     1      43.346 -17.170   4.821  1.00  0.00    -0.316 OA
BRANCH  21  22
HETATM   22  C   UNL     1      43.658 -17.110   6.227  1.00  0.00     0.123 C 
HETATM   23  C   UNL     1      43.788 -15.656   6.663  1.00  0.00     0.040 C 
HETATM   24  C   UNL     1      44.976 -17.850   6.419  1.00  0.00     0.040 C 
ENDBRANCH  21  22
ENDBRANCH  19  21
ENDBRANCH   1  19
BRANCH   2  25
HETATM   25  O   UNL     1      43.844 -16.155   2.383  1.00  0.00    -0.389 OA
HETATM   26  H   UNL     1      44.656 -16.261   1.849  1.00  0.00     0.210 HD
ENDBRANCH   2  25
BRANCH   7  27
HETATM   27  O   UNL     1      38.636 -14.047   1.634  1.00  0.00    -0.343 OA
HETATM   28  H   UNL     1      38.431 -13.276   1.086  1.00  0.00     0.219 HD
ENDBRANCH   7  27
TORSDOF 6
ENDMDL
MODEL 5
REMARK VINA RESULT:      -7.2      3.274      6.165
REMARK  6 active torsions:
REMARK  status: ('A' for Active; 'I' for Inactive)
REMARK    1  A    between atoms: C_2  and  O_3 
REMARK    2  A    between atoms: O_3  and  C_4 
REMARK    3  A    between atoms: C_4  and  C_5 
REMARK    4  A    between atoms: C_6  and  O_7 
REMARK    5  A    between atoms: C_12  and  O_13 
REMARK    6  A    between atoms: C_17  and  C_18 
ROOT
HETATM    1  C   UNL     1      41.016 -14.445   3.672  1.00  0.00     0.133 C 
HETATM    2  C   UNL     1      41.944 -13.184   3.698  1.00  0.00     0.073 C 
HETATM    3  C   UNL     1      41.183 -11.911   3.290  1.00  0.00     0.047 C 
HETATM    4  C   UNL     1      42.537 -12.949   5.124  1.00  0.00     0.097 C 
HETATM    5  C   UNL     1      42.924 -14.238   5.751  1.00  0.00     0.042 A 
HETATM    6  C   UNL     1      42.531 -15.505   5.374  1.00  0.00     0.030 A 
HETATM    7  C   UNL     1      43.158 -16.332   6.319  1.00  0.00     0.190 A 
HETATM    8  N   UNL     1      43.872 -15.668   7.219  1.00  0.00    -0.149 NA
HETATM    9  N   UNL     1      43.738 -14.386   6.838  1.00  0.00    -0.279 N 
HETATM   10  H   UNL     1      44.220 -13.671   7.373  1.00  0.00     0.189 HD
HETATM   11  C   UNL     1      41.620 -15.768   4.223  1.00  0.00     0.075 C 
ENDROOT
BRANCH  11  12
HETATM   12  C   UNL     1      42.382 -16.658   3.251  1.00  0.00    -0.045 A 
HETATM   13  C   UNL     1      41.999 -17.972   2.940  1.00  0.00     0.050 A 
HETATM   14  C   UNL     1      42.751 -18.734   2.049  1.00  0.00     0.117 A 
HETATM   15  F   UNL     1      42.372 -19.988   1.771  1.00  0.00    -0.206 F 
HETATM   16  C   UNL     1      43.890 -18.218   1.446  1.00  0.00     0.042 A 
HETATM   17  C   UNL     1      44.288 -16.918   1.740  1.00  0.00     0.004 A 
HETATM   18  C   UNL     1      43.544 -16.147   2.638  1.00  0.00     0.008 A 
ENDBRANCH  11  12
BRANCH   1  19
HETATM   19  C   UNL     1      40.329 -14.725   2.353  1.00  0.00     0.267 C 
HETATM   20  O   UNL     1      39.209 -15.218   2.277  1.00  0.00    -0.265 OA
BRANCH  19  21
HETATM   21  O   UNL     1      41.114 -14.412   1.287  1.00  0.00    -0.316 OA
BRANCH  21  22
HETATM   22  C   UNL     1      40.645 -14.832  -0.009  1.00  0.00     0.123 C 
HETATM   23  C   UNL     1      41.348 -16.120  -0.418  1.00  0.00     0.040 C 
HETATM   24  C   UNL     1      40.974 -13.707  -0.983  1.00  0.00     0.040 C 
ENDBRANCH  21  22
ENDBRANCH  19  21
ENDBRANCH   1  19
BRANCH   2  25
HETATM   25  O   UNL     1      43.053 -13.310   2.800  1.00  0.00    -0.389 OA
HETATM   26  H   UNL     1      43.646 -12.546   2.945  1.00  0.00     0.210 HD
ENDBRANCH   2  25
BRANCH   7  27
HETATM   27  O   UNL     1      43.145 -17.662   6.430  1.00  0.00    -0.343 OA
HETATM   28  H   UNL     1      43.392 -18.057   5.581  1.00  0.00     0.219 HD
ENDBRANCH   7  27
TORSDOF 6
ENDMDL
MODEL 6
REMARK VINA RESULT:      -7.2      2.757      4.884
REMARK  6 active torsions:
REMARK  status: ('A' for Active; 'I' for Inactive)
REMARK    1  A    between atoms: C_2  and  O_3 
REMARK    2  A    between atoms: O_3  and  C_4 
REMARK    3  A    between atoms: C_4  and  C_5 
REMARK    4  A    between atoms: C_6  and  O_7 
REMARK    5  A    between atoms: C_12  and  O_13 
REMARK    6  A    between atoms: C_17  and  C_18 
ROOT
HETATM    1  C   UNL     1      43.294 -16.105   2.489  1.00  0.00     0.133 C 
HETATM    2  C   UNL     1      42.033 -16.594   1.699  1.00  0.00     0.073 C 
HETATM    3  C   UNL     1      41.634 -15.600   0.595  1.00  0.00     0.047 C 
HETATM    4  C   UNL     1      42.292 -17.979   1.023  1.00  0.00     0.097 C 
HETATM    5  C   UNL     1      43.063 -18.869   1.929  1.00  0.00     0.042 A 
HETATM    6  C   UNL     1      43.788 -18.506   3.045  1.00  0.00     0.030 A 
HETATM    7  C   UNL     1      44.328 -19.723   3.488  1.00  0.00     0.190 A 
HETATM    8  N   UNL     1      43.997 -20.762   2.732  1.00  0.00    -0.149 NA
HETATM    9  N   UNL     1      43.198 -20.222   1.795  1.00  0.00    -0.279 N 
HETATM   10  H   UNL     1      42.794 -20.835   1.095  1.00  0.00     0.189 HD
HETATM   11  C   UNL     1      43.900 -17.098   3.522  1.00  0.00     0.075 C 
ENDROOT
BRANCH  11  12
HETATM   12  C   UNL     1      43.350 -17.067   4.940  1.00  0.00    -0.045 A 
HETATM   13  C   UNL     1      41.988 -17.226   5.247  1.00  0.00     0.050 A 
HETATM   14  C   UNL     1      41.553 -17.175   6.569  1.00  0.00     0.117 A 
HETATM   15  F   UNL     1      40.250 -17.321   6.840  1.00  0.00    -0.206 F 
HETATM   16  C   UNL     1      42.446 -16.972   7.613  1.00  0.00     0.042 A 
HETATM   17  C   UNL     1      43.799 -16.813   7.332  1.00  0.00     0.004 A 
HETATM   18  C   UNL     1      44.245 -16.855   6.007  1.00  0.00     0.008 A 
ENDBRANCH  11  12
BRANCH   1  19
HETATM   19  C   UNL     1      43.178 -14.737   3.125  1.00  0.00     0.267 C 
HETATM   20  O   UNL     1      44.142 -14.000   3.299  1.00  0.00    -0.265 OA
BRANCH  19  21
HETATM   21  O   UNL     1      41.906 -14.457   3.514  1.00  0.00    -0.316 OA
BRANCH  21  22
HETATM   22  C   UNL     1      41.711 -13.249   4.275  1.00  0.00     0.123 C 
HETATM   23  C   UNL     1      41.146 -13.590   5.648  1.00  0.00     0.040 C 
HETATM   24  C   UNL     1      40.731 -12.385   3.490  1.00  0.00     0.040 C 
ENDBRANCH  21  22
ENDBRANCH  19  21
ENDBRANCH   1  19
BRANCH   2  25
HETATM   25  O   UNL     1      40.890 -16.752   2.549  1.00  0.00    -0.389 OA
HETATM   26  H   UNL     1      41.037 -17.542   3.107  1.00  0.00     0.210 HD
ENDBRANCH   2  25
BRANCH   7  27
HETATM   27  O   UNL     1      45.103 -19.977   4.545  1.00  0.00    -0.343 OA
HETATM   28  H   UNL     1      45.020 -20.911   4.786  1.00  0.00     0.219 HD
ENDBRANCH   7  27
TORSDOF 6
ENDMDL
MODEL 7
REMARK VINA RESULT:      -7.0      2.897      4.556
REMARK  6 active torsions:
REMARK  status: ('A' for Active; 'I' for Inactive)
REMARK    1  A    between atoms: C_2  and  O_3 
REMARK    2  A    between atoms: O_3  and  C_4 
REMARK    3  A    between atoms: C_4  and  C_5 
REMARK    4  A    between atoms: C_6  and  O_7 
REMARK    5  A    between atoms: C_12  and  O_13 
REMARK    6  A    between atoms: C_17  and  C_18 
ROOT
HETATM    1  C   UNL     1      43.622 -17.844   4.333  1.00  0.00     0.133 C 
HETATM    2  C   UNL     1      42.741 -18.009   5.618  1.00  0.00     0.073 C 
HETATM    3  C   UNL     1      43.027 -19.339   6.336  1.00  0.00     0.047 C 
HETATM    4  C   UNL     1      43.004 -16.852   6.635  1.00  0.00     0.097 C 
HETATM    5  C   UNL     1      43.150 -15.554   5.927  1.00  0.00     0.042 A 
HETATM    6  C   UNL     1      43.394 -15.354   4.584  1.00  0.00     0.030 A 
HETATM    7  C   UNL     1      43.469 -13.957   4.475  1.00  0.00     0.190 A 
HETATM    8  N   UNL     1      43.303 -13.321   5.628  1.00  0.00    -0.149 NA
HETATM    9  N   UNL     1      43.082 -14.318   6.503  1.00  0.00    -0.279 N 
HETATM   10  H   UNL     1      42.904 -14.077   7.473  1.00  0.00     0.189 HD
HETATM   11  C   UNL     1      43.549 -16.470   3.608  1.00  0.00     0.075 C 
ENDROOT
BRANCH  11  12
HETATM   12  C   UNL     1      42.471 -16.284   2.550  1.00  0.00    -0.045 A 
HETATM   13  C   UNL     1      41.114 -16.082   2.853  1.00  0.00     0.050 A 
HETATM   14  C   UNL     1      40.179 -15.930   1.832  1.00  0.00     0.117 A 
HETATM   15  F   UNL     1      38.890 -15.745   2.142  1.00  0.00    -0.206 F 
HETATM   16  C   UNL     1      40.559 -15.970   0.498  1.00  0.00     0.042 A 
HETATM   17  C   UNL     1      41.897 -16.169   0.174  1.00  0.00     0.004 A 
HETATM   18  C   UNL     1      42.843 -16.329   1.192  1.00  0.00     0.008 A 
ENDBRANCH  11  12
BRANCH   1  19
HETATM   19  C   UNL     1      43.499 -18.953   3.310  1.00  0.00     0.267 C 
HETATM   20  O   UNL     1      42.500 -19.114   2.619  1.00  0.00    -0.265 OA
BRANCH  19  21
HETATM   21  O   UNL     1      44.595 -19.758   3.291  1.00  0.00    -0.316 OA
BRANCH  21  22
HETATM   22  C   UNL     1      44.363 -21.172   3.445  1.00  0.00     0.123 C 
HETATM   23  C   UNL     1      45.236 -21.717   4.568  1.00  0.00     0.040 C 
HETATM   24  C   UNL     1      44.726 -21.826   2.117  1.00  0.00     0.040 C 
ENDBRANCH  21  22
ENDBRANCH  19  21
ENDBRANCH   1  19
BRANCH   2  25
HETATM   25  O   UNL     1      41.340 -17.991   5.320  1.00  0.00    -0.389 OA
HETATM   26  H   UNL     1      41.157 -18.717   4.691  1.00  0.00     0.210 HD
ENDBRANCH   2  25
BRANCH   7  27
HETATM   27  O   UNL     1      43.671 -13.196   3.397  1.00  0.00    -0.343 OA
HETATM   28  H   UNL     1      44.622 -13.102   3.245  1.00  0.00     0.219 HD
ENDBRANCH   7  27
TORSDOF 6
ENDMDL
MODEL 8
REMARK VINA RESULT:      -7.0      2.733      4.739
REMARK  6 active torsions:
REMARK  status: ('A' for Active; 'I' for Inactive)
REMARK    1  A    between atoms: C_2  and  O_3 
REMARK    2  A    between atoms: O_3  and  C_4 
REMARK    3  A    between atoms: C_4  and  C_5 
REMARK    4  A    between atoms: C_6  and  O_7 
REMARK    5  A    between atoms: C_12  and  O_13 
REMARK    6  A    between atoms: C_17  and  C_18 
ROOT
HETATM    1  C   UNL     1      42.309 -13.291   3.717  1.00  0.00     0.133 C 
HETATM    2  C   UNL     1      41.072 -12.934   4.610  1.00  0.00     0.073 C 
HETATM    3  C   UNL     1      41.364 -11.735   5.529  1.00  0.00     0.047 C 
HETATM    4  C   UNL     1      39.829 -12.573   3.735  1.00  0.00     0.097 C 
HETATM    5  C   UNL     1      39.731 -13.479   2.562  1.00  0.00     0.042 A 
HETATM    6  C   UNL     1      40.720 -14.291   2.045  1.00  0.00     0.030 A 
HETATM    7  C   UNL     1      40.099 -14.889   0.937  1.00  0.00     0.190 A 
HETATM    8  N   UNL     1      38.846 -14.495   0.751  1.00  0.00    -0.149 NA
HETATM    9  N   UNL     1      38.629 -13.651   1.774  1.00  0.00    -0.279 N 
HETATM   10  H   UNL     1      37.713 -13.224   1.860  1.00  0.00     0.189 HD
HETATM   11  C   UNL     1      42.091 -14.378   2.625  1.00  0.00     0.075 C 
ENDROOT
BRANCH  11  12
HETATM   12  C   UNL     1      42.311 -15.831   3.019  1.00  0.00    -0.045 A 
HETATM   13  C   UNL     1      41.525 -16.506   3.967  1.00  0.00     0.050 A 
HETATM   14  C   UNL     1      41.791 -17.835   4.287  1.00  0.00     0.117 A 
HETATM   15  F   UNL     1      41.033 -18.458   5.198  1.00  0.00    -0.206 F 
HETATM   16  C   UNL     1      42.832 -18.525   3.682  1.00  0.00     0.042 A 
HETATM   17  C   UNL     1      43.625 -17.877   2.740  1.00  0.00     0.004 A 
HETATM   18  C   UNL     1      43.370 -16.541   2.416  1.00  0.00     0.008 A 
ENDBRANCH  11  12
BRANCH   1  19
HETATM   19  C   UNL     1      43.591 -13.587   4.463  1.00  0.00     0.267 C 
HETATM   20  O   UNL     1      44.693 -13.569   3.926  1.00  0.00    -0.265 OA
BRANCH  19  21
HETATM   21  O   UNL     1      43.366 -13.917   5.763  1.00  0.00    -0.316 OA
BRANCH  21  22
HETATM   22  C   UNL     1      44.451 -14.550   6.469  1.00  0.00     0.123 C 
HETATM   23  C   UNL     1      44.033 -15.947   6.908  1.00  0.00     0.040 C 
HETATM   24  C   UNL     1      44.761 -13.676   7.678  1.00  0.00     0.040 C 
ENDBRANCH  21  22
ENDBRANCH  19  21
ENDBRANCH   1  19
BRANCH   2  25
HETATM   25  O   UNL     1      40.685 -14.022   5.457  1.00  0.00    -0.389 OA
HETATM   26  H   UNL     1      40.026 -14.560   4.974  1.00  0.00     0.210 HD
ENDBRANCH   2  25
BRANCH   7  27
HETATM   27  O   UNL     1      40.580 -15.783   0.071  1.00  0.00    -0.343 OA
HETATM   28  H   UNL     1      40.838 -15.331  -0.746  1.00  0.00     0.219 HD
ENDBRANCH   7  27
TORSDOF 6
ENDMDL
MODEL 9
REMARK VINA RESULT:      -6.9      3.277      5.338
REMARK  6 active torsions:
REMARK  status: ('A' for Active; 'I' for Inactive)
REMARK    1  A    between atoms: C_2  and  O_3 
REMARK    2  A    between atoms: O_3  and  C_4 
REMARK    3  A    between atoms: C_4  and  C_5 
REMARK    4  A    between atoms: C_6  and  O_7 
REMARK    5  A    between atoms: C_12  and  O_13 
REMARK    6  A    between atoms: C_17  and  C_18 
ROOT
HETATM    1  C   UNL     1      42.873 -15.902   3.558  1.00  0.00     0.133 C 
HETATM    2  C   UNL     1      42.029 -17.221   3.508  1.00  0.00     0.073 C 
HETATM    3  C   UNL     1      42.055 -17.859   2.108  1.00  0.00     0.047 C 
HETATM    4  C   UNL     1      42.570 -18.277   4.524  1.00  0.00     0.097 C 
HETATM    5  C   UNL     1      42.959 -17.626   5.801  1.00  0.00     0.042 A 
HETATM    6  C   UNL     1      43.187 -16.284   6.023  1.00  0.00     0.030 A 
HETATM    7  C   UNL     1      43.552 -16.238   7.377  1.00  0.00     0.190 A 
HETATM    8  N   UNL     1      43.569 -17.427   7.966  1.00  0.00    -0.149 NA
HETATM    9  N   UNL     1      43.176 -18.264   6.989  1.00  0.00    -0.279 N 
HETATM   10  H   UNL     1      43.091 -19.251   7.206  1.00  0.00     0.189 HD
HETATM   11  C   UNL     1      43.064 -15.249   4.956  1.00  0.00     0.075 C 
ENDROOT
BRANCH  11  12
HETATM   12  C   UNL     1      42.009 -14.257   5.424  1.00  0.00    -0.045 A 
HETATM   13  C   UNL     1      42.251 -12.882   5.577  1.00  0.00     0.050 A 
HETATM   14  C   UNL     1      41.240 -12.033   6.021  1.00  0.00     0.117 A 
HETATM   15  F   UNL     1      41.494 -10.726   6.166  1.00  0.00    -0.206 F 
HETATM   16  C   UNL     1      39.974 -12.518   6.321  1.00  0.00     0.042 A 
HETATM   17  C   UNL     1      39.712 -13.876   6.177  1.00  0.00     0.004 A 
HETATM   18  C   UNL     1      40.722 -14.738   5.738  1.00  0.00     0.008 A 
ENDBRANCH  11  12
BRANCH   1  19
HETATM   19  C   UNL     1      42.480 -14.835   2.560  1.00  0.00     0.267 C 
HETATM   20  O   UNL     1      43.220 -13.909   2.250  1.00  0.00    -0.265 OA
BRANCH  19  21
HETATM   21  O   UNL     1      41.210 -15.002   2.102  1.00  0.00    -0.316 OA
BRANCH  21  22
HETATM   22  C   UNL     1      40.569 -13.845   1.532  1.00  0.00     0.123 C 
HETATM   23  C   UNL     1      39.543 -13.290   2.512  1.00  0.00     0.040 C 
HETATM   24  C   UNL     1      39.892 -14.303   0.246  1.00  0.00     0.040 C 
ENDBRANCH  21  22
ENDBRANCH  19  21
ENDBRANCH   1  19
BRANCH   2  25
HETATM   25  O   UNL     1      40.652 -16.994   3.835  1.00  0.00    -0.389 OA
HETATM   26  H   UNL     1      40.190 -17.855   3.802  1.00  0.00     0.210 HD
ENDBRANCH   2  25
BRANCH   7  27
HETATM   27  O   UNL     1      43.867 -15.190   8.140  1.00  0.00    -0.343 OA
HETATM   28  H   UNL     1      43.471 -14.390   7.765  1.00  0.00     0.219 HD
ENDBRANCH   7  27
TORSDOF 6
ENDMDL
MODEL 10
REMARK VINA RESULT:      -6.8      3.017      4.863
REMARK  6 active torsions:
REMARK  status: ('A' for Active; 'I' for Inactive)
REMARK    1  A    between atoms: C_2  and  O_3 
REMARK    2  A    between atoms: O_3  and  C_4 
REMARK    3  A    between atoms: C_4  and  C_5 
REMARK    4  A    between atoms: C_6  and  O_7 
REMARK    5  A    between atoms: C_12  and  O_13 
REMARK    6  A    between atoms: C_17  and  C_18 
ROOT
HETATM    1  C   UNL     1      41.943 -13.854   3.963  1.00  0.00     0.133 C 
HETATM    2  C   UNL     1      40.406 -13.783   4.256  1.00  0.00     0.073 C 
HETATM    3  C   UNL     1      40.122 -13.298   5.688  1.00  0.00     0.047 C 
HETATM    4  C   UNL     1      39.688 -12.806   3.270  1.00  0.00     0.097 C 
HETATM    5  C   UNL     1      40.234 -12.950   1.897  1.00  0.00     0.042 A 
HETATM    6  C   UNL     1      41.419 -13.550   1.524  1.00  0.00     0.030 A 
HETATM    7  C   UNL     1      41.447 -13.372   0.132  1.00  0.00     0.190 A 
HETATM    8  N   UNL     1      40.395 -12.717  -0.343  1.00  0.00    -0.149 NA
HETATM    9  N   UNL     1      39.649 -12.490   0.752  1.00  0.00    -0.279 N 
HETATM   10  H   UNL     1      38.763 -12.008   0.639  1.00  0.00     0.189 HD
HETATM   11  C   UNL     1      42.362 -14.170   2.499  1.00  0.00     0.075 C 
ENDROOT
BRANCH  11  12
HETATM   12  C   UNL     1      42.506 -15.632   2.104  1.00  0.00    -0.045 A 
HETATM   13  C   UNL     1      41.428 -16.436   1.699  1.00  0.00     0.050 A 
HETATM   14  C   UNL     1      41.631 -17.772   1.363  1.00  0.00     0.117 A 
HETATM   15  F   UNL     1      40.589 -18.523   0.986  1.00  0.00    -0.206 F 
HETATM   16  C   UNL     1      42.897 -18.341   1.414  1.00  0.00     0.042 A 
HETATM   17  C   UNL     1      43.980 -17.564   1.812  1.00  0.00     0.004 A 
HETATM   18  C   UNL     1      43.784 -16.223   2.158  1.00  0.00     0.008 A 
ENDBRANCH  11  12
BRANCH   1  19
HETATM   19  C   UNL     1      42.750 -14.718   4.908  1.00  0.00     0.267 C 
HETATM   20  O   UNL     1      43.907 -14.462   5.220  1.00  0.00    -0.265 OA
BRANCH  19  21
HETATM   21  O   UNL     1      42.060 -15.816   5.316  1.00  0.00    -0.316 OA
BRANCH  21  22
HETATM   22  C   UNL     1      42.839 -16.943   5.762  1.00  0.00     0.123 C 
HETATM   23  C   UNL     1      42.344 -18.213   5.081  1.00  0.00     0.040 C 
HETATM   24  C   UNL     1      42.657 -17.037   7.272  1.00  0.00     0.040 C 
ENDBRANCH  21  22
ENDBRANCH  19  21
ENDBRANCH   1  19
BRANCH   2  25
HETATM   25  O   UNL     1      39.769 -15.059   4.116  1.00  0.00    -0.389 OA
HETATM   26  H   UNL     1      38.864 -14.984   4.477  1.00  0.00     0.210 HD
ENDBRANCH   2  25
BRANCH   7  27
HETATM   27  O   UNL     1      42.356 -13.770  -0.760  1.00  0.00    -0.343 OA
HETATM   28  H   UNL     1      42.871 -14.501  -0.389  1.00  0.00     0.219 HD
ENDBRANCH   7  27
TORSDOF 6
ENDMDL
