MODEL 1
REMARK VINA RESULT:      -7.9      0.000      0.000
REMARK  6 active torsions:
REMARK  status: ('A' for Active; 'I' for Inactive)
REMARK    1  A    between atoms: C_2  and  N_3 
REMARK    2  A    between atoms: N_3  and  C_5 
REMARK    3  A    between atoms: N_3  and  C_26 
REMARK    4  A    between atoms: C_8  and  N_9 
REMARK       I    between atoms: N_9  and  C_10 
REMARK    5  A    between atoms: C_10  and  C_11 
REMARK    6  A    between atoms: C_19  and  O_20 
ROOT
HETATM    1  N   UNL     1      43.741 -14.832   7.107  1.00  0.00    -0.321 N 
HETATM    2  C   UNL     1      44.630 -13.771   7.211  1.00  0.00     0.280 C 
HETATM    3  O   UNL     1      45.699 -13.701   6.613  1.00  0.00    -0.265 OA
HETATM    4  H   UNL     1      42.972 -14.791   7.768  1.00  0.00     0.169 HD
ENDROOT
BRANCH   1   5
HETATM    5  C   UNL     1      43.913 -16.008   6.359  1.00  0.00     0.035 A 
HETATM    6  C   UNL     1      44.664 -17.100   6.791  1.00  0.00     0.032 A 
HETATM    7  C   UNL     1      44.737 -18.265   6.018  1.00  0.00     0.039 A 
HETATM    8  C   UNL     1      44.019 -18.371   4.823  1.00  0.00     0.134 A 
HETATM    9  C   UNL     1      43.305 -17.262   4.367  1.00  0.00     0.039 A 
HETATM   10  C   UNL     1      43.273 -16.080   5.121  1.00  0.00     0.032 A 
BRANCH   8  11
HETATM   11  N   UNL     1      44.051 -19.672   4.095  1.00  0.00    -0.042 N 
HETATM   12  H   UNL     1      43.229 -20.177   4.453  1.00  0.00     0.286 HD
BRANCH  11  13
HETATM   13  C   UNL     1      43.835 -19.498   2.603  1.00  0.00     0.237 C 
HETATM   14  C   UNL     1      43.675 -20.832   1.895  1.00  0.00     0.035 C 
ENDBRANCH  11  13
BRANCH  11  15
HETATM   15  C   UNL     1      45.210 -20.572   4.476  1.00  0.00     0.237 C 
HETATM   16  C   UNL     1      44.797 -21.824   5.242  1.00  0.00     0.035 C 
ENDBRANCH  11  15
ENDBRANCH   8  11
ENDBRANCH   1   5
BRANCH   2  17
HETATM   17  C   UNL     1      44.196 -12.776   8.177  1.00  0.00     0.150 A 
HETATM   18  O   UNL     1      44.872 -12.686   9.367  1.00  0.00    -0.304 OA
HETATM   19  C   UNL     1      44.283 -11.698  10.090  1.00  0.00     0.087 A 
HETATM   20  C   UNL     1      43.249 -11.119   9.369  1.00  0.00     0.009 A 
HETATM   21  C   UNL     1      44.656 -11.307  11.373  1.00  0.00     0.041 A 
HETATM   22  C   UNL     1      43.191 -11.820   8.126  1.00  0.00    -0.009 A 
HETATM   23  C   UNL     1      42.543 -10.057   9.963  1.00  0.00     0.051 A 
HETATM   24  C   UNL     1      42.263 -11.568   6.992  1.00  0.00     0.052 C 
HETATM   25  C   UNL     1      42.890  -9.629  11.255  1.00  0.00     0.069 A 
HETATM   26  C   UNL     1      43.931 -10.253  11.947  1.00  0.00     0.039 A 
BRANCH  25  27
HETATM   27  O   UNL     1      42.130  -8.589  11.721  1.00  0.00    -0.356 OA
HETATM   28  C   UNL     1      40.790  -8.501  11.249  1.00  0.00     0.210 C 
ENDBRANCH  25  27
ENDBRANCH   2  17
TORSDOF 6
ENDMDL
MODEL 2
REMARK VINA RESULT:      -7.5      1.244      2.067
REMARK  6 active torsions:
REMARK  status: ('A' for Active; 'I' for Inactive)
REMARK    1  A    between atoms: C_2  and  N_3 
REMARK    2  A    between atoms: N_3  and  C_5 
REMARK    3  A    between atoms: N_3  and  C_26 
REMARK    4  A    between atoms: C_8  and  N_9 
REMARK       I    between atoms: N_9  and  C_10 
REMARK    5  A    between atoms: C_10  and  C_11 
REMARK    6  A    between atoms: C_19  and  O_20 
ROOT
HETATM    1  N   UNL     1      43.648 -13.994   7.368  1.00  0.00    -0.321 N 
HETATM    2  C   UNL     1      44.668 -13.143   7.769  1.00  0.00     0.280 C 
HETATM    3  O   UNL     1      45.834 -13.237   7.401  1.00  0.00    -0.265 OA
HETATM    4  H   UNL     1      42.776 -13.857   7.869  1.00  0.00     0.169 HD
ENDROOT
BRANCH   1   5
HETATM    5  C   UNL     1      43.763 -15.114   6.528  1.00  0.00     0.035 A 
HETATM    6  C   UNL     1      44.338 -16.322   6.919  1.00  0.00     0.032 A 
HETATM    7  C   UNL     1      44.358 -17.416   6.046  1.00  0.00     0.039 A 
HETATM    8  C   UNL     1      43.762 -17.331   4.784  1.00  0.00     0.134 A 
HETATM    9  C   UNL     1      43.228 -16.109   4.375  1.00  0.00     0.039 A 
HETATM   10  C   UNL     1      43.251 -15.001   5.234  1.00  0.00     0.032 A 
BRANCH   8  11
HETATM   11  N   UNL     1      43.722 -18.559   3.939  1.00  0.00    -0.042 N 
HETATM   12  H   UNL     1      42.750 -18.885   4.019  1.00  0.00     0.286 HD
BRANCH  11  13
HETATM   13  C   UNL     1      43.955 -18.251   2.472  1.00  0.00     0.237 C 
HETATM   14  C   UNL     1      42.690 -18.424   1.649  1.00  0.00     0.035 C 
ENDBRANCH  11  13
BRANCH  11  15
HETATM   15  C   UNL     1      44.528 -19.720   4.488  1.00  0.00     0.237 C 
HETATM   16  C   UNL     1      44.764 -20.841   3.482  1.00  0.00     0.035 C 
ENDBRANCH  11  15
ENDBRANCH   8  11
ENDBRANCH   1   5
BRANCH   2  17
HETATM   17  C   UNL     1      44.223 -12.167   8.749  1.00  0.00     0.150 A 
HETATM   18  O   UNL     1      43.123 -11.402   8.455  1.00  0.00    -0.304 OA
HETATM   19  C   UNL     1      42.912 -10.576   9.513  1.00  0.00     0.087 A 
HETATM   20  C   UNL     1      43.845 -10.818  10.511  1.00  0.00     0.009 A 
HETATM   21  C   UNL     1      41.904  -9.620   9.600  1.00  0.00     0.041 A 
HETATM   22  C   UNL     1      44.698 -11.851  10.016  1.00  0.00    -0.009 A 
HETATM   23  C   UNL     1      43.756 -10.064  11.695  1.00  0.00     0.051 A 
HETATM   24  C   UNL     1      45.848 -12.484  10.715  1.00  0.00     0.052 C 
HETATM   25  C   UNL     1      42.752  -9.091  11.825  1.00  0.00     0.069 A 
HETATM   26  C   UNL     1      41.843  -8.874  10.786  1.00  0.00     0.039 A 
BRANCH  25  27
HETATM   27  O   UNL     1      42.772  -8.425  13.022  1.00  0.00    -0.356 OA
HETATM   28  C   UNL     1      43.092  -9.184  14.182  1.00  0.00     0.210 C 
ENDBRANCH  25  27
ENDBRANCH   2  17
TORSDOF 6
ENDMDL
MODEL 3
REMARK VINA RESULT:      -7.4      6.626      9.560
REMARK  6 active torsions:
REMARK  status: ('A' for Active; 'I' for Inactive)
REMARK    1  A    between atoms: C_2  and  N_3 
REMARK    2  A    between atoms: N_3  and  C_5 
REMARK    3  A    between atoms: N_3  and  C_26 
REMARK    4  A    between atoms: C_8  and  N_9 
REMARK       I    between atoms: N_9  and  C_10 
REMARK    5  A    between atoms: C_10  and  C_11 
REMARK    6  A    between atoms: C_19  and  O_20 
ROOT
HETATM    1  N   UNL     1      42.771 -15.783   0.912  1.00  0.00    -0.321 N 
HETATM    2  C   UNL     1      41.542 -15.363   0.420  1.00  0.00     0.280 C 
HETATM    3  O   UNL     1      40.461 -15.814   0.780  1.00  0.00    -0.265 OA
HETATM    4  H   UNL     1      43.567 -15.401   0.411  1.00  0.00     0.169 HD
ENDROOT
BRANCH   1   5
HETATM    5  C   UNL     1      43.001 -16.801   1.850  1.00  0.00     0.035 A 
HETATM    6  C   UNL     1      43.683 -17.983   1.561  1.00  0.00     0.032 A 
HETATM    7  C   UNL     1      43.931 -18.925   2.567  1.00  0.00     0.039 A 
HETATM    8  C   UNL     1      43.542 -18.677   3.886  1.00  0.00     0.134 A 
HETATM    9  C   UNL     1      42.819 -17.517   4.166  1.00  0.00     0.039 A 
HETATM   10  C   UNL     1      42.530 -16.598   3.148  1.00  0.00     0.032 A 
BRANCH   8  11
HETATM   11  N   UNL     1      43.925 -19.668   4.933  1.00  0.00    -0.042 N 
HETATM   12  H   UNL     1      43.087 -20.256   5.037  1.00  0.00     0.286 HD
BRANCH  11  13
HETATM   13  C   UNL     1      45.041 -20.585   4.471  1.00  0.00     0.237 C 
HETATM   14  C   UNL     1      44.942 -21.962   5.105  1.00  0.00     0.035 C 
ENDBRANCH  11  13
BRANCH  11  15
HETATM   15  C   UNL     1      44.111 -19.074   6.315  1.00  0.00     0.237 C 
HETATM   16  C   UNL     1      45.343 -18.186   6.447  1.00  0.00     0.035 C 
ENDBRANCH  11  15
ENDBRANCH   8  11
ENDBRANCH   1   5
BRANCH   2  17
HETATM   17  C   UNL     1      41.677 -14.379  -0.641  1.00  0.00     0.150 A 
HETATM   18  O   UNL     1      42.237 -13.164  -0.336  1.00  0.00    -0.304 OA
HETATM   19  C   UNL     1      42.249 -12.429  -1.478  1.00  0.00     0.087 A 
HETATM   20  C   UNL     1      41.731 -13.164  -2.534  1.00  0.00     0.009 A 
HETATM   21  C   UNL     1      42.715 -11.122  -1.590  1.00  0.00     0.041 A 
HETATM   22  C   UNL     1      41.358 -14.431  -1.991  1.00  0.00    -0.009 A 
HETATM   23  C   UNL     1      41.692 -12.559  -3.804  1.00  0.00     0.051 A 
HETATM   24  C   UNL     1      40.770 -15.587  -2.719  1.00  0.00     0.052 C 
HETATM   25  C   UNL     1      42.155 -11.243  -3.961  1.00  0.00     0.069 A 
HETATM   26  C   UNL     1      42.656 -10.538  -2.863  1.00  0.00     0.039 A 
BRANCH  25  27
HETATM   27  O   UNL     1      42.064 -10.769  -5.243  1.00  0.00    -0.356 OA
HETATM   28  C   UNL     1      42.480  -9.428  -5.470  1.00  0.00     0.210 C 
ENDBRANCH  25  27
ENDBRANCH   2  17
TORSDOF 6
ENDMDL
MODEL 4
REMARK VINA RESULT:      -7.3      6.840     10.978
REMARK  6 active torsions:
REMARK  status: ('A' for Active; 'I' for Inactive)
REMARK    1  A    between atoms: C_2  and  N_3 
REMARK    2  A    between atoms: N_3  and  C_5 
REMARK    3  A    between atoms: N_3  and  C_26 
REMARK    4  A    between atoms: C_8  and  N_9 
REMARK       I    between atoms: N_9  and  C_10 
REMARK    5  A    between atoms: C_10  and  C_11 
REMARK    6  A    between atoms: C_19  and  O_20 
ROOT
HETATM    1  N   UNL     1      41.748 -16.171  -0.213  1.00  0.00    -0.321 N 
HETATM    2  C   UNL     1      41.265 -16.465   1.054  1.00  0.00     0.280 C 
HETATM    3  O   UNL     1      40.303 -15.911   1.575  1.00  0.00    -0.265 OA
HETATM    4  H   UNL     1      42.628 -16.628  -0.434  1.00  0.00     0.169 HD
ENDROOT
BRANCH   1   5
HETATM    5  C   UNL     1      41.272 -15.185  -1.091  1.00  0.00     0.035 A 
HETATM    6  C   UNL     1      41.237 -13.825  -0.786  1.00  0.00     0.032 A 
HETATM    7  C   UNL     1      40.808 -12.892  -1.738  1.00  0.00     0.039 A 
HETATM    8  C   UNL     1      40.452 -13.303  -3.026  1.00  0.00     0.134 A 
HETATM    9  C   UNL     1      40.443 -14.667  -3.317  1.00  0.00     0.039 A 
HETATM   10  C   UNL     1      40.827 -15.603  -2.347  1.00  0.00     0.032 A 
BRANCH   8  11
HETATM   11  N   UNL     1      40.104 -12.255  -4.029  1.00  0.00    -0.042 N 
HETATM   12  H   UNL     1      39.915 -12.788  -4.889  1.00  0.00     0.286 HD
BRANCH  11  13
HETATM   13  C   UNL     1      38.819 -11.532  -3.677  1.00  0.00     0.237 C 
HETATM   14  C   UNL     1      37.619 -12.463  -3.705  1.00  0.00     0.035 C 
ENDBRANCH  11  13
BRANCH  11  15
HETATM   15  C   UNL     1      41.262 -11.358  -4.420  1.00  0.00     0.237 C 
HETATM   16  C   UNL     1      40.966  -9.869  -4.282  1.00  0.00     0.035 C 
ENDBRANCH  11  15
ENDBRANCH   8  11
ENDBRANCH   1   5
BRANCH   2  17
HETATM   17  C   UNL     1      42.078 -17.453   1.743  1.00  0.00     0.150 A 
HETATM   18  O   UNL     1      42.288 -18.664   1.134  1.00  0.00    -0.304 OA
HETATM   19  C   UNL     1      43.065 -19.404   1.967  1.00  0.00     0.087 A 
HETATM   20  C   UNL     1      43.392 -18.675   3.101  1.00  0.00     0.009 A 
HETATM   21  C   UNL     1      43.486 -20.709   1.728  1.00  0.00     0.041 A 
HETATM   22  C   UNL     1      42.750 -17.407   2.957  1.00  0.00    -0.009 A 
HETATM   23  C   UNL     1      44.218 -19.285   4.063  1.00  0.00     0.051 A 
HETATM   24  C   UNL     1      42.805 -16.257   3.898  1.00  0.00     0.052 C 
HETATM   25  C   UNL     1      44.667 -20.600   3.860  1.00  0.00     0.069 A 
HETATM   26  C   UNL     1      44.299 -21.299   2.707  1.00  0.00     0.039 A 
BRANCH  25  27
HETATM   27  O   UNL     1      45.461 -21.080   4.867  1.00  0.00    -0.356 OA
HETATM   28  C   UNL     1      45.201 -22.401   5.327  1.00  0.00     0.210 C 
ENDBRANCH  25  27
ENDBRANCH   2  17
TORSDOF 6
ENDMDL
MODEL 5
REMARK VINA RESULT:      -7.1      6.407      9.382
REMARK  6 active torsions:
REMARK  status: ('A' for Active; 'I' for Inactive)
REMARK    1  A    between atoms: C_2  and  N_3 
REMARK    2  A    between atoms: N_3  and  C_5 
REMARK    3  A    between atoms: N_3  and  C_26 
REMARK    4  A    between atoms: C_8  and  N_9 
REMARK       I    between atoms: N_9  and  C_10 
REMARK    5  A    between atoms: C_10  and  C_11 
REMARK    6  A    between atoms: C_19  and  O_20 
ROOT
HETATM    1  N   UNL     1      41.709 -16.458   1.262  1.00  0.00    -0.321 N 
HETATM    2  C   UNL     1      41.853 -15.078   1.247  1.00  0.00     0.280 C 
HETATM    3  O   UNL     1      42.519 -14.442   2.058  1.00  0.00    -0.265 OA
HETATM    4  H   UNL     1      41.020 -16.807   0.604  1.00  0.00     0.169 HD
ENDROOT
BRANCH   1   5
HETATM    5  C   UNL     1      42.244 -17.353   2.203  1.00  0.00     0.035 A 
HETATM    6  C   UNL     1      43.340 -18.178   1.954  1.00  0.00     0.032 A 
HETATM    7  C   UNL     1      43.856 -18.999   2.964  1.00  0.00     0.039 A 
HETATM    8  C   UNL     1      43.312 -18.972   4.251  1.00  0.00     0.134 A 
HETATM    9  C   UNL     1      42.187 -18.182   4.487  1.00  0.00     0.039 A 
HETATM   10  C   UNL     1      41.642 -17.396   3.462  1.00  0.00     0.032 A 
BRANCH   8  11
HETATM   11  N   UNL     1      43.969 -19.789   5.312  1.00  0.00    -0.042 N 
HETATM   12  H   UNL     1      43.238 -20.454   5.601  1.00  0.00     0.286 HD
BRANCH  11  13
HETATM   13  C   UNL     1      45.117 -20.616   4.768  1.00  0.00     0.237 C 
HETATM   14  C   UNL     1      44.973 -22.087   5.120  1.00  0.00     0.035 C 
ENDBRANCH  11  13
BRANCH  11  15
HETATM   15  C   UNL     1      44.272 -19.026   6.587  1.00  0.00     0.237 C 
HETATM   16  C   UNL     1      45.360 -17.970   6.433  1.00  0.00     0.035 C 
ENDBRANCH  11  15
ENDBRANCH   8  11
ENDBRANCH   1   5
BRANCH   2  17
HETATM   17  C   UNL     1      41.056 -14.448   0.209  1.00  0.00     0.150 A 
HETATM   18  O   UNL     1      41.676 -14.082  -0.958  1.00  0.00    -0.304 OA
HETATM   19  C   UNL     1      40.733 -13.519  -1.757  1.00  0.00     0.087 A 
HETATM   20  C   UNL     1      39.493 -13.544  -1.135  1.00  0.00     0.009 A 
HETATM   21  C   UNL     1      40.960 -12.992  -3.025  1.00  0.00     0.041 A 
HETATM   22  C   UNL     1      39.702 -14.147   0.143  1.00  0.00    -0.009 A 
HETATM   23  C   UNL     1      38.391 -13.021  -1.836  1.00  0.00     0.051 A 
HETATM   24  C   UNL     1      38.680 -14.422   1.188  1.00  0.00     0.052 C 
HETATM   25  C   UNL     1      38.577 -12.482  -3.120  1.00  0.00     0.069 A 
HETATM   26  C   UNL     1      39.848 -12.467  -3.699  1.00  0.00     0.039 A 
BRANCH  25  27
HETATM   27  O   UNL     1      37.429 -12.006  -3.696  1.00  0.00    -0.356 OA
HETATM   28  C   UNL     1      36.515 -12.966  -4.211  1.00  0.00     0.210 C 
ENDBRANCH  25  27
ENDBRANCH   2  17
TORSDOF 6
ENDMDL
MODEL 6
REMARK VINA RESULT:      -7.1      6.454     10.149
REMARK  6 active torsions:
REMARK  status: ('A' for Active; 'I' for Inactive)
REMARK    1  A    between atoms: C_2  and  N_3 
REMARK    2  A    between atoms: N_3  and  C_5 
REMARK    3  A    between atoms: N_3  and  C_26 
REMARK    4  A    between atoms: C_8  and  N_9 
REMARK       I    between atoms: N_9  and  C_10 
REMARK    5  A    between atoms: C_10  and  C_11 
REMARK    6  A    between atoms: C_19  and  O_20 
ROOT
HETATM    1  N   UNL     1      40.803 -15.789   1.800  1.00  0.00    -0.321 N 
HETATM    2  C   UNL     1      41.924 -15.467   2.554  1.00  0.00     0.280 C 
HETATM    3  O   UNL     1      42.365 -14.331   2.689  1.00  0.00    -0.265 OA
HETATM    4  H   UNL     1      40.656 -16.787   1.687  1.00  0.00     0.169 HD
ENDROOT
BRANCH   1   5
HETATM    5  C   UNL     1      40.017 -14.910   1.038  1.00  0.00     0.035 A 
HETATM    6  C   UNL     1      40.477 -14.242  -0.096  1.00  0.00     0.032 A 
HETATM    7  C   UNL     1      39.613 -13.431  -0.843  1.00  0.00     0.039 A 
HETATM    8  C   UNL     1      38.266 -13.313  -0.491  1.00  0.00     0.134 A 
HETATM    9  C   UNL     1      37.817 -13.944   0.669  1.00  0.00     0.039 A 
HETATM   10  C   UNL     1      38.695 -14.717   1.442  1.00  0.00     0.032 A 
BRANCH   8  11
HETATM   11  N   UNL     1      37.371 -12.520  -1.383  1.00  0.00    -0.042 N 
HETATM   12  H   UNL     1      36.494 -13.058  -1.398  1.00  0.00     0.286 HD
BRANCH  11  13
HETATM   13  C   UNL     1      37.036 -11.162  -0.795  1.00  0.00     0.237 C 
HETATM   14  C   UNL     1      35.546 -10.873  -0.852  1.00  0.00     0.035 C 
ENDBRANCH  11  13
BRANCH  11  15
HETATM   15  C   UNL     1      37.797 -12.504  -2.838  1.00  0.00     0.237 C 
HETATM   16  C   UNL     1      37.180 -13.617  -3.677  1.00  0.00     0.035 C 
ENDBRANCH  11  15
ENDBRANCH   8  11
ENDBRANCH   1   5
BRANCH   2  17
HETATM   17  C   UNL     1      42.576 -16.642   3.106  1.00  0.00     0.150 A 
HETATM   18  O   UNL     1      42.390 -16.927   4.435  1.00  0.00    -0.304 OA
HETATM   19  C   UNL     1      43.096 -18.056   4.707  1.00  0.00     0.087 A 
HETATM   20  C   UNL     1      43.716 -18.529   3.560  1.00  0.00     0.009 A 
HETATM   21  C   UNL     1      43.190 -18.666   5.955  1.00  0.00     0.041 A 
HETATM   22  C   UNL     1      43.379 -17.611   2.519  1.00  0.00    -0.009 A 
HETATM   23  C   UNL     1      44.472 -19.711   3.657  1.00  0.00     0.051 A 
HETATM   24  C   UNL     1      43.782 -17.681   1.089  1.00  0.00     0.052 C 
HETATM   25  C   UNL     1      44.590 -20.360   4.897  1.00  0.00     0.069 A 
HETATM   26  C   UNL     1      43.958 -19.837   6.028  1.00  0.00     0.039 A 
BRANCH  25  27
HETATM   27  O   UNL     1      45.351 -21.498   4.860  1.00  0.00    -0.356 OA
HETATM   28  C   UNL     1      44.685 -22.716   4.550  1.00  0.00     0.210 C 
ENDBRANCH  25  27
ENDBRANCH   2  17
TORSDOF 6
ENDMDL
MODEL 7
REMARK VINA RESULT:      -7.0      7.238     10.033
REMARK  6 active torsions:
REMARK  status: ('A' for Active; 'I' for Inactive)
REMARK    1  A    between atoms: C_2  and  N_3 
REMARK    2  A    between atoms: N_3  and  C_5 
REMARK    3  A    between atoms: N_3  and  C_26 
REMARK    4  A    between atoms: C_8  and  N_9 
REMARK       I    between atoms: N_9  and  C_10 
REMARK    5  A    between atoms: C_10  and  C_11 
REMARK    6  A    between atoms: C_19  and  O_20 
ROOT
HETATM    1  N   UNL     1      41.141 -16.181   0.445  1.00  0.00    -0.321 N 
HETATM    2  C   UNL     1      41.247 -14.809   0.267  1.00  0.00     0.280 C 
HETATM    3  O   UNL     1      42.043 -14.092   0.864  1.00  0.00    -0.265 OA
HETATM    4  H   UNL     1      40.345 -16.597  -0.026  1.00  0.00     0.169 HD
ENDROOT
BRANCH   1   5
HETATM    5  C   UNL     1      41.869 -16.975   1.346  1.00  0.00     0.035 A 
HETATM    6  C   UNL     1      41.436 -17.284   2.634  1.00  0.00     0.032 A 
HETATM    7  C   UNL     1      42.187 -18.136   3.453  1.00  0.00     0.039 A 
HETATM    8  C   UNL     1      43.360 -18.729   2.977  1.00  0.00     0.134 A 
HETATM    9  C   UNL     1      43.819 -18.383   1.706  1.00  0.00     0.039 A 
HETATM   10  C   UNL     1      43.089 -17.492   0.905  1.00  0.00     0.032 A 
BRANCH   8  11
HETATM   11  N   UNL     1      44.063 -19.708   3.855  1.00  0.00    -0.042 N 
HETATM   12  H   UNL     1      43.304 -20.291   4.234  1.00  0.00     0.286 HD
BRANCH  11  13
HETATM   13  C   UNL     1      44.968 -20.636   3.068  1.00  0.00     0.237 C 
HETATM   14  C   UNL     1      44.226 -21.864   2.571  1.00  0.00     0.035 C 
ENDBRANCH  11  13
BRANCH  11  15
HETATM   15  C   UNL     1      44.688 -19.098   5.094  1.00  0.00     0.237 C 
HETATM   16  C   UNL     1      44.026 -19.528   6.399  1.00  0.00     0.035 C 
ENDBRANCH  11  15
ENDBRANCH   8  11
ENDBRANCH   1   5
BRANCH   2  17
HETATM   17  C   UNL     1      40.248 -14.290  -0.651  1.00  0.00     0.150 A 
HETATM   18  O   UNL     1      39.381 -13.330  -0.196  1.00  0.00    -0.304 OA
HETATM   19  C   UNL     1      38.553 -13.014  -1.226  1.00  0.00     0.087 A 
HETATM   20  C   UNL     1      38.893 -13.736  -2.361  1.00  0.00     0.009 A 
HETATM   21  C   UNL     1      37.510 -12.094  -1.168  1.00  0.00     0.041 A 
HETATM   22  C   UNL     1      39.994 -14.566  -1.988  1.00  0.00    -0.009 A 
HETATM   23  C   UNL     1      38.150 -13.512  -3.534  1.00  0.00     0.051 A 
HETATM   24  C   UNL     1      40.739 -15.518  -2.854  1.00  0.00     0.052 C 
HETATM   25  C   UNL     1      37.090 -12.591  -3.519  1.00  0.00     0.069 A 
HETATM   26  C   UNL     1      36.777 -11.897  -2.347  1.00  0.00     0.039 A 
BRANCH  25  27
HETATM   27  O   UNL     1      36.445 -12.463  -4.721  1.00  0.00    -0.356 OA
HETATM   28  C   UNL     1      36.464 -11.180  -5.335  1.00  0.00     0.210 C 
ENDBRANCH  25  27
ENDBRANCH   2  17
TORSDOF 6
ENDMDL
MODEL 8
REMARK VINA RESULT:      -7.0      3.747     10.152
REMARK  6 active torsions:
REMARK  status: ('A' for Active; 'I' for Inactive)
REMARK    1  A    between atoms: C_2  and  N_3 
REMARK    2  A    between atoms: N_3  and  C_5 
REMARK    3  A    between atoms: N_3  and  C_26 
REMARK    4  A    between atoms: C_8  and  N_9 
REMARK       I    between atoms: N_9  and  C_10 
REMARK    5  A    between atoms: C_10  and  C_11 
REMARK    6  A    between atoms: C_19  and  O_20 
ROOT
HETATM    1  N   UNL     1      42.000 -15.112   5.145  1.00  0.00    -0.321 N 
HETATM    2  C   UNL     1      42.853 -15.321   4.070  1.00  0.00     0.280 C 
HETATM    3  O   UNL     1      43.202 -14.449   3.282  1.00  0.00    -0.265 OA
HETATM    4  H   UNL     1      41.711 -15.965   5.613  1.00  0.00     0.169 HD
ENDROOT
BRANCH   1   5
HETATM    5  C   UNL     1      41.360 -13.912   5.494  1.00  0.00     0.035 A 
HETATM    6  C   UNL     1      39.981 -13.718   5.421  1.00  0.00     0.032 A 
HETATM    7  C   UNL     1      39.409 -12.513   5.849  1.00  0.00     0.039 A 
HETATM    8  C   UNL     1      40.203 -11.503   6.399  1.00  0.00     0.134 A 
HETATM    9  C   UNL     1      41.587 -11.679   6.429  1.00  0.00     0.039 A 
HETATM   10  C   UNL     1      42.162 -12.867   5.956  1.00  0.00     0.032 A 
BRANCH   8  11
HETATM   11  N   UNL     1      39.527 -10.286   6.933  1.00  0.00    -0.042 N 
HETATM   12  H   UNL     1      38.528 -10.533   6.925  1.00  0.00     0.286 HD
BRANCH  11  13
HETATM   13  C   UNL     1      39.895 -10.016   8.380  1.00  0.00     0.237 C 
HETATM   14  C   UNL     1      38.669  -9.742   9.234  1.00  0.00     0.035 C 
ENDBRANCH  11  13
BRANCH  11  15
HETATM   15  C   UNL     1      39.597  -9.081   6.015  1.00  0.00     0.237 C 
HETATM   16  C   UNL     1      38.460  -9.006   5.003  1.00  0.00     0.035 C 
ENDBRANCH  11  15
ENDBRANCH   8  11
ENDBRANCH   1   5
BRANCH   2  17
HETATM   17  C   UNL     1      43.229 -16.717   3.924  1.00  0.00     0.150 A 
HETATM   18  O   UNL     1      43.008 -17.329   2.717  1.00  0.00    -0.304 OA
HETATM   19  C   UNL     1      43.435 -18.614   2.832  1.00  0.00     0.087 A 
HETATM   20  C   UNL     1      43.964 -18.837   4.095  1.00  0.00     0.009 A 
HETATM   21  C   UNL     1      43.363 -19.580   1.833  1.00  0.00     0.041 A 
HETATM   22  C   UNL     1      43.830 -17.606   4.806  1.00  0.00    -0.009 A 
HETATM   23  C   UNL     1      44.479 -20.116   4.379  1.00  0.00     0.051 A 
HETATM   24  C   UNL     1      44.264 -17.316   6.198  1.00  0.00     0.052 C 
HETATM   25  C   UNL     1      44.428 -21.118   3.397  1.00  0.00     0.069 A 
HETATM   26  C   UNL     1      43.872 -20.848   2.143  1.00  0.00     0.039 A 
BRANCH  25  27
HETATM   27  O   UNL     1      44.960 -22.316   3.795  1.00  0.00    -0.356 OA
HETATM   28  C   UNL     1      45.184 -22.496   5.188  1.00  0.00     0.210 C 
ENDBRANCH  25  27
ENDBRANCH   2  17
TORSDOF 6
ENDMDL
MODEL 9
REMARK VINA RESULT:      -6.9      3.892     10.128
REMARK  6 active torsions:
REMARK  status: ('A' for Active; 'I' for Inactive)
REMARK    1  A    between atoms: C_2  and  N_3 
REMARK    2  A    between atoms: N_3  and  C_5 
REMARK    3  A    between atoms: N_3  and  C_26 
REMARK    4  A    between atoms: C_8  and  N_9 
REMARK       I    between atoms: N_9  and  C_10 
REMARK    5  A    between atoms: C_10  and  C_11 
REMARK    6  A    between atoms: C_19  and  O_20 
ROOT
HETATM    1  N   UNL     1      41.935 -14.729   4.970  1.00  0.00    -0.321 N 
HETATM    2  C   UNL     1      42.795 -14.932   3.899  1.00  0.00     0.280 C 
HETATM    3  O   UNL     1      43.127 -14.061   3.102  1.00  0.00    -0.265 OA
HETATM    4  H   UNL     1      41.663 -15.583   5.447  1.00  0.00     0.169 HD
ENDROOT
BRANCH   1   5
HETATM    5  C   UNL     1      41.269 -13.539   5.305  1.00  0.00     0.035 A 
HETATM    6  C   UNL     1      39.934 -13.283   4.994  1.00  0.00     0.032 A 
HETATM    7  C   UNL     1      39.319 -12.099   5.419  1.00  0.00     0.039 A 
HETATM    8  C   UNL     1      40.018 -11.174   6.200  1.00  0.00     0.134 A 
HETATM    9  C   UNL     1      41.367 -11.408   6.471  1.00  0.00     0.039 A 
HETATM   10  C   UNL     1      41.993 -12.573   6.004  1.00  0.00     0.032 A 
BRANCH   8  11
HETATM   11  N   UNL     1      39.282  -9.982   6.710  1.00  0.00    -0.042 N 
HETATM   12  H   UNL     1      38.304 -10.298   6.763  1.00  0.00     0.286 HD
BRANCH  11  13
HETATM   13  C   UNL     1      39.695  -9.616   8.123  1.00  0.00     0.237 C 
HETATM   14  C   UNL     1      38.825 -10.300   9.163  1.00  0.00     0.035 C 
ENDBRANCH  11  13
BRANCH  11  15
HETATM   15  C   UNL     1      39.224  -8.822   5.736  1.00  0.00     0.237 C 
HETATM   16  C   UNL     1      38.184  -7.765   6.091  1.00  0.00     0.035 C 
ENDBRANCH  11  15
ENDBRANCH   8  11
ENDBRANCH   1   5
BRANCH   2  17
HETATM   17  C   UNL     1      43.201 -16.321   3.770  1.00  0.00     0.150 A 
HETATM   18  O   UNL     1      43.794 -16.930   4.846  1.00  0.00    -0.304 OA
HETATM   19  C   UNL     1      44.079 -18.207   4.479  1.00  0.00     0.087 A 
HETATM   20  C   UNL     1      43.649 -18.447   3.182  1.00  0.00     0.009 A 
HETATM   21  C   UNL     1      44.711 -19.153   5.281  1.00  0.00     0.041 A 
HETATM   22  C   UNL     1      43.079 -17.222   2.720  1.00  0.00    -0.009 A 
HETATM   23  C   UNL     1      43.844 -19.734   2.649  1.00  0.00     0.051 A 
HETATM   24  C   UNL     1      42.456 -16.961   1.395  1.00  0.00     0.052 C 
HETATM   25  C   UNL     1      44.475 -20.719   3.426  1.00  0.00     0.069 A 
HETATM   26  C   UNL     1      44.904 -20.425   4.723  1.00  0.00     0.039 A 
BRANCH  25  27
HETATM   27  O   UNL     1      44.606 -21.928   2.795  1.00  0.00    -0.356 OA
HETATM   28  C   UNL     1      44.153 -22.010   1.449  1.00  0.00     0.210 C 
ENDBRANCH  25  27
ENDBRANCH   2  17
TORSDOF 6
ENDMDL
MODEL 10
REMARK VINA RESULT:      -6.9      3.139      4.143
REMARK  6 active torsions:
REMARK  status: ('A' for Active; 'I' for Inactive)
REMARK    1  A    between atoms: C_2  and  N_3 
REMARK    2  A    between atoms: N_3  and  C_5 
REMARK    3  A    between atoms: N_3  and  C_26 
REMARK    4  A    between atoms: C_8  and  N_9 
REMARK       I    between atoms: N_9  and  C_10 
REMARK    5  A    between atoms: C_10  and  C_11 
REMARK    6  A    between atoms: C_19  and  O_20 
ROOT
HETATM    1  N   UNL     1      42.009 -12.850   6.391  1.00  0.00    -0.321 N 
HETATM    2  C   UNL     1      41.729 -11.502   6.565  1.00  0.00     0.280 C 
HETATM    3  O   UNL     1      41.421 -10.736   5.659  1.00  0.00    -0.265 OA
HETATM    4  H   UNL     1      42.374 -13.305   7.221  1.00  0.00     0.169 HD
ENDROOT
BRANCH   1   5
HETATM    5  C   UNL     1      42.038 -13.558   5.178  1.00  0.00     0.035 A 
HETATM    6  C   UNL     1      40.937 -14.225   4.643  1.00  0.00     0.032 A 
HETATM    7  C   UNL     1      41.025 -14.855   3.395  1.00  0.00     0.039 A 
HETATM    8  C   UNL     1      42.202 -14.786   2.644  1.00  0.00     0.134 A 
HETATM    9  C   UNL     1      43.317 -14.158   3.200  1.00  0.00     0.039 A 
HETATM   10  C   UNL     1      43.241 -13.569   4.470  1.00  0.00     0.032 A 
BRANCH   8  11
HETATM   11  N   UNL     1      42.203 -15.386   1.279  1.00  0.00    -0.042 N 
HETATM   12  H   UNL     1      43.047 -14.995   0.837  1.00  0.00     0.286 HD
BRANCH  11  13
HETATM   13  C   UNL     1      42.390 -16.890   1.315  1.00  0.00     0.237 C 
HETATM   14  C   UNL     1      43.857 -17.280   1.250  1.00  0.00     0.035 C 
ENDBRANCH  11  13
BRANCH  11  15
HETATM   15  C   UNL     1      41.081 -14.898   0.383  1.00  0.00     0.237 C 
HETATM   16  C   UNL     1      41.558 -14.270  -0.922  1.00  0.00     0.035 C 
ENDBRANCH  11  15
ENDBRANCH   8  11
ENDBRANCH   1   5
BRANCH   2  17
HETATM   17  C   UNL     1      41.921 -11.069   7.939  1.00  0.00     0.150 A 
HETATM   18  O   UNL     1      43.188 -11.105   8.463  1.00  0.00    -0.304 OA
HETATM   19  C   UNL     1      43.107 -10.660   9.744  1.00  0.00     0.087 A 
HETATM   20  C   UNL     1      41.802 -10.302  10.051  1.00  0.00     0.009 A 
HETATM   21  C   UNL     1      44.174 -10.567  10.633  1.00  0.00     0.041 A 
HETATM   22  C   UNL     1      41.031 -10.567   8.879  1.00  0.00    -0.009 A 
HETATM   23  C   UNL     1      41.543  -9.793  11.337  1.00  0.00     0.051 A 
HETATM   24  C   UNL     1      39.574 -10.336   8.687  1.00  0.00     0.052 C 
HETATM   25  C   UNL     1      42.591  -9.680  12.264  1.00  0.00     0.069 A 
HETATM   26  C   UNL     1      43.887 -10.067  11.912  1.00  0.00     0.039 A 
BRANCH  25  27
HETATM   27  O   UNL     1      42.210  -9.172  13.478  1.00  0.00    -0.356 OA
HETATM   28  C   UNL     1      42.332 -10.028  14.607  1.00  0.00     0.210 C 
ENDBRANCH  25  27
ENDBRANCH   2  17
TORSDOF 6
ENDMDL
