MODEL 1
REMARK VINA RESULT:      -7.1      0.000      0.000
REMARK  10 active torsions:
REMARK  status: ('A' for Active; 'I' for Inactive)
REMARK    1  A    between atoms: C_6  and  C_7 
REMARK    2  A    between atoms: C_7  and  C_8 
REMARK       I    between atoms: C_8  and  N_9 
REMARK    3  A    between atoms: N_9  and  C_10 
REMARK    4  A    between atoms: C_10  and  C_11 
REMARK    5  A    between atoms: C_11  and  N_12 
REMARK    6  A    between atoms: C_19  and  C_20 
REMARK    7  A    between atoms: C_29  and  C_30 
REMARK    8  A    between atoms: C_30  and  O_31 
REMARK    9  A    between atoms: O_31  and  C_32 
REMARK   10  A    between atoms: C_32  and  C_33 
ROOT
HETATM    1  C   UNL     1      42.045 -18.040   2.273  1.00  0.00     0.071 C 
HETATM    2  C   UNL     1      41.811 -17.309   3.570  1.00  0.00     0.048 C 
HETATM    3  N   UNL     1      42.015 -18.095   4.711  1.00  0.00    -0.229 NA
HETATM    4  C   UNL     1      42.507 -17.478   5.739  1.00  0.00     0.170 C 
HETATM    5  N   UNL     1      42.606 -15.917   5.805  1.00  0.00    -0.319 N 
HETATM    6  C   UNL     1      43.785 -15.604   6.236  1.00  0.00     0.011 C 
HETATM    7  C   UNL     1      41.463 -15.394   5.035  1.00  0.00     0.166 C 
HETATM    8  S   UNL     1      43.404 -18.194   7.022  1.00  0.00    -0.086 SA
HETATM    9  C   UNL     1      44.461 -16.691   7.070  1.00  0.00     0.135 C 
HETATM   10  C   UNL     1      41.642 -15.966   3.665  1.00  0.00     0.069 C 
ENDROOT
BRANCH   6  11
HETATM   11  C   UNL     1      44.438 -14.304   5.868  1.00  0.00     0.156 C 
BRANCH  11  12
HETATM   12  C   UNL     1      44.993 -13.572   7.069  1.00  0.00     0.223 C 
HETATM   13  N   UNL     1      44.120 -13.262   8.090  1.00  0.00    -0.359 N 
HETATM   14  H   UNL     1      43.127 -13.483   8.009  1.00  0.00     0.162 HD
HETATM   15  O   UNL     1      46.170 -13.222   7.087  1.00  0.00    -0.273 OA
BRANCH  13  16
HETATM   16  C   UNL     1      44.654 -12.605   9.282  1.00  0.00     0.150 C 
BRANCH  16  17
HETATM   17  C   UNL     1      44.130 -11.186   9.562  1.00  0.00     0.254 C 
BRANCH  17  18
HETATM   18  N   UNL     1      43.037 -11.203  10.617  1.00  0.00    -0.070 N 
HETATM   19  H   UNL     1      42.260 -11.791  10.279  1.00  0.00     0.279 HD
HETATM   20  C   UNL     1      42.455  -9.830  10.938  1.00  0.00     0.235 C 
HETATM   21  C   UNL     1      42.969  -9.519  12.327  1.00  0.00     0.029 C 
HETATM   22  C   UNL     1      42.932 -10.872  13.005  1.00  0.00     0.029 C 
HETATM   23  C   UNL     1      43.487 -11.806  11.947  1.00  0.00     0.235 C 
ENDBRANCH  17  18
ENDBRANCH  16  17
ENDBRANCH  13  16
ENDBRANCH  11  12
ENDBRANCH   6  11
BRANCH   7  24
HETATM   24  C   UNL     1      40.975 -13.965   5.223  1.00  0.00    -0.030 A 
HETATM   25  C   UNL     1      41.808 -12.836   5.179  1.00  0.00     0.011 A 
HETATM   26  C   UNL     1      41.319 -11.559   5.493  1.00  0.00     0.024 A 
HETATM   27  C   UNL     1      40.004 -11.391   5.910  1.00  0.00     0.034 A 
HETATM   28 CL   UNL     1      39.424  -9.830   6.326  1.00  0.00    -0.084 Cl
HETATM   29  C   UNL     1      39.172 -12.495   6.025  1.00  0.00     0.024 A 
HETATM   30  C   UNL     1      39.656 -13.765   5.697  1.00  0.00     0.011 A 
ENDBRANCH   7  24
BRANCH  10  31
HETATM   31  C   UNL     1      42.306 -15.104   2.675  1.00  0.00     0.294 C 
HETATM   32  O   UNL     1      43.521 -14.947   2.731  1.00  0.00    -0.259 OA
BRANCH  31  33
HETATM   33  O   UNL     1      41.424 -14.423   1.926  1.00  0.00    -0.314 OA
BRANCH  33  34
HETATM   34  C   UNL     1      41.948 -13.175   1.451  1.00  0.00     0.206 C 
BRANCH  34  35
HETATM   35  C   UNL     1      40.848 -12.166   1.445  1.00  0.00    -0.011 C 
HETATM   36  C   UNL     1      39.720 -12.283   2.158  1.00  0.00     0.009 C 
ENDBRANCH  34  35
ENDBRANCH  33  34
ENDBRANCH  31  33
ENDBRANCH  10  31
TORSDOF 10
ENDMDL
MODEL 2
REMARK VINA RESULT:      -7.0      2.434      3.610
REMARK  10 active torsions:
REMARK  status: ('A' for Active; 'I' for Inactive)
REMARK    1  A    between atoms: C_6  and  C_7 
REMARK    2  A    between atoms: C_7  and  C_8 
REMARK       I    between atoms: C_8  and  N_9 
REMARK    3  A    between atoms: N_9  and  C_10 
REMARK    4  A    between atoms: C_10  and  C_11 
REMARK    5  A    between atoms: C_11  and  N_12 
REMARK    6  A    between atoms: C_19  and  C_20 
REMARK    7  A    between atoms: C_29  and  C_30 
REMARK    8  A    between atoms: C_30  and  O_31 
REMARK    9  A    between atoms: O_31  and  C_32 
REMARK   10  A    between atoms: C_32  and  C_33 
ROOT
HETATM    1  C   UNL     1      43.528 -16.807   1.565  1.00  0.00     0.071 C 
HETATM    2  C   UNL     1      42.182 -16.426   2.129  1.00  0.00     0.048 C 
HETATM    3  N   UNL     1      41.782 -17.205   3.221  1.00  0.00    -0.229 NA
HETATM    4  C   UNL     1      41.096 -16.588   4.132  1.00  0.00     0.170 C 
HETATM    5  N   UNL     1      40.513 -15.152   3.905  1.00  0.00    -0.319 N 
HETATM    6  C   UNL     1      40.774 -14.441   4.954  1.00  0.00     0.011 C 
HETATM    7  C   UNL     1      40.200 -15.051   2.468  1.00  0.00     0.166 C 
HETATM    8  S   UNL     1      40.972 -17.036   5.789  1.00  0.00    -0.086 SA
HETATM    9  C   UNL     1      40.983 -15.251   6.231  1.00  0.00     0.135 C 
HETATM   10  C   UNL     1      41.505 -15.302   1.782  1.00  0.00     0.069 C 
ENDROOT
BRANCH   6  11
HETATM   11  C   UNL     1      40.924 -12.949   4.875  1.00  0.00     0.156 C 
BRANCH  11  12
HETATM   12  C   UNL     1      40.352 -12.242   6.082  1.00  0.00     0.223 C 
HETATM   13  N   UNL     1      41.239 -11.754   7.019  1.00  0.00    -0.359 N 
HETATM   14  H   UNL     1      42.241 -11.909   6.914  1.00  0.00     0.162 HD
HETATM   15  O   UNL     1      39.136 -12.168   6.233  1.00  0.00    -0.273 OA
BRANCH  13  16
HETATM   16  C   UNL     1      40.702 -11.019   8.162  1.00  0.00     0.150 C 
BRANCH  16  17
HETATM   17  C   UNL     1      41.736 -10.307   9.053  1.00  0.00     0.254 C 
BRANCH  17  18
HETATM   18  N   UNL     1      42.538 -11.307   9.868  1.00  0.00    -0.070 N 
HETATM   19  H   UNL     1      42.131 -12.245   9.737  1.00  0.00     0.279 HD
HETATM   20  C   UNL     1      42.548 -11.027  11.368  1.00  0.00     0.235 C 
HETATM   21  C   UNL     1      43.959 -10.560  11.653  1.00  0.00     0.029 C 
HETATM   22  C   UNL     1      44.789 -11.425  10.730  1.00  0.00     0.029 C 
HETATM   23  C   UNL     1      44.000 -11.407   9.435  1.00  0.00     0.235 C 
ENDBRANCH  17  18
ENDBRANCH  16  17
ENDBRANCH  13  16
ENDBRANCH  11  12
ENDBRANCH   6  11
BRANCH   7  24
HETATM   24  C   UNL     1      39.237 -13.996   1.945  1.00  0.00    -0.030 A 
HETATM   25  C   UNL     1      39.133 -12.697   2.467  1.00  0.00     0.011 A 
HETATM   26  C   UNL     1      38.133 -11.815   2.030  1.00  0.00     0.024 A 
HETATM   27  C   UNL     1      37.184 -12.231   1.102  1.00  0.00     0.034 A 
HETATM   28 CL   UNL     1      35.944 -11.157   0.598  1.00  0.00    -0.084 Cl
HETATM   29  C   UNL     1      37.221 -13.529   0.614  1.00  0.00     0.024 A 
HETATM   30  C   UNL     1      38.227 -14.401   1.040  1.00  0.00     0.011 A 
ENDBRANCH   7  24
BRANCH  10  31
HETATM   31  C   UNL     1      42.276 -14.115   1.382  1.00  0.00     0.294 C 
HETATM   32  O   UNL     1      42.874 -13.468   2.236  1.00  0.00    -0.259 OA
BRANCH  31  33
HETATM   33  O   UNL     1      42.050 -13.775   0.103  1.00  0.00    -0.314 OA
BRANCH  33  34
HETATM   34  C   UNL     1      41.904 -12.359  -0.077  1.00  0.00     0.206 C 
BRANCH  34  35
HETATM   35  C   UNL     1      40.700 -12.106  -0.921  1.00  0.00    -0.011 C 
HETATM   36  C   UNL     1      40.170 -13.006  -1.759  1.00  0.00     0.009 C 
ENDBRANCH  34  35
ENDBRANCH  33  34
ENDBRANCH  31  33
ENDBRANCH  10  31
TORSDOF 10
ENDMDL
MODEL 3
REMARK VINA RESULT:      -6.8      4.655      8.928
REMARK  10 active torsions:
REMARK  status: ('A' for Active; 'I' for Inactive)
REMARK    1  A    between atoms: C_6  and  C_7 
REMARK    2  A    between atoms: C_7  and  C_8 
REMARK       I    between atoms: C_8  and  N_9 
REMARK    3  A    between atoms: N_9  and  C_10 
REMARK    4  A    between atoms: C_10  and  C_11 
REMARK    5  A    between atoms: C_11  and  N_12 
REMARK    6  A    between atoms: C_19  and  C_20 
REMARK    7  A    between atoms: C_29  and  C_30 
REMARK    8  A    between atoms: C_30  and  O_31 
REMARK    9  A    between atoms: O_31  and  C_32 
REMARK   10  A    between atoms: C_32  and  C_33 
ROOT
HETATM    1  C   UNL     1      40.577 -12.219   4.666  1.00  0.00     0.071 C 
HETATM    2  C   UNL     1      40.368 -13.493   3.886  1.00  0.00     0.048 C 
HETATM    3  N   UNL     1      39.097 -13.603   3.308  1.00  0.00    -0.229 NA
HETATM    4  C   UNL     1      39.051 -14.205   2.161  1.00  0.00     0.170 C 
HETATM    5  N   UNL     1      40.272 -15.001   1.589  1.00  0.00    -0.319 N 
HETATM    6  C   UNL     1      40.424 -14.668   0.347  1.00  0.00     0.011 C 
HETATM    7  C   UNL     1      40.990 -15.556   2.750  1.00  0.00     0.166 C 
HETATM    8  S   UNL     1      37.845 -13.997   0.951  1.00  0.00    -0.086 SA
HETATM    9  C   UNL     1      39.157 -14.148  -0.328  1.00  0.00     0.135 C 
HETATM   10  C   UNL     1      41.361 -14.359   3.567  1.00  0.00     0.069 C 
ENDROOT
BRANCH   6  11
HETATM   11  C   UNL     1      41.766 -14.730  -0.324  1.00  0.00     0.156 C 
BRANCH  11  12
HETATM   12  C   UNL     1      42.140 -13.429  -0.996  1.00  0.00     0.223 C 
HETATM   13  N   UNL     1      42.090 -12.278  -0.237  1.00  0.00    -0.359 N 
HETATM   14  H   UNL     1      41.768 -12.309   0.730  1.00  0.00     0.162 HD
HETATM   15  O   UNL     1      42.418 -13.411  -2.192  1.00  0.00    -0.273 OA
BRANCH  13  16
HETATM   16  C   UNL     1      42.504 -11.021  -0.858  1.00  0.00     0.150 C 
BRANCH  16  17
HETATM   17  C   UNL     1      41.375 -10.031  -1.194  1.00  0.00     0.254 C 
BRANCH  17  18
HETATM   18  N   UNL     1      41.406  -9.641  -2.662  1.00  0.00    -0.070 N 
HETATM   19  H   UNL     1      41.378  -8.613  -2.732  1.00  0.00     0.279 HD
HETATM   20  C   UNL     1      40.235 -10.179  -3.478  1.00  0.00     0.235 C 
HETATM   21  C   UNL     1      40.849 -11.244  -4.360  1.00  0.00     0.029 C 
HETATM   22  C   UNL     1      42.199 -10.653  -4.705  1.00  0.00     0.029 C 
HETATM   23  C   UNL     1      42.678 -10.088  -3.381  1.00  0.00     0.235 C 
ENDBRANCH  17  18
ENDBRANCH  16  17
ENDBRANCH  13  16
ENDBRANCH  11  12
ENDBRANCH   6  11
BRANCH   7  24
HETATM   24  C   UNL     1      41.955 -16.722   2.595  1.00  0.00    -0.030 A 
HETATM   25  C   UNL     1      42.405 -17.212   1.359  1.00  0.00     0.011 A 
HETATM   26  C   UNL     1      43.188 -18.374   1.280  1.00  0.00     0.024 A 
HETATM   27  C   UNL     1      43.491 -19.099   2.427  1.00  0.00     0.034 A 
HETATM   28 CL   UNL     1      44.421 -20.537   2.316  1.00  0.00    -0.084 Cl
HETATM   29  C   UNL     1      43.009 -18.676   3.656  1.00  0.00     0.024 A 
HETATM   30  C   UNL     1      42.242 -17.510   3.736  1.00  0.00     0.011 A 
ENDBRANCH   7  24
BRANCH  10  31
HETATM   31  C   UNL     1      42.719 -13.828   3.372  1.00  0.00     0.294 C 
HETATM   32  O   UNL     1      42.937 -13.054   2.445  1.00  0.00    -0.259 OA
BRANCH  31  33
HETATM   33  O   UNL     1      43.618 -14.441   4.157  1.00  0.00    -0.314 OA
BRANCH  33  34
HETATM   34  C   UNL     1      43.673 -13.884   5.478  1.00  0.00     0.206 C 
BRANCH  34  35
HETATM   35  C   UNL     1      43.477 -14.982   6.470  1.00  0.00    -0.011 C 
HETATM   36  C   UNL     1      44.309 -16.022   6.610  1.00  0.00     0.009 C 
ENDBRANCH  34  35
ENDBRANCH  33  34
ENDBRANCH  31  33
ENDBRANCH  10  31
TORSDOF 10
ENDMDL
MODEL 4
REMARK VINA RESULT:      -6.7      3.318      5.141
REMARK  10 active torsions:
REMARK  status: ('A' for Active; 'I' for Inactive)
REMARK    1  A    between atoms: C_6  and  C_7 
REMARK    2  A    between atoms: C_7  and  C_8 
REMARK       I    between atoms: C_8  and  N_9 
REMARK    3  A    between atoms: N_9  and  C_10 
REMARK    4  A    between atoms: C_10  and  C_11 
REMARK    5  A    between atoms: C_11  and  N_12 
REMARK    6  A    between atoms: C_19  and  C_20 
REMARK    7  A    between atoms: C_29  and  C_30 
REMARK    8  A    between atoms: C_30  and  O_31 
REMARK    9  A    between atoms: O_31  and  C_32 
REMARK   10  A    between atoms: C_32  and  C_33 
ROOT
HETATM    1  C   UNL     1      40.727 -15.092  -0.993  1.00  0.00     0.071 C 
HETATM    2  C   UNL     1      41.374 -14.486   0.228  1.00  0.00     0.048 C 
HETATM    3  N   UNL     1      41.828 -13.175   0.038  1.00  0.00    -0.229 NA
HETATM    4  C   UNL     1      41.736 -12.394   1.069  1.00  0.00     0.170 C 
HETATM    5  N   UNL     1      41.408 -12.938   2.500  1.00  0.00    -0.319 N 
HETATM    6  C   UNL     1      40.501 -12.177   3.023  1.00  0.00     0.011 C 
HETATM    7  C   UNL     1      41.990 -14.290   2.576  1.00  0.00     0.166 C 
HETATM    8  S   UNL     1      41.628 -10.677   1.036  1.00  0.00    -0.086 SA
HETATM    9  C   UNL     1      40.456 -10.762   2.450  1.00  0.00     0.135 C 
HETATM   10  C   UNL     1      41.333 -15.043   1.464  1.00  0.00     0.069 C 
ENDROOT
BRANCH   6  11
HETATM   11  C   UNL     1      39.539 -12.695   4.053  1.00  0.00     0.156 C 
BRANCH  11  12
HETATM   12  C   UNL     1      39.528 -11.856   5.310  1.00  0.00     0.223 C 
HETATM   13  N   UNL     1      40.562 -12.031   6.206  1.00  0.00    -0.359 N 
HETATM   14  H   UNL     1      41.281 -12.735   6.037  1.00  0.00     0.162 HD
HETATM   15  O   UNL     1      38.590 -11.096   5.536  1.00  0.00    -0.273 OA
BRANCH  13  16
HETATM   16  C   UNL     1      40.595 -11.186   7.398  1.00  0.00     0.150 C 
BRANCH  16  17
HETATM   17  C   UNL     1      41.974 -10.629   7.793  1.00  0.00     0.254 C 
BRANCH  17  18
HETATM   18  N   UNL     1      42.579 -11.423   8.940  1.00  0.00    -0.070 N 
HETATM   19  H   UNL     1      42.041 -12.294   9.058  1.00  0.00     0.279 HD
HETATM   20  C   UNL     1      42.561 -10.696  10.281  1.00  0.00     0.235 C 
HETATM   21  C   UNL     1      44.011 -10.350  10.539  1.00  0.00     0.029 C 
HETATM   22  C   UNL     1      44.744 -11.558   9.996  1.00  0.00     0.029 C 
HETATM   23  C   UNL     1      44.027 -11.839   8.689  1.00  0.00     0.235 C 
ENDBRANCH  17  18
ENDBRANCH  16  17
ENDBRANCH  13  16
ENDBRANCH  11  12
ENDBRANCH   6  11
BRANCH   7  24
HETATM   24  C   UNL     1      42.257 -14.958   3.917  1.00  0.00    -0.030 A 
HETATM   25  C   UNL     1      43.468 -15.580   4.260  1.00  0.00     0.011 A 
HETATM   26  C   UNL     1      43.604 -16.293   5.461  1.00  0.00     0.024 A 
HETATM   27  C   UNL     1      42.518 -16.445   6.316  1.00  0.00     0.034 A 
HETATM   28 CL   UNL     1      42.685 -17.349   7.766  1.00  0.00    -0.084 Cl
HETATM   29  C   UNL     1      41.291 -15.896   5.976  1.00  0.00     0.024 A 
HETATM   30  C   UNL     1      41.161 -15.173   4.787  1.00  0.00     0.011 A 
ENDBRANCH   7  24
BRANCH  10  31
HETATM   31  C   UNL     1      40.165 -15.862   1.825  1.00  0.00     0.294 C 
HETATM   32  O   UNL     1      39.062 -15.333   1.912  1.00  0.00    -0.259 OA
BRANCH  31  33
HETATM   33  O   UNL     1      40.517 -17.096   2.218  1.00  0.00    -0.314 OA
BRANCH  33  34
HETATM   34  C   UNL     1      41.411 -17.738   1.297  1.00  0.00     0.206 C 
BRANCH  34  35
HETATM   35  C   UNL     1      42.475 -18.440   2.073  1.00  0.00    -0.011 C 
HETATM   36  C   UNL     1      43.781 -18.363   1.791  1.00  0.00     0.009 C 
ENDBRANCH  34  35
ENDBRANCH  33  34
ENDBRANCH  31  33
ENDBRANCH  10  31
TORSDOF 10
ENDMDL
MODEL 5
REMARK VINA RESULT:      -6.6      3.064      5.361
REMARK  10 active torsions:
REMARK  status: ('A' for Active; 'I' for Inactive)
REMARK    1  A    between atoms: C_6  and  C_7 
REMARK    2  A    between atoms: C_7  and  C_8 
REMARK       I    between atoms: C_8  and  N_9 
REMARK    3  A    between atoms: N_9  and  C_10 
REMARK    4  A    between atoms: C_10  and  C_11 
REMARK    5  A    between atoms: C_11  and  N_12 
REMARK    6  A    between atoms: C_19  and  C_20 
REMARK    7  A    between atoms: C_29  and  C_30 
REMARK    8  A    between atoms: C_30  and  O_31 
REMARK    9  A    between atoms: O_31  and  C_32 
REMARK   10  A    between atoms: C_32  and  C_33 
ROOT
HETATM    1  C   UNL     1      43.204 -19.747   2.145  1.00  0.00     0.071 C 
HETATM    2  C   UNL     1      43.229 -18.254   2.357  1.00  0.00     0.048 C 
HETATM    3  N   UNL     1      42.850 -17.514   1.230  1.00  0.00    -0.229 NA
HETATM    4  C   UNL     1      42.200 -16.418   1.470  1.00  0.00     0.170 C 
HETATM    5  N   UNL     1      42.088 -15.814   2.911  1.00  0.00    -0.319 N 
HETATM    6  C   UNL     1      40.854 -15.479   3.113  1.00  0.00     0.011 C 
HETATM    7  C   UNL     1      43.337 -16.168   3.610  1.00  0.00     0.166 C 
HETATM    8  S   UNL     1      41.115 -15.624   0.396  1.00  0.00    -0.086 SA
HETATM    9  C   UNL     1      40.059 -15.199   1.840  1.00  0.00     0.135 C 
HETATM   10  C   UNL     1      43.377 -17.662   3.569  1.00  0.00     0.069 C 
ENDROOT
BRANCH   6  11
HETATM   11  C   UNL     1      40.264 -15.451   4.493  1.00  0.00     0.156 C 
BRANCH  11  12
HETATM   12  C   UNL     1      39.883 -14.056   4.933  1.00  0.00     0.223 C 
HETATM   13  N   UNL     1      39.842 -13.799   6.288  1.00  0.00    -0.359 N 
HETATM   14  H   UNL     1      40.020 -14.544   6.961  1.00  0.00     0.162 HD
HETATM   15  O   UNL     1      39.568 -13.211   4.099  1.00  0.00    -0.273 OA
BRANCH  13  16
HETATM   16  C   UNL     1      39.531 -12.440   6.726  1.00  0.00     0.150 C 
BRANCH  16  17
HETATM   17  C   UNL     1      39.187 -12.274   8.216  1.00  0.00     0.254 C 
BRANCH  17  18
HETATM   18  N   UNL     1      39.678 -10.938   8.747  1.00  0.00    -0.070 N 
HETATM   19  H   UNL     1      38.890 -10.273   8.752  1.00  0.00     0.279 HD
HETATM   20  C   UNL     1      40.793 -10.307   7.919  1.00  0.00     0.235 C 
HETATM   21  C   UNL     1      42.025 -10.433   8.789  1.00  0.00     0.029 C 
HETATM   22  C   UNL     1      41.475 -10.202  10.180  1.00  0.00     0.029 C 
HETATM   23  C   UNL     1      40.192 -11.010  10.185  1.00  0.00     0.235 C 
ENDBRANCH  17  18
ENDBRANCH  16  17
ENDBRANCH  13  16
ENDBRANCH  11  12
ENDBRANCH   6  11
BRANCH   7  24
HETATM   24  C   UNL     1      43.785 -15.411   4.852  1.00  0.00    -0.030 A 
HETATM   25  C   UNL     1      44.238 -16.028   6.028  1.00  0.00     0.011 A 
HETATM   26  C   UNL     1      44.509 -15.278   7.184  1.00  0.00     0.024 A 
HETATM   27  C   UNL     1      44.282 -13.907   7.203  1.00  0.00     0.034 A 
HETATM   28 CL   UNL     1      44.584 -13.004   8.631  1.00  0.00    -0.084 Cl
HETATM   29  C   UNL     1      43.775 -13.277   6.076  1.00  0.00     0.024 A 
HETATM   30  C   UNL     1      43.519 -14.022   4.921  1.00  0.00     0.011 A 
ENDBRANCH   7  24
BRANCH  10  31
HETATM   31  C   UNL     1      42.875 -18.365   4.759  1.00  0.00     0.294 C 
HETATM   32  O   UNL     1      41.708 -18.209   5.104  1.00  0.00    -0.259 OA
BRANCH  31  33
HETATM   33  O   UNL     1      43.862 -18.960   5.448  1.00  0.00    -0.314 OA
BRANCH  33  34
HETATM   34  C   UNL     1      43.396 -19.600   6.644  1.00  0.00     0.206 C 
BRANCH  34  35
HETATM   35  C   UNL     1      43.792 -21.039   6.603  1.00  0.00    -0.011 C 
HETATM   36  C   UNL     1      44.568 -21.575   5.652  1.00  0.00     0.009 C 
ENDBRANCH  34  35
ENDBRANCH  33  34
ENDBRANCH  31  33
ENDBRANCH  10  31
TORSDOF 10
ENDMDL
MODEL 6
REMARK VINA RESULT:      -6.5      4.865      8.449
REMARK  10 active torsions:
REMARK  status: ('A' for Active; 'I' for Inactive)
REMARK    1  A    between atoms: C_6  and  C_7 
REMARK    2  A    between atoms: C_7  and  C_8 
REMARK       I    between atoms: C_8  and  N_9 
REMARK    3  A    between atoms: N_9  and  C_10 
REMARK    4  A    between atoms: C_10  and  C_11 
REMARK    5  A    between atoms: C_11  and  N_12 
REMARK    6  A    between atoms: C_19  and  C_20 
REMARK    7  A    between atoms: C_29  and  C_30 
REMARK    8  A    between atoms: C_30  and  O_31 
REMARK    9  A    between atoms: O_31  and  C_32 
REMARK   10  A    between atoms: C_32  and  C_33 
ROOT
HETATM    1  C   UNL     1      40.646 -11.607   3.993  1.00  0.00     0.071 C 
HETATM    2  C   UNL     1      40.308 -12.935   3.364  1.00  0.00     0.048 C 
HETATM    3  N   UNL     1      39.010 -13.003   2.842  1.00  0.00    -0.229 NA
HETATM    4  C   UNL     1      38.871 -13.719   1.770  1.00  0.00     0.170 C 
HETATM    5  N   UNL     1      40.003 -14.667   1.250  1.00  0.00    -0.319 N 
HETATM    6  C   UNL     1      40.130 -14.483  -0.025  1.00  0.00     0.011 C 
HETATM    7  C   UNL     1      40.723 -15.151   2.442  1.00  0.00     0.166 C 
HETATM    8  S   UNL     1      37.637 -13.544   0.584  1.00  0.00    -0.086 SA
HETATM    9  C   UNL     1      38.881 -13.937  -0.711  1.00  0.00     0.135 C 
HETATM   10  C   UNL     1      41.218 -13.909   3.110  1.00  0.00     0.069 C 
ENDROOT
BRANCH   6  11
HETATM   11  C   UNL     1      41.435 -14.724  -0.727  1.00  0.00     0.156 C 
BRANCH  11  12
HETATM   12  C   UNL     1      41.860 -13.552  -1.582  1.00  0.00     0.223 C 
HETATM   13  N   UNL     1      42.081 -12.346  -0.952  1.00  0.00    -0.359 N 
HETATM   14  H   UNL     1      41.918 -12.247   0.050  1.00  0.00     0.162 HD
HETATM   15  O   UNL     1      41.941 -13.676  -2.802  1.00  0.00    -0.273 OA
BRANCH  13  16
HETATM   16  C   UNL     1      42.547 -11.219  -1.758  1.00  0.00     0.150 C 
BRANCH  16  17
HETATM   17  C   UNL     1      43.707 -10.400  -1.166  1.00  0.00     0.254 C 
BRANCH  17  18
HETATM   18  N   UNL     1      43.576  -8.927  -1.518  1.00  0.00    -0.070 N 
HETATM   19  H   UNL     1      44.347  -8.668  -2.150  1.00  0.00     0.279 HD
HETATM   20  C   UNL     1      43.644  -7.989  -0.317  1.00  0.00     0.235 C 
HETATM   21  C   UNL     1      42.230  -7.469  -0.167  1.00  0.00     0.029 C 
HETATM   22  C   UNL     1      41.774  -7.324  -1.603  1.00  0.00     0.029 C 
HETATM   23  C   UNL     1      42.280  -8.595  -2.257  1.00  0.00     0.235 C 
ENDBRANCH  17  18
ENDBRANCH  16  17
ENDBRANCH  13  16
ENDBRANCH  11  12
ENDBRANCH   6  11
BRANCH   7  24
HETATM   24  C   UNL     1      41.588 -16.402   2.385  1.00  0.00    -0.030 A 
HETATM   25  C   UNL     1      41.647 -17.365   3.404  1.00  0.00     0.011 A 
HETATM   26  C   UNL     1      42.565 -18.426   3.350  1.00  0.00     0.024 A 
HETATM   27  C   UNL     1      43.477 -18.514   2.305  1.00  0.00     0.034 A 
HETATM   28 CL   UNL     1      44.618 -19.795   2.264  1.00  0.00    -0.084 Cl
HETATM   29  C   UNL     1      43.487 -17.543   1.314  1.00  0.00     0.024 A 
HETATM   30  C   UNL     1      42.562 -16.496   1.362  1.00  0.00     0.011 A 
ENDBRANCH   7  24
BRANCH  10  31
HETATM   31  C   UNL     1      42.603 -13.512   2.815  1.00  0.00     0.294 C 
HETATM   32  O   UNL     1      42.839 -12.840   1.816  1.00  0.00    -0.259 OA
BRANCH  31  33
HETATM   33  O   UNL     1      43.486 -14.132   3.614  1.00  0.00    -0.314 OA
BRANCH  33  34
HETATM   34  C   UNL     1      43.263 -13.860   5.005  1.00  0.00     0.206 C 
BRANCH  34  35
HETATM   35  C   UNL     1      43.657 -15.061   5.797  1.00  0.00    -0.011 C 
HETATM   36  C   UNL     1      42.788 -15.852   6.441  1.00  0.00     0.009 C 
ENDBRANCH  34  35
ENDBRANCH  33  34
ENDBRANCH  31  33
ENDBRANCH  10  31
TORSDOF 10
ENDMDL
MODEL 7
REMARK VINA RESULT:      -6.4      4.230      6.684
REMARK  10 active torsions:
REMARK  status: ('A' for Active; 'I' for Inactive)
REMARK    1  A    between atoms: C_6  and  C_7 
REMARK    2  A    between atoms: C_7  and  C_8 
REMARK       I    between atoms: C_8  and  N_9 
REMARK    3  A    between atoms: N_9  and  C_10 
REMARK    4  A    between atoms: C_10  and  C_11 
REMARK    5  A    between atoms: C_11  and  N_12 
REMARK    6  A    between atoms: C_19  and  C_20 
REMARK    7  A    between atoms: C_29  and  C_30 
REMARK    8  A    between atoms: C_30  and  O_31 
REMARK    9  A    between atoms: O_31  and  C_32 
REMARK   10  A    between atoms: C_32  and  C_33 
ROOT
HETATM    1  C   UNL     1      39.313 -10.960   0.873  1.00  0.00     0.071 C 
HETATM    2  C   UNL     1      40.363 -11.724   1.641  1.00  0.00     0.048 C 
HETATM    3  N   UNL     1      40.966 -10.986   2.667  1.00  0.00    -0.229 NA
HETATM    4  C   UNL     1      41.295 -11.659   3.725  1.00  0.00     0.170 C 
HETATM    5  N   UNL     1      41.282 -13.225   3.753  1.00  0.00    -0.319 N 
HETATM    6  C   UNL     1      40.697 -13.604   4.844  1.00  0.00     0.011 C 
HETATM    7  C   UNL     1      41.622 -13.670   2.390  1.00  0.00     0.166 C 
HETATM    8  S   UNL     1      41.479 -11.027   5.315  1.00  0.00    -0.086 SA
HETATM    9  C   UNL     1      40.742 -12.578   5.974  1.00  0.00     0.135 C 
HETATM   10  C   UNL     1      40.566 -13.060   1.524  1.00  0.00     0.069 C 
ENDROOT
BRANCH   6  11
HETATM   11  C   UNL     1      39.979 -14.919   4.935  1.00  0.00     0.156 C 
BRANCH  11  12
HETATM   12  C   UNL     1      40.868 -16.032   5.442  1.00  0.00     0.223 C 
HETATM   13  N   UNL     1      41.676 -15.763   6.527  1.00  0.00    -0.359 N 
HETATM   14  H   UNL     1      41.698 -14.830   6.938  1.00  0.00     0.162 HD
HETATM   15  O   UNL     1      40.898 -17.111   4.857  1.00  0.00    -0.273 OA
BRANCH  13  16
HETATM   16  C   UNL     1      42.497 -16.846   7.063  1.00  0.00     0.150 C 
BRANCH  16  17
HETATM   17  C   UNL     1      43.999 -16.781   6.734  1.00  0.00     0.254 C 
BRANCH  17  18
HETATM   18  N   UNL     1      44.653 -18.144   6.882  1.00  0.00    -0.070 N 
HETATM   19  H   UNL     1      45.502 -18.043   7.458  1.00  0.00     0.279 HD
HETATM   20  C   UNL     1      45.080 -18.779   5.562  1.00  0.00     0.235 C 
HETATM   21  C   UNL     1      44.110 -19.925   5.367  1.00  0.00     0.029 C 
HETATM   22  C   UNL     1      43.913 -20.438   6.776  1.00  0.00     0.029 C 
HETATM   23  C   UNL     1      43.768 -19.168   7.591  1.00  0.00     0.235 C 
ENDBRANCH  17  18
ENDBRANCH  16  17
ENDBRANCH  13  16
ENDBRANCH  11  12
ENDBRANCH   6  11
BRANCH   7  24
HETATM   24  C   UNL     1      42.126 -15.081   2.125  1.00  0.00    -0.030 A 
HETATM   25  C   UNL     1      41.359 -16.090   1.522  1.00  0.00     0.011 A 
HETATM   26  C   UNL     1      41.835 -17.407   1.428  1.00  0.00     0.024 A 
HETATM   27  C   UNL     1      43.062 -17.753   1.982  1.00  0.00     0.034 A 
HETATM   28 CL   UNL     1      43.622 -19.373   1.893  1.00  0.00    -0.084 Cl
HETATM   29  C   UNL     1      43.816 -16.793   2.641  1.00  0.00     0.024 A 
HETATM   30  C   UNL     1      43.347 -15.478   2.720  1.00  0.00     0.011 A 
ENDBRANCH   7  24
BRANCH  10  31
HETATM   31  C   UNL     1      39.419 -13.916   1.185  1.00  0.00     0.294 C 
HETATM   32  O   UNL     1      38.516 -14.066   2.001  1.00  0.00    -0.259 OA
BRANCH  31  33
HETATM   33  O   UNL     1      39.621 -14.603   0.049  1.00  0.00    -0.314 OA
BRANCH  33  34
HETATM   34  C   UNL     1      39.486 -13.788  -1.124  1.00  0.00     0.206 C 
BRANCH  34  35
HETATM   35  C   UNL     1      40.428 -14.289  -2.167  1.00  0.00    -0.011 C 
HETATM   36  C   UNL     1      40.913 -15.537  -2.200  1.00  0.00     0.009 C 
ENDBRANCH  34  35
ENDBRANCH  33  34
ENDBRANCH  31  33
ENDBRANCH  10  31
TORSDOF 10
ENDMDL
MODEL 8
REMARK VINA RESULT:      -6.4      4.564      8.623
REMARK  10 active torsions:
REMARK  status: ('A' for Active; 'I' for Inactive)
REMARK    1  A    between atoms: C_6  and  C_7 
REMARK    2  A    between atoms: C_7  and  C_8 
REMARK       I    between atoms: C_8  and  N_9 
REMARK    3  A    between atoms: N_9  and  C_10 
REMARK    4  A    between atoms: C_10  and  C_11 
REMARK    5  A    between atoms: C_11  and  N_12 
REMARK    6  A    between atoms: C_19  and  C_20 
REMARK    7  A    between atoms: C_29  and  C_30 
REMARK    8  A    between atoms: C_30  and  O_31 
REMARK    9  A    between atoms: O_31  and  C_32 
REMARK   10  A    between atoms: C_32  and  C_33 
ROOT
HETATM    1  C   UNL     1      40.639 -10.075   3.004  1.00  0.00     0.071 C 
HETATM    2  C   UNL     1      39.999 -11.440   3.019  1.00  0.00     0.048 C 
HETATM    3  N   UNL     1      38.707 -11.468   2.480  1.00  0.00    -0.229 NA
HETATM    4  C   UNL     1      38.388 -12.550   1.840  1.00  0.00     0.170 C 
HETATM    5  N   UNL     1      39.268 -13.843   1.900  1.00  0.00    -0.319 N 
HETATM    6  C   UNL     1      39.403 -14.295   0.694  1.00  0.00     0.011 C 
HETATM    7  C   UNL     1      39.889 -13.864   3.236  1.00  0.00     0.166 C 
HETATM    8  S   UNL     1      37.196 -12.686   0.606  1.00  0.00    -0.086 SA
HETATM    9  C   UNL     1      38.291 -13.879  -0.265  1.00  0.00     0.135 C 
HETATM   10  C   UNL     1      40.664 -12.587   3.308  1.00  0.00     0.069 C 
ENDROOT
BRANCH   6  11
HETATM   11  C   UNL     1      40.605 -15.098   0.287  1.00  0.00     0.156 C 
BRANCH  11  12
HETATM   12  C   UNL     1      41.200 -14.629  -1.021  1.00  0.00     0.223 C 
HETATM   13  N   UNL     1      41.904 -13.443  -1.016  1.00  0.00    -0.359 N 
HETATM   14  H   UNL     1      41.977 -12.887  -0.164  1.00  0.00     0.162 HD
HETATM   15  O   UNL     1      41.002 -15.266  -2.052  1.00  0.00    -0.273 OA
BRANCH  13  16
HETATM   16  C   UNL     1      42.534 -13.006  -2.261  1.00  0.00     0.150 C 
BRANCH  16  17
HETATM   17  C   UNL     1      41.892 -11.791  -2.951  1.00  0.00     0.254 C 
BRANCH  17  18
HETATM   18  N   UNL     1      42.862 -10.623  -3.020  1.00  0.00    -0.070 N 
HETATM   19  H   UNL     1      43.679 -10.904  -3.581  1.00  0.00     0.279 HD
HETATM   20  C   UNL     1      43.385 -10.164  -1.662  1.00  0.00     0.235 C 
HETATM   21  C   UNL     1      42.716  -8.826  -1.435  1.00  0.00     0.029 C 
HETATM   22  C   UNL     1      42.695  -8.223  -2.823  1.00  0.00     0.029 C 
HETATM   23  C   UNL     1      42.274  -9.387  -3.700  1.00  0.00     0.235 C 
ENDBRANCH  17  18
ENDBRANCH  16  17
ENDBRANCH  13  16
ENDBRANCH  11  12
ENDBRANCH   6  11
BRANCH   7  24
HETATM   24  C   UNL     1      40.453 -15.150   3.822  1.00  0.00    -0.030 A 
HETATM   25  C   UNL     1      40.478 -15.445   5.195  1.00  0.00     0.011 A 
HETATM   26  C   UNL     1      41.132 -16.587   5.681  1.00  0.00     0.024 A 
HETATM   27  C   UNL     1      41.819 -17.429   4.812  1.00  0.00     0.034 A 
HETATM   28 CL   UNL     1      42.645 -18.805   5.420  1.00  0.00    -0.084 Cl
HETATM   29  C   UNL     1      41.866 -17.131   3.458  1.00  0.00     0.024 A 
HETATM   30  C   UNL     1      41.201 -16.001   2.974  1.00  0.00     0.011 A 
ENDBRANCH   7  24
BRANCH  10  31
HETATM   31  C   UNL     1      42.095 -12.669   2.981  1.00  0.00     0.294 C 
HETATM   32  O   UNL     1      42.439 -12.832   1.815  1.00  0.00    -0.259 OA
BRANCH  31  33
HETATM   33  O   UNL     1      42.860 -12.750   4.081  1.00  0.00    -0.314 OA
BRANCH  33  34
HETATM   34  C   UNL     1      43.841 -13.794   3.999  1.00  0.00     0.206 C 
BRANCH  34  35
HETATM   35  C   UNL     1      44.041 -14.372   5.360  1.00  0.00    -0.011 C 
HETATM   36  C   UNL     1      43.662 -13.768   6.493  1.00  0.00     0.009 C 
ENDBRANCH  34  35
ENDBRANCH  33  34
ENDBRANCH  31  33
ENDBRANCH  10  31
TORSDOF 10
ENDMDL
MODEL 9
REMARK VINA RESULT:      -6.1      4.972      7.676
REMARK  10 active torsions:
REMARK  status: ('A' for Active; 'I' for Inactive)
REMARK    1  A    between atoms: C_6  and  C_7 
REMARK    2  A    between atoms: C_7  and  C_8 
REMARK       I    between atoms: C_8  and  N_9 
REMARK    3  A    between atoms: N_9  and  C_10 
REMARK    4  A    between atoms: C_10  and  C_11 
REMARK    5  A    between atoms: C_11  and  N_12 
REMARK    6  A    between atoms: C_19  and  C_20 
REMARK    7  A    between atoms: C_29  and  C_30 
REMARK    8  A    between atoms: C_30  and  O_31 
REMARK    9  A    between atoms: O_31  and  C_32 
REMARK   10  A    between atoms: C_32  and  C_33 
ROOT
HETATM    1  C   UNL     1      38.943 -12.008   4.230  1.00  0.00     0.071 C 
HETATM    2  C   UNL     1      40.200 -12.078   3.400  1.00  0.00     0.048 C 
HETATM    3  N   UNL     1      41.372 -12.210   4.155  1.00  0.00    -0.229 NA
HETATM    4  C   UNL     1      42.308 -12.930   3.619  1.00  0.00     0.170 C 
HETATM    5  N   UNL     1      42.253 -13.388   2.123  1.00  0.00    -0.319 N 
HETATM    6  C   UNL     1      42.558 -14.645   2.074  1.00  0.00     0.011 C 
HETATM    7  C   UNL     1      41.548 -12.323   1.386  1.00  0.00     0.166 C 
HETATM    8  S   UNL     1      43.557 -13.763   4.461  1.00  0.00    -0.086 SA
HETATM    9  C   UNL     1      43.407 -15.135   3.246  1.00  0.00     0.135 C 
HETATM   10  C   UNL     1      40.213 -12.229   2.052  1.00  0.00     0.069 C 
ENDROOT
BRANCH   6  11
HETATM   11  C   UNL     1      42.043 -15.537   0.982  1.00  0.00     0.156 C 
BRANCH  11  12
HETATM   12  C   UNL     1      41.791 -16.950   1.456  1.00  0.00     0.223 C 
HETATM   13  N   UNL     1      42.841 -17.842   1.399  1.00  0.00    -0.359 N 
HETATM   14  H   UNL     1      43.740 -17.560   1.008  1.00  0.00     0.162 HD
HETATM   15  O   UNL     1      40.668 -17.286   1.820  1.00  0.00    -0.273 OA
BRANCH  13  16
HETATM   16  C   UNL     1      42.628 -19.195   1.908  1.00  0.00     0.150 C 
BRANCH  16  17
HETATM   17  C   UNL     1      43.891 -19.962   2.336  1.00  0.00     0.254 C 
BRANCH  17  18
HETATM   18  N   UNL     1      44.429 -19.440   3.658  1.00  0.00    -0.070 N 
HETATM   19  H   UNL     1      45.064 -18.651   3.467  1.00  0.00     0.279 HD
HETATM   20  C   UNL     1      45.216 -20.468   4.463  1.00  0.00     0.235 C 
HETATM   21  C   UNL     1      44.319 -20.793   5.637  1.00  0.00     0.029 C 
HETATM   22  C   UNL     1      43.687 -19.455   5.954  1.00  0.00     0.029 C 
HETATM   23  C   UNL     1      43.339 -18.903   4.585  1.00  0.00     0.235 C 
ENDBRANCH  17  18
ENDBRANCH  16  17
ENDBRANCH  13  16
ENDBRANCH  11  12
ENDBRANCH   6  11
BRANCH   7  24
HETATM   24  C   UNL     1      41.676 -12.195  -0.125  1.00  0.00    -0.030 A 
HETATM   25  C   UNL     1      42.011 -13.257  -0.979  1.00  0.00     0.011 A 
HETATM   26  C   UNL     1      42.244 -13.045  -2.347  1.00  0.00     0.024 A 
HETATM   27  C   UNL     1      42.198 -11.760  -2.877  1.00  0.00     0.034 A 
HETATM   28 CL   UNL     1      42.518 -11.505  -4.544  1.00  0.00    -0.084 Cl
HETATM   29  C   UNL     1      41.932 -10.681  -2.047  1.00  0.00     0.024 A 
HETATM   30  C   UNL     1      41.685 -10.897  -0.688  1.00  0.00     0.011 A 
ENDBRANCH   7  24
BRANCH  10  31
HETATM   31  C   UNL     1      39.111 -12.970   1.420  1.00  0.00     0.294 C 
HETATM   32  O   UNL     1      38.998 -14.174   1.624  1.00  0.00    -0.259 OA
BRANCH  31  33
HETATM   33  O   UNL     1      38.461 -12.228   0.509  1.00  0.00    -0.314 OA
BRANCH  33  34
HETATM   34  C   UNL     1      38.013 -12.997  -0.616  1.00  0.00     0.206 C 
BRANCH  34  35
HETATM   35  C   UNL     1      37.974 -12.112  -1.817  1.00  0.00    -0.011 C 
HETATM   36  C   UNL     1      38.625 -12.370  -2.959  1.00  0.00     0.009 C 
ENDBRANCH  34  35
ENDBRANCH  33  34
ENDBRANCH  31  33
ENDBRANCH  10  31
TORSDOF 10
ENDMDL
MODEL 10
REMARK VINA RESULT:      -5.9      3.229      5.191
REMARK  10 active torsions:
REMARK  status: ('A' for Active; 'I' for Inactive)
REMARK    1  A    between atoms: C_6  and  C_7 
REMARK    2  A    between atoms: C_7  and  C_8 
REMARK       I    between atoms: C_8  and  N_9 
REMARK    3  A    between atoms: N_9  and  C_10 
REMARK    4  A    between atoms: C_10  and  C_11 
REMARK    5  A    between atoms: C_11  and  N_12 
REMARK    6  A    between atoms: C_19  and  C_20 
REMARK    7  A    between atoms: C_29  and  C_30 
REMARK    8  A    between atoms: C_30  and  O_31 
REMARK    9  A    between atoms: O_31  and  C_32 
REMARK   10  A    between atoms: C_32  and  C_33 
ROOT
HETATM    1  C   UNL     1      42.452 -17.146   1.949  1.00  0.00     0.071 C 
HETATM    2  C   UNL     1      42.496 -15.768   2.559  1.00  0.00     0.048 C 
HETATM    3  N   UNL     1      42.050 -14.753   1.703  1.00  0.00    -0.229 NA
HETATM    4  C   UNL     1      41.422 -13.772   2.273  1.00  0.00     0.170 C 
HETATM    5  N   UNL     1      41.404 -13.586   3.828  1.00  0.00    -0.319 N 
HETATM    6  C   UNL     1      40.187 -13.335   4.190  1.00  0.00     0.011 C 
HETATM    7  C   UNL     1      42.693 -14.101   4.325  1.00  0.00     0.166 C 
HETATM    8  S   UNL     1      40.275 -12.729   1.526  1.00  0.00    -0.086 SA
HETATM    9  C   UNL     1      39.314 -12.728   3.094  1.00  0.00     0.135 C 
HETATM   10  C   UNL     1      42.724 -15.527   3.875  1.00  0.00     0.069 C 
ENDROOT
BRANCH   6  11
HETATM   11  C   UNL     1      39.685 -13.692   5.560  1.00  0.00     0.156 C 
BRANCH  11  12
HETATM   12  C   UNL     1      39.291 -12.478   6.368  1.00  0.00     0.223 C 
HETATM   13  N   UNL     1      39.449 -12.540   7.737  1.00  0.00    -0.359 N 
HETATM   14  H   UNL     1      39.780 -13.395   8.182  1.00  0.00     0.162 HD
HETATM   15  O   UNL     1      38.793 -11.502   5.812  1.00  0.00    -0.273 OA
BRANCH  13  16
HETATM   16  C   UNL     1      39.125 -11.352   8.525  1.00  0.00     0.150 C 
BRANCH  16  17
HETATM   17  C   UNL     1      40.016 -11.093   9.752  1.00  0.00     0.254 C 
BRANCH  17  18
HETATM   18  N   UNL     1      39.833  -9.678  10.275  1.00  0.00    -0.070 N 
HETATM   19  H   UNL     1      40.122  -9.015   9.541  1.00  0.00     0.279 HD
HETATM   20  C   UNL     1      40.657  -9.360  11.519  1.00  0.00     0.235 C 
HETATM   21  C   UNL     1      39.635  -9.268  12.632  1.00  0.00     0.029 C 
HETATM   22  C   UNL     1      38.453  -8.617  11.946  1.00  0.00     0.029 C 
HETATM   23  C   UNL     1      38.382  -9.342  10.616  1.00  0.00     0.235 C 
ENDBRANCH  17  18
ENDBRANCH  16  17
ENDBRANCH  13  16
ENDBRANCH  11  12
ENDBRANCH   6  11
BRANCH   7  24
HETATM   24  C   UNL     1      43.222 -13.706   5.696  1.00  0.00    -0.030 A 
HETATM   25  C   UNL     1      42.717 -12.641   6.457  1.00  0.00     0.011 A 
HETATM   26  C   UNL     1      43.336 -12.244   7.653  1.00  0.00     0.024 A 
HETATM   27  C   UNL     1      44.501 -12.868   8.083  1.00  0.00     0.034 A 
HETATM   28 CL   UNL     1      45.270 -12.354   9.529  1.00  0.00    -0.084 Cl
HETATM   29  C   UNL     1      45.061 -13.882   7.321  1.00  0.00     0.024 A 
HETATM   30  C   UNL     1      44.435 -14.287   6.138  1.00  0.00     0.011 A 
ENDBRANCH   7  24
BRANCH  10  31
HETATM   31  C   UNL     1      42.294 -16.535   4.856  1.00  0.00     0.294 C 
HETATM   32  O   UNL     1      41.152 -16.495   5.300  1.00  0.00    -0.259 OA
BRANCH  31  33
HETATM   33  O   UNL     1      43.321 -17.280   5.296  1.00  0.00    -0.314 OA
BRANCH  33  34
HETATM   34  C   UNL     1      42.973 -18.662   5.462  1.00  0.00     0.206 C 
BRANCH  34  35
HETATM   35  C   UNL     1      44.227 -19.463   5.564  1.00  0.00    -0.011 C 
HETATM   36  C   UNL     1      44.848 -20.019   4.515  1.00  0.00     0.009 C 
ENDBRANCH  34  35
ENDBRANCH  33  34
ENDBRANCH  31  33
ENDBRANCH  10  31
TORSDOF 10
ENDMDL
