MODEL 1
REMARK VINA RESULT:      -9.9      0.000      0.000
REMARK  6 active torsions:
REMARK  status: ('A' for Active; 'I' for Inactive)
REMARK    1  A    between atoms: C_9  and  O_10 
REMARK    2  A    between atoms: O_10  and  C_11 
REMARK    3  A    between atoms: C_11  and  C_12 
REMARK       I    between atoms: C_12  and  N_13 
REMARK    4  A    between atoms: N_13  and  C_14 
REMARK    5  A    between atoms: N_15  and  C_16 
REMARK    6  A    between atoms: C_27  and  C_28 
ROOT
HETATM    1  C   UNL     1      40.424 -13.931   1.835  1.00  0.00     0.152 A 
HETATM    2  N   UNL     1      40.418 -13.665   3.197  1.00  0.00    -0.044 N 
HETATM    3  N   UNL     1      39.554 -12.654   3.528  1.00  0.00    -0.150 NA
HETATM    4  C   UNL     1      39.007 -12.291   2.362  1.00  0.00     0.099 A 
HETATM    5  C   UNL     1      39.537 -13.030   1.285  1.00  0.00     0.086 A 
ENDROOT
BRANCH   1   6
HETATM    6  N   UNL     1      41.178 -14.944   1.252  1.00  0.00    -0.309 N 
HETATM    7  C   UNL     1      40.863 -16.283   1.405  1.00  0.00     0.247 C 
HETATM    8  O   UNL     1      39.840 -16.722   1.931  1.00  0.00    -0.271 OA
HETATM    9  H   UNL     1      42.002 -14.690   0.701  1.00  0.00     0.170 HD
BRANCH   7  10
HETATM   10  C   UNL     1      41.972 -17.242   0.978  1.00  0.00     0.278 C 
BRANCH  10  11
HETATM   11  O   UNL     1      43.236 -16.995   1.576  1.00  0.00    -0.342 OA
BRANCH  11  12
HETATM   12  C   UNL     1      43.629 -17.940   2.495  1.00  0.00     0.070 A 
HETATM   13  C   UNL     1      43.901 -17.690   3.841  1.00  0.00     0.037 A 
HETATM   14  C   UNL     1      44.279 -18.733   4.693  1.00  0.00     0.015 A 
HETATM   15  C   UNL     1      44.395 -20.044   4.214  1.00  0.00    -0.026 A 
HETATM   16  C   UNL     1      44.760 -21.098   5.066  1.00  0.00     0.012 A 
HETATM   17  C   UNL     1      44.134 -20.304   2.849  1.00  0.00    -0.023 A 
HETATM   18  C   UNL     1      44.869 -22.401   4.579  1.00  0.00     0.001 A 
HETATM   19  C   UNL     1      44.614 -22.662   3.237  1.00  0.00     0.001 A 
HETATM   20  C   UNL     1      44.251 -21.623   2.377  1.00  0.00     0.012 A 
HETATM   21  C   UNL     1      43.762 -19.242   2.004  1.00  0.00     0.049 A 
ENDBRANCH  11  12
ENDBRANCH  10  11
ENDBRANCH   7  10
ENDBRANCH   1   6
BRANCH   2  22
HETATM   22  C   UNL     1      41.145 -14.296   4.224  1.00  0.00     0.732 A 
HETATM   23  N   UNL     1      42.346 -13.946   4.584  1.00  0.00    -0.067 NA
HETATM   24  C   UNL     1      42.861 -14.701   5.602  1.00  0.00     0.065 A 
HETATM   25  C   UNL     1      42.248 -15.711   6.220  1.00  0.00     0.036 A 
HETATM   26  C   UNL     1      44.222 -14.474   6.170  1.00  0.00     0.061 C 
HETATM   27  C   UNL     1      43.058 -16.338   7.288  1.00  0.00     0.047 C 
HETATM   28  C   UNL     1      40.900 -16.093   5.804  1.00  0.00     0.268 A 
HETATM   29  C   UNL     1      44.444 -15.740   7.013  1.00  0.00     0.011 C 
HETATM   30  O   UNL     1      40.280 -17.008   6.324  1.00  0.00    -0.267 OA
HETATM   31  N   UNL     1      40.417 -15.324   4.784  1.00  0.00    -0.152 N 
HETATM   32  H   UNL     1      39.487 -15.515   4.425  1.00  0.00     0.188 HD
ENDBRANCH   2  22
BRANCH   4  33
HETATM   33  C   UNL     1      37.943 -11.236   2.276  1.00  0.00     0.035 A 
HETATM   34  S   UNL     1      36.741 -11.176   1.059  1.00  0.00    -0.100 SA
HETATM   35  C   UNL     1      36.022  -9.784   1.746  1.00  0.00     0.050 A 
HETATM   36  C   UNL     1      36.687  -9.365   2.876  1.00  0.00     0.008 A 
HETATM   37  C   UNL     1      37.800 -10.204   3.182  1.00  0.00     0.022 A 
ENDBRANCH   4  33
TORSDOF 6
ENDMDL
MODEL 2
REMARK VINA RESULT:      -9.8      4.960      9.850
REMARK  6 active torsions:
REMARK  status: ('A' for Active; 'I' for Inactive)
REMARK    1  A    between atoms: C_9  and  O_10 
REMARK    2  A    between atoms: O_10  and  C_11 
REMARK    3  A    between atoms: C_11  and  C_12 
REMARK       I    between atoms: C_12  and  N_13 
REMARK    4  A    between atoms: N_13  and  C_14 
REMARK    5  A    between atoms: N_15  and  C_16 
REMARK    6  A    between atoms: C_27  and  C_28 
ROOT
HETATM    1  C   UNL     1      43.912 -15.690   6.768  1.00  0.00     0.152 A 
HETATM    2  N   UNL     1      42.933 -15.780   5.787  1.00  0.00    -0.044 N 
HETATM    3  N   UNL     1      42.900 -17.015   5.194  1.00  0.00    -0.150 NA
HETATM    4  C   UNL     1      43.862 -17.707   5.816  1.00  0.00     0.099 A 
HETATM    5  C   UNL     1      44.534 -16.920   6.774  1.00  0.00     0.086 A 
ENDROOT
BRANCH   1   6
HETATM    6  N   UNL     1      44.114 -14.558   7.550  1.00  0.00    -0.309 N 
HETATM    7  C   UNL     1      45.127 -13.650   7.292  1.00  0.00     0.247 C 
HETATM    8  O   UNL     1      45.853 -13.651   6.297  1.00  0.00    -0.271 OA
HETATM    9  H   UNL     1      43.499 -14.397   8.352  1.00  0.00     0.170 HD
BRANCH   7  10
HETATM   10  C   UNL     1      45.395 -12.668   8.429  1.00  0.00     0.278 C 
BRANCH  10  11
HETATM   11  O   UNL     1      44.606 -12.874   9.592  1.00  0.00    -0.342 OA
BRANCH  11  12
HETATM   12  C   UNL     1      43.900 -11.769  10.007  1.00  0.00     0.070 A 
HETATM   13  C   UNL     1      43.028 -11.024   9.210  1.00  0.00     0.037 A 
HETATM   14  C   UNL     1      42.348  -9.924   9.741  1.00  0.00     0.015 A 
HETATM   15  C   UNL     1      42.529  -9.546  11.077  1.00  0.00    -0.026 A 
HETATM   16  C   UNL     1      41.840  -8.451  11.621  1.00  0.00     0.012 A 
HETATM   17  C   UNL     1      43.421 -10.284  11.887  1.00  0.00    -0.023 A 
HETATM   18  C   UNL     1      42.025  -8.084  12.955  1.00  0.00     0.001 A 
HETATM   19  C   UNL     1      42.901  -8.808  13.756  1.00  0.00     0.001 A 
HETATM   20  C   UNL     1      43.596  -9.899  13.228  1.00  0.00     0.012 A 
HETATM   21  C   UNL     1      44.103 -11.385  11.336  1.00  0.00     0.049 A 
ENDBRANCH  11  12
ENDBRANCH  10  11
ENDBRANCH   7  10
ENDBRANCH   1   6
BRANCH   2  22
HETATM   22  C   UNL     1      42.007 -14.804   5.371  1.00  0.00     0.732 A 
HETATM   23  N   UNL     1      41.919 -13.617   5.896  1.00  0.00    -0.067 NA
HETATM   24  C   UNL     1      40.946 -12.835   5.336  1.00  0.00     0.065 A 
HETATM   25  C   UNL     1      40.130 -13.186   4.341  1.00  0.00     0.036 A 
HETATM   26  C   UNL     1      40.670 -11.440   5.786  1.00  0.00     0.061 C 
HETATM   27  C   UNL     1      39.178 -12.124   3.946  1.00  0.00     0.047 C 
HETATM   28  C   UNL     1      40.241 -14.524   3.762  1.00  0.00     0.268 A 
HETATM   29  C   UNL     1      39.325 -11.133   5.108  1.00  0.00     0.011 C 
HETATM   30  O   UNL     1      39.526 -14.912   2.851  1.00  0.00    -0.267 OA
HETATM   31  N   UNL     1      41.217 -15.279   4.345  1.00  0.00    -0.152 N 
HETATM   32  H   UNL     1      41.368 -16.226   4.011  1.00  0.00     0.188 HD
ENDBRANCH   2  22
BRANCH   4  33
HETATM   33  C   UNL     1      44.128 -19.151   5.509  1.00  0.00     0.035 A 
HETATM   34  S   UNL     1      44.652 -19.734   3.988  1.00  0.00    -0.100 SA
HETATM   35  C   UNL     1      44.721 -21.346   4.555  1.00  0.00     0.050 A 
HETATM   36  C   UNL     1      44.346 -21.444   5.875  1.00  0.00     0.008 A 
HETATM   37  C   UNL     1      44.000 -20.174   6.427  1.00  0.00     0.022 A 
ENDBRANCH   4  33
TORSDOF 6
ENDMDL
MODEL 3
REMARK VINA RESULT:      -9.8      1.078      1.521
REMARK  6 active torsions:
REMARK  status: ('A' for Active; 'I' for Inactive)
REMARK    1  A    between atoms: C_9  and  O_10 
REMARK    2  A    between atoms: O_10  and  C_11 
REMARK    3  A    between atoms: C_11  and  C_12 
REMARK       I    between atoms: C_12  and  N_13 
REMARK    4  A    between atoms: N_13  and  C_14 
REMARK    5  A    between atoms: N_15  and  C_16 
REMARK    6  A    between atoms: C_27  and  C_28 
ROOT
HETATM    1  C   UNL     1      40.660 -13.833   2.088  1.00  0.00     0.152 A 
HETATM    2  N   UNL     1      40.733 -13.622   3.459  1.00  0.00    -0.044 N 
HETATM    3  N   UNL     1      39.914 -12.606   3.874  1.00  0.00    -0.150 NA
HETATM    4  C   UNL     1      39.316 -12.182   2.755  1.00  0.00     0.099 A 
HETATM    5  C   UNL     1      39.768 -12.890   1.623  1.00  0.00     0.086 A 
ENDROOT
BRANCH   1   6
HETATM    6  N   UNL     1      41.356 -14.840   1.427  1.00  0.00    -0.309 N 
HETATM    7  C   UNL     1      40.928 -16.156   1.422  1.00  0.00     0.247 C 
HETATM    8  O   UNL     1      39.851 -16.560   1.860  1.00  0.00    -0.271 OA
HETATM    9  H   UNL     1      42.221 -14.600   0.936  1.00  0.00     0.170 HD
BRANCH   7  10
HETATM   10  C   UNL     1      41.974 -17.155   0.933  1.00  0.00     0.278 C 
BRANCH  10  11
HETATM   11  O   UNL     1      43.275 -16.965   1.471  1.00  0.00    -0.342 OA
BRANCH  11  12
HETATM   12  C   UNL     1      43.662 -17.919   2.382  1.00  0.00     0.070 A 
HETATM   13  C   UNL     1      43.968 -17.675   3.723  1.00  0.00     0.037 A 
HETATM   14  C   UNL     1      44.336 -18.726   4.568  1.00  0.00     0.015 A 
HETATM   15  C   UNL     1      44.408 -20.040   4.089  1.00  0.00    -0.026 A 
HETATM   16  C   UNL     1      44.764 -21.102   4.935  1.00  0.00     0.012 A 
HETATM   17  C   UNL     1      44.114 -20.295   2.731  1.00  0.00    -0.023 A 
HETATM   18  C   UNL     1      44.828 -22.408   4.449  1.00  0.00     0.001 A 
HETATM   19  C   UNL     1      44.539 -22.665   3.112  1.00  0.00     0.001 A 
HETATM   20  C   UNL     1      44.186 -21.617   2.258  1.00  0.00     0.012 A 
HETATM   21  C   UNL     1      43.751 -19.225   1.891  1.00  0.00     0.049 A 
ENDBRANCH  11  12
ENDBRANCH  10  11
ENDBRANCH   7  10
ENDBRANCH   1   6
BRANCH   2  22
HETATM   22  C   UNL     1      41.497 -14.312   4.419  1.00  0.00     0.732 A 
HETATM   23  N   UNL     1      41.094 -15.389   5.029  1.00  0.00    -0.067 NA
HETATM   24  C   UNL     1      42.000 -15.889   5.925  1.00  0.00     0.065 A 
HETATM   25  C   UNL     1      43.202 -15.379   6.196  1.00  0.00     0.036 A 
HETATM   26  C   UNL     1      41.743 -17.115   6.735  1.00  0.00     0.061 C 
HETATM   27  C   UNL     1      43.959 -16.143   7.211  1.00  0.00     0.047 C 
HETATM   28  C   UNL     1      43.640 -14.170   5.502  1.00  0.00     0.268 A 
HETATM   29  C   UNL     1      42.870 -17.061   7.781  1.00  0.00     0.011 C 
HETATM   30  O   UNL     1      44.727 -13.649   5.701  1.00  0.00    -0.267 OA
HETATM   31  N   UNL     1      42.713 -13.694   4.620  1.00  0.00    -0.152 N 
HETATM   32  H   UNL     1      42.927 -12.854   4.091  1.00  0.00     0.188 HD
ENDBRANCH   2  22
BRANCH   4  33
HETATM   33  C   UNL     1      38.276 -11.100   2.767  1.00  0.00     0.035 A 
HETATM   34  S   UNL     1      37.145 -10.835   1.512  1.00  0.00    -0.100 SA
HETATM   35  C   UNL     1      36.413  -9.539   2.355  1.00  0.00     0.050 A 
HETATM   36  C   UNL     1      37.022  -9.304   3.567  1.00  0.00     0.008 A 
HETATM   37  C   UNL     1      38.102 -10.207   3.805  1.00  0.00     0.022 A 
ENDBRANCH   4  33
TORSDOF 6
ENDMDL
MODEL 4
REMARK VINA RESULT:      -9.6      3.629      7.413
REMARK  6 active torsions:
REMARK  status: ('A' for Active; 'I' for Inactive)
REMARK    1  A    between atoms: C_9  and  O_10 
REMARK    2  A    between atoms: O_10  and  C_11 
REMARK    3  A    between atoms: C_11  and  C_12 
REMARK       I    between atoms: C_12  and  N_13 
REMARK    4  A    between atoms: N_13  and  C_14 
REMARK    5  A    between atoms: N_15  and  C_16 
REMARK    6  A    between atoms: C_27  and  C_28 
ROOT
HETATM    1  C   UNL     1      41.399 -14.472   4.954  1.00  0.00     0.152 A 
HETATM    2  N   UNL     1      41.432 -15.557   4.088  1.00  0.00    -0.044 N 
HETATM    3  N   UNL     1      40.556 -15.419   3.044  1.00  0.00    -0.150 NA
HETATM    4  C   UNL     1      39.975 -14.231   3.254  1.00  0.00     0.099 A 
HETATM    5  C   UNL     1      40.442 -13.625   4.438  1.00  0.00     0.086 A 
ENDROOT
BRANCH   1   6
HETATM    6  N   UNL     1      42.230 -14.348   6.062  1.00  0.00    -0.309 N 
HETATM    7  C   UNL     1      43.566 -14.002   5.952  1.00  0.00     0.247 C 
HETATM    8  O   UNL     1      44.128 -13.636   4.920  1.00  0.00    -0.271 OA
HETATM    9  H   UNL     1      41.841 -14.529   6.992  1.00  0.00     0.170 HD
BRANCH   7  10
HETATM   10  C   UNL     1      44.381 -14.233   7.222  1.00  0.00     0.278 C 
BRANCH  10  11
HETATM   11  O   UNL     1      45.322 -13.211   7.520  1.00  0.00    -0.342 OA
BRANCH  11  12
HETATM   12  C   UNL     1      45.008 -12.447   8.619  1.00  0.00     0.070 A 
HETATM   13  C   UNL     1      45.799 -12.318   9.762  1.00  0.00     0.037 A 
HETATM   14  C   UNL     1      45.389 -11.499  10.819  1.00  0.00     0.015 A 
HETATM   15  C   UNL     1      44.178 -10.797  10.754  1.00  0.00    -0.026 A 
HETATM   16  C   UNL     1      43.766  -9.963  11.804  1.00  0.00     0.012 A 
HETATM   17  C   UNL     1      43.364 -10.934   9.607  1.00  0.00    -0.023 A 
HETATM   18  C   UNL     1      42.560  -9.265  11.728  1.00  0.00     0.001 A 
HETATM   19  C   UNL     1      41.755  -9.396  10.601  1.00  0.00     0.001 A 
HETATM   20  C   UNL     1      42.152 -10.224   9.549  1.00  0.00     0.012 A 
HETATM   21  C   UNL     1      43.788 -11.767   8.555  1.00  0.00     0.049 A 
ENDBRANCH  11  12
ENDBRANCH  10  11
ENDBRANCH   7  10
ENDBRANCH   1   6
BRANCH   2  22
HETATM   22  C   UNL     1      42.237 -16.711   4.147  1.00  0.00     0.732 A 
HETATM   23  N   UNL     1      42.355 -17.459   5.205  1.00  0.00    -0.067 NA
HETATM   24  C   UNL     1      43.192 -18.528   5.037  1.00  0.00     0.065 A 
HETATM   25  C   UNL     1      43.855 -18.840   3.922  1.00  0.00     0.036 A 
HETATM   26  C   UNL     1      43.474 -19.514   6.120  1.00  0.00     0.061 C 
HETATM   27  C   UNL     1      44.684 -20.060   4.042  1.00  0.00     0.047 C 
HETATM   28  C   UNL     1      43.712 -17.990   2.742  1.00  0.00     0.268 A 
HETATM   29  C   UNL     1      44.680 -20.286   5.560  1.00  0.00     0.011 C 
HETATM   30  O   UNL     1      44.289 -18.215   1.689  1.00  0.00    -0.267 OA
HETATM   31  N   UNL     1      42.874 -16.931   2.945  1.00  0.00    -0.152 N 
HETATM   32  H   UNL     1      42.714 -16.281   2.181  1.00  0.00     0.188 HD
ENDBRANCH   2  22
BRANCH   4  33
HETATM   33  C   UNL     1      38.974 -13.654   2.296  1.00  0.00     0.035 A 
HETATM   34  S   UNL     1      38.533 -12.002   2.242  1.00  0.00    -0.100 SA
HETATM   35  C   UNL     1      37.467 -12.261   0.929  1.00  0.00     0.050 A 
HETATM   36  C   UNL     1      37.439 -13.582   0.542  1.00  0.00     0.008 A 
HETATM   37  C   UNL     1      38.309 -14.389   1.335  1.00  0.00     0.022 A 
ENDBRANCH   4  33
TORSDOF 6
ENDMDL
MODEL 5
REMARK VINA RESULT:      -9.4      4.983      9.807
REMARK  6 active torsions:
REMARK  status: ('A' for Active; 'I' for Inactive)
REMARK    1  A    between atoms: C_9  and  O_10 
REMARK    2  A    between atoms: O_10  and  C_11 
REMARK    3  A    between atoms: C_11  and  C_12 
REMARK       I    between atoms: C_12  and  N_13 
REMARK    4  A    between atoms: N_13  and  C_14 
REMARK    5  A    between atoms: N_15  and  C_16 
REMARK    6  A    between atoms: C_27  and  C_28 
ROOT
HETATM    1  C   UNL     1      43.910 -15.768   6.835  1.00  0.00     0.152 A 
HETATM    2  N   UNL     1      43.126 -15.791   5.688  1.00  0.00    -0.044 N 
HETATM    3  N   UNL     1      43.135 -17.016   5.075  1.00  0.00    -0.150 NA
HETATM    4  C   UNL     1      43.926 -17.769   5.849  1.00  0.00     0.099 A 
HETATM    5  C   UNL     1      44.451 -17.032   6.930  1.00  0.00     0.086 A 
ENDROOT
BRANCH   1   6
HETATM    6  N   UNL     1      44.026 -14.658   7.664  1.00  0.00    -0.309 N 
HETATM    7  C   UNL     1      44.959 -13.660   7.440  1.00  0.00     0.247 C 
HETATM    8  O   UNL     1      45.674 -13.559   6.443  1.00  0.00    -0.271 OA
HETATM    9  H   UNL     1      43.407 -14.582   8.476  1.00  0.00     0.170 HD
BRANCH   7  10
HETATM   10  C   UNL     1      45.156 -12.708   8.618  1.00  0.00     0.278 C 
BRANCH  10  11
HETATM   11  O   UNL     1      44.427 -11.492   8.529  1.00  0.00    -0.342 OA
BRANCH  11  12
HETATM   12  C   UNL     1      43.898 -11.054   9.720  1.00  0.00     0.070 A 
HETATM   13  C   UNL     1      44.638 -10.737  10.862  1.00  0.00     0.037 A 
HETATM   14  C   UNL     1      43.996 -10.284  12.018  1.00  0.00     0.015 A 
HETATM   15  C   UNL     1      42.603 -10.144  12.057  1.00  0.00    -0.026 A 
HETATM   16  C   UNL     1      41.953  -9.677  13.210  1.00  0.00     0.012 A 
HETATM   17  C   UNL     1      41.845 -10.476  10.911  1.00  0.00    -0.023 A 
HETATM   18  C   UNL     1      40.565  -9.537  13.237  1.00  0.00     0.001 A 
HETATM   19  C   UNL     1      39.814  -9.863  12.112  1.00  0.00     0.001 A 
HETATM   20  C   UNL     1      40.448 -10.330  10.958  1.00  0.00     0.012 A 
HETATM   21  C   UNL     1      42.506 -10.937   9.757  1.00  0.00     0.049 A 
ENDBRANCH  11  12
ENDBRANCH  10  11
ENDBRANCH   7  10
ENDBRANCH   1   6
BRANCH   2  22
HETATM   22  C   UNL     1      42.349 -14.759   5.129  1.00  0.00     0.732 A 
HETATM   23  N   UNL     1      41.278 -14.274   5.687  1.00  0.00    -0.067 NA
HETATM   24  C   UNL     1      40.681 -13.277   4.964  1.00  0.00     0.065 A 
HETATM   25  C   UNL     1      41.101 -12.794   3.794  1.00  0.00     0.036 A 
HETATM   26  C   UNL     1      39.441 -12.582   5.415  1.00  0.00     0.061 C 
HETATM   27  C   UNL     1      40.247 -11.713   3.253  1.00  0.00     0.047 C 
HETATM   28  C   UNL     1      42.305 -13.350   3.180  1.00  0.00     0.268 A 
HETATM   29  C   UNL     1      39.007 -11.824   4.150  1.00  0.00     0.011 C 
HETATM   30  O   UNL     1      42.747 -12.956   2.111  1.00  0.00    -0.267 OA
HETATM   31  N   UNL     1      42.874 -14.343   3.924  1.00  0.00    -0.152 N 
HETATM   32  H   UNL     1      43.716 -14.793   3.577  1.00  0.00     0.188 HD
ENDBRANCH   2  22
BRANCH   4  33
HETATM   33  C   UNL     1      44.164 -19.223   5.567  1.00  0.00     0.035 A 
HETATM   34  S   UNL     1      44.729 -19.836   4.073  1.00  0.00    -0.100 SA
HETATM   35  C   UNL     1      44.733 -21.443   4.657  1.00  0.00     0.050 A 
HETATM   36  C   UNL     1      44.304 -21.517   5.963  1.00  0.00     0.008 A 
HETATM   37  C   UNL     1      43.972 -20.232   6.489  1.00  0.00     0.022 A 
ENDBRANCH   4  33
TORSDOF 6
ENDMDL
MODEL 6
REMARK VINA RESULT:      -9.3      3.828      4.772
REMARK  6 active torsions:
REMARK  status: ('A' for Active; 'I' for Inactive)
REMARK    1  A    between atoms: C_9  and  O_10 
REMARK    2  A    between atoms: O_10  and  C_11 
REMARK    3  A    between atoms: C_11  and  C_12 
REMARK       I    between atoms: C_12  and  N_13 
REMARK    4  A    between atoms: N_13  and  C_14 
REMARK    5  A    between atoms: N_15  and  C_16 
REMARK    6  A    between atoms: C_27  and  C_28 
ROOT
HETATM    1  C   UNL     1      41.984 -12.690   5.960  1.00  0.00     0.152 A 
HETATM    2  N   UNL     1      41.650 -11.511   6.615  1.00  0.00    -0.044 N 
HETATM    3  N   UNL     1      40.933 -10.657   5.819  1.00  0.00    -0.150 NA
HETATM    4  C   UNL     1      40.810 -11.310   4.658  1.00  0.00     0.099 A 
HETATM    5  C   UNL     1      41.469 -12.556   4.688  1.00  0.00     0.086 A 
ENDROOT
BRANCH   1   6
HETATM    6  N   UNL     1      42.665 -13.740   6.566  1.00  0.00    -0.309 N 
HETATM    7  C   UNL     1      43.884 -14.200   6.098  1.00  0.00     0.247 C 
HETATM    8  O   UNL     1      44.558 -13.670   5.215  1.00  0.00    -0.271 OA
HETATM    9  H   UNL     1      42.245 -14.195   7.381  1.00  0.00     0.170 HD
BRANCH   7  10
HETATM   10  C   UNL     1      44.312 -15.546   6.678  1.00  0.00     0.278 C 
BRANCH  10  11
HETATM   11  O   UNL     1      43.290 -16.533   6.710  1.00  0.00    -0.342 OA
BRANCH  11  12
HETATM   12  C   UNL     1      43.133 -17.230   5.535  1.00  0.00     0.070 A 
HETATM   13  C   UNL     1      42.234 -16.901   4.518  1.00  0.00     0.037 A 
HETATM   14  C   UNL     1      42.169 -17.674   3.354  1.00  0.00     0.015 A 
HETATM   15  C   UNL     1      42.997 -18.791   3.187  1.00  0.00    -0.026 A 
HETATM   16  C   UNL     1      42.946 -19.563   2.016  1.00  0.00     0.012 A 
HETATM   17  C   UNL     1      43.899 -19.139   4.217  1.00  0.00    -0.023 A 
HETATM   18  C   UNL     1      43.778 -20.672   1.858  1.00  0.00     0.001 A 
HETATM   19  C   UNL     1      44.668 -21.019   2.869  1.00  0.00     0.001 A 
HETATM   20  C   UNL     1      44.728 -20.261   4.041  1.00  0.00     0.012 A 
HETATM   21  C   UNL     1      43.948 -18.355   5.385  1.00  0.00     0.049 A 
ENDBRANCH  11  12
ENDBRANCH  10  11
ENDBRANCH   7  10
ENDBRANCH   1   6
BRANCH   2  22
HETATM   22  C   UNL     1      41.932 -11.127   7.940  1.00  0.00     0.732 A 
HETATM   23  N   UNL     1      43.136 -11.005   8.419  1.00  0.00    -0.067 NA
HETATM   24  C   UNL     1      43.172 -10.622   9.732  1.00  0.00     0.065 A 
HETATM   25  C   UNL     1      42.117 -10.374  10.509  1.00  0.00     0.036 A 
HETATM   26  C   UNL     1      44.446 -10.424  10.482  1.00  0.00     0.061 C 
HETATM   27  C   UNL     1      42.472  -9.975  11.889  1.00  0.00     0.047 C 
HETATM   28  C   UNL     1      40.771 -10.516   9.956  1.00  0.00     0.268 A 
HETATM   29  C   UNL     1      43.962 -10.335  11.939  1.00  0.00     0.011 C 
HETATM   30  O   UNL     1      39.761 -10.306  10.609  1.00  0.00    -0.267 OA
HETATM   31  N   UNL     1      40.770 -10.902   8.646  1.00  0.00    -0.152 N 
HETATM   32  H   UNL     1      39.879 -11.029   8.175  1.00  0.00     0.188 HD
ENDBRANCH   2  22
BRANCH   4  33
HETATM   33  C   UNL     1      40.029 -10.747   3.506  1.00  0.00     0.035 A 
HETATM   34  S   UNL     1      40.531  -9.413   2.561  1.00  0.00    -0.100 SA
HETATM   35  C   UNL     1      39.150  -9.520   1.557  1.00  0.00     0.050 A 
HETATM   36  C   UNL     1      38.316 -10.547   1.936  1.00  0.00     0.008 A 
HETATM   37  C   UNL     1      38.823 -11.256   3.067  1.00  0.00     0.022 A 
ENDBRANCH   4  33
TORSDOF 6
ENDMDL
MODEL 7
REMARK VINA RESULT:      -9.2      2.998      8.901
REMARK  6 active torsions:
REMARK  status: ('A' for Active; 'I' for Inactive)
REMARK    1  A    between atoms: C_9  and  O_10 
REMARK    2  A    between atoms: O_10  and  C_11 
REMARK    3  A    between atoms: C_11  and  C_12 
REMARK       I    between atoms: C_12  and  N_13 
REMARK    4  A    between atoms: N_13  and  C_14 
REMARK    5  A    between atoms: N_15  and  C_16 
REMARK    6  A    between atoms: C_27  and  C_28 
ROOT
HETATM    1  C   UNL     1      42.961 -16.274   3.441  1.00  0.00     0.152 A 
HETATM    2  N   UNL     1      42.262 -16.617   2.291  1.00  0.00    -0.044 N 
HETATM    3  N   UNL     1      42.488 -17.914   1.911  1.00  0.00    -0.150 NA
HETATM    4  C   UNL     1      43.331 -18.389   2.836  1.00  0.00     0.099 A 
HETATM    5  C   UNL     1      43.675 -17.402   3.783  1.00  0.00     0.086 A 
ENDROOT
BRANCH   1   6
HETATM    6  N   UNL     1      42.862 -15.032   4.059  1.00  0.00    -0.309 N 
HETATM    7  C   UNL     1      41.934 -14.771   5.052  1.00  0.00     0.247 C 
HETATM    8  O   UNL     1      41.210 -15.606   5.593  1.00  0.00    -0.271 OA
HETATM    9  H   UNL     1      43.490 -14.281   3.759  1.00  0.00     0.170 HD
BRANCH   7  10
HETATM   10  C   UNL     1      41.757 -13.288   5.372  1.00  0.00     0.278 C 
BRANCH  10  11
HETATM   11  O   UNL     1      40.408 -12.844   5.408  1.00  0.00    -0.342 OA
BRANCH  11  12
HETATM   12  C   UNL     1      39.997 -12.174   4.280  1.00  0.00     0.070 A 
HETATM   13  C   UNL     1      38.741 -11.590   4.103  1.00  0.00     0.037 A 
HETATM   14  C   UNL     1      38.434 -10.916   2.917  1.00  0.00     0.015 A 
HETATM   15  C   UNL     1      39.375 -10.816   1.885  1.00  0.00    -0.026 A 
HETATM   16  C   UNL     1      39.079 -10.129   0.697  1.00  0.00     0.012 A 
HETATM   17  C   UNL     1      40.644 -11.416   2.049  1.00  0.00    -0.023 A 
HETATM   18  C   UNL     1      40.025 -10.032  -0.324  1.00  0.00     0.001 A 
HETATM   19  C   UNL     1      41.276 -10.621  -0.167  1.00  0.00     0.001 A 
HETATM   20  C   UNL     1      41.584 -11.310   1.009  1.00  0.00     0.012 A 
HETATM   21  C   UNL     1      40.935 -12.097   3.247  1.00  0.00     0.049 A 
ENDBRANCH  11  12
ENDBRANCH  10  11
ENDBRANCH   7  10
ENDBRANCH   1   6
BRANCH   2  22
HETATM   22  C   UNL     1      41.377 -15.832   1.527  1.00  0.00     0.732 A 
HETATM   23  N   UNL     1      40.187 -15.488   1.924  1.00  0.00    -0.067 NA
HETATM   24  C   UNL     1      39.501 -14.725   1.018  1.00  0.00     0.065 A 
HETATM   25  C   UNL     1      39.948 -14.329  -0.175  1.00  0.00     0.036 A 
HETATM   26  C   UNL     1      38.119 -14.222   1.265  1.00  0.00     0.061 C 
HETATM   27  C   UNL     1      38.978 -13.509  -0.934  1.00  0.00     0.047 C 
HETATM   28  C   UNL     1      41.287 -14.724  -0.605  1.00  0.00     0.268 A 
HETATM   29  C   UNL     1      37.691 -13.732  -0.128  1.00  0.00     0.011 C 
HETATM   30  O   UNL     1      41.760 -14.398  -1.683  1.00  0.00    -0.267 OA
HETATM   31  N   UNL     1      41.942 -15.487   0.319  1.00  0.00    -0.152 N 
HETATM   32  H   UNL     1      42.881 -15.812   0.108  1.00  0.00     0.188 HD
ENDBRANCH   2  22
BRANCH   4  33
HETATM   33  C   UNL     1      43.798 -19.815   2.831  1.00  0.00     0.035 A 
HETATM   34  S   UNL     1      44.636 -20.560   4.122  1.00  0.00    -0.100 SA
HETATM   35  C   UNL     1      44.704 -22.059   3.301  1.00  0.00     0.050 A 
HETATM   36  C   UNL     1      44.109 -21.995   2.062  1.00  0.00     0.008 A 
HETATM   37  C   UNL     1      43.586 -20.695   1.788  1.00  0.00     0.022 A 
ENDBRANCH   4  33
TORSDOF 6
ENDMDL
MODEL 8
REMARK VINA RESULT:      -9.1      3.767      9.147
REMARK  6 active torsions:
REMARK  status: ('A' for Active; 'I' for Inactive)
REMARK    1  A    between atoms: C_9  and  O_10 
REMARK    2  A    between atoms: O_10  and  C_11 
REMARK    3  A    between atoms: C_11  and  C_12 
REMARK       I    between atoms: C_12  and  N_13 
REMARK    4  A    between atoms: N_13  and  C_14 
REMARK    5  A    between atoms: N_15  and  C_16 
REMARK    6  A    between atoms: C_27  and  C_28 
ROOT
HETATM    1  C   UNL     1      42.283 -15.249   2.275  1.00  0.00     0.152 A 
HETATM    2  N   UNL     1      41.886 -15.885   1.106  1.00  0.00    -0.044 N 
HETATM    3  N   UNL     1      42.300 -17.190   1.057  1.00  0.00    -0.150 NA
HETATM    4  C   UNL     1      42.956 -17.375   2.209  1.00  0.00     0.099 A 
HETATM    5  C   UNL     1      42.996 -16.195   2.980  1.00  0.00     0.086 A 
ENDROOT
BRANCH   1   6
HETATM    6  N   UNL     1      41.944 -13.937   2.590  1.00  0.00    -0.309 N 
HETATM    7  C   UNL     1      40.735 -13.604   3.174  1.00  0.00     0.247 C 
HETATM    8  O   UNL     1      39.903 -14.403   3.604  1.00  0.00    -0.271 OA
HETATM    9  H   UNL     1      42.609 -13.190   2.370  1.00  0.00     0.170 HD
BRANCH   7  10
HETATM   10  C   UNL     1      40.411 -12.112   3.142  1.00  0.00     0.278 C 
BRANCH  10  11
HETATM   11  O   UNL     1      41.346 -11.315   2.429  1.00  0.00    -0.342 OA
BRANCH  11  12
HETATM   12  C   UNL     1      41.034 -11.115   1.105  1.00  0.00     0.070 A 
HETATM   13  C   UNL     1      39.893 -10.461   0.637  1.00  0.00     0.037 A 
HETATM   14  C   UNL     1      39.682 -10.298  -0.736  1.00  0.00     0.015 A 
HETATM   15  C   UNL     1      40.606 -10.790  -1.666  1.00  0.00    -0.026 A 
HETATM   16  C   UNL     1      40.408 -10.620  -3.045  1.00  0.00     0.012 A 
HETATM   17  C   UNL     1      41.757 -11.467  -1.202  1.00  0.00    -0.023 A 
HETATM   18  C   UNL     1      41.336 -11.110  -3.964  1.00  0.00     0.001 A 
HETATM   19  C   UNL     1      42.471 -11.777  -3.513  1.00  0.00     0.001 A 
HETATM   20  C   UNL     1      42.680 -11.956  -2.143  1.00  0.00     0.012 A 
HETATM   21  C   UNL     1      41.951 -11.627   0.183  1.00  0.00     0.049 A 
ENDBRANCH  11  12
ENDBRANCH  10  11
ENDBRANCH   7  10
ENDBRANCH   1   6
BRANCH   2  22
HETATM   22  C   UNL     1      41.129 -15.373   0.035  1.00  0.00     0.732 A 
HETATM   23  N   UNL     1      40.019 -14.712   0.184  1.00  0.00    -0.067 NA
HETATM   24  C   UNL     1      39.451 -14.312  -0.996  1.00  0.00     0.065 A 
HETATM   25  C   UNL     1      39.935 -14.537  -2.218  1.00  0.00     0.036 A 
HETATM   26  C   UNL     1      38.175 -13.542  -1.060  1.00  0.00     0.061 C 
HETATM   27  C   UNL     1      39.100 -13.979  -3.304  1.00  0.00     0.047 C 
HETATM   28  C   UNL     1      41.184 -15.283  -2.367  1.00  0.00     0.268 A 
HETATM   29  C   UNL     1      37.809 -13.633  -2.550  1.00  0.00     0.011 C 
HETATM   30  O   UNL     1      41.684 -15.526  -3.455  1.00  0.00    -0.267 OA
HETATM   31  N   UNL     1      41.721 -15.670  -1.174  1.00  0.00    -0.152 N 
HETATM   32  H   UNL     1      42.589 -16.196  -1.176  1.00  0.00     0.188 HD
ENDBRANCH   2  22
BRANCH   4  33
HETATM   33  C   UNL     1      43.531 -18.706   2.593  1.00  0.00     0.035 A 
HETATM   34  S   UNL     1      44.140 -19.082   4.147  1.00  0.00    -0.100 SA
HETATM   35  C   UNL     1      44.505 -20.689   3.689  1.00  0.00     0.050 A 
HETATM   36  C   UNL     1      44.178 -20.936   2.375  1.00  0.00     0.008 A 
HETATM   37  C   UNL     1      43.617 -19.788   1.739  1.00  0.00     0.022 A 
ENDBRANCH   4  33
TORSDOF 6
ENDMDL
MODEL 9
REMARK VINA RESULT:      -9.0      2.727      4.630
REMARK  6 active torsions:
REMARK  status: ('A' for Active; 'I' for Inactive)
REMARK    1  A    between atoms: C_9  and  O_10 
REMARK    2  A    between atoms: O_10  and  C_11 
REMARK    3  A    between atoms: C_11  and  C_12 
REMARK       I    between atoms: C_12  and  N_13 
REMARK    4  A    between atoms: N_13  and  C_14 
REMARK    5  A    between atoms: N_15  and  C_16 
REMARK    6  A    between atoms: C_27  and  C_28 
ROOT
HETATM    1  C   UNL     1      41.831 -13.067   5.873  1.00  0.00     0.152 A 
HETATM    2  N   UNL     1      41.356 -12.810   4.594  1.00  0.00    -0.044 N 
HETATM    3  N   UNL     1      40.873 -11.535   4.462  1.00  0.00    -0.150 NA
HETATM    4  C   UNL     1      41.055 -10.985   5.669  1.00  0.00     0.099 A 
HETATM    5  C   UNL     1      41.616 -11.903   6.580  1.00  0.00     0.086 A 
ENDROOT
BRANCH   1   6
HETATM    6  N   UNL     1      42.419 -14.270   6.248  1.00  0.00    -0.309 N 
HETATM    7  C   UNL     1      43.782 -14.493   6.143  1.00  0.00     0.247 C 
HETATM    8  O   UNL     1      44.626 -13.645   5.854  1.00  0.00    -0.271 OA
HETATM    9  H   UNL     1      41.821 -15.020   6.604  1.00  0.00     0.170 HD
BRANCH   7  10
HETATM   10  C   UNL     1      44.191 -15.957   6.288  1.00  0.00     0.278 C 
BRANCH  10  11
HETATM   11  O   UNL     1      43.165 -16.894   5.995  1.00  0.00    -0.342 OA
BRANCH  11  12
HETATM   12  C   UNL     1      43.611 -18.085   5.472  1.00  0.00     0.070 A 
HETATM   13  C   UNL     1      44.357 -19.040   6.166  1.00  0.00     0.037 A 
HETATM   14  C   UNL     1      44.745 -20.228   5.539  1.00  0.00     0.015 A 
HETATM   15  C   UNL     1      44.399 -20.482   4.206  1.00  0.00    -0.026 A 
HETATM   16  C   UNL     1      44.774 -21.678   3.574  1.00  0.00     0.012 A 
HETATM   17  C   UNL     1      43.656 -19.515   3.491  1.00  0.00    -0.023 A 
HETATM   18  C   UNL     1      44.420 -21.923   2.247  1.00  0.00     0.001 A 
HETATM   19  C   UNL     1      43.689 -20.974   1.539  1.00  0.00     0.001 A 
HETATM   20  C   UNL     1      43.310 -19.778   2.154  1.00  0.00     0.012 A 
HETATM   21  C   UNL     1      43.278 -18.321   4.135  1.00  0.00     0.049 A 
ENDBRANCH  11  12
ENDBRANCH  10  11
ENDBRANCH   7  10
ENDBRANCH   1   6
BRANCH   2  22
HETATM   22  C   UNL     1      41.336 -13.661   3.472  1.00  0.00     0.732 A 
HETATM   23  N   UNL     1      40.957 -14.905   3.512  1.00  0.00    -0.067 NA
HETATM   24  C   UNL     1      41.021 -15.542   2.302  1.00  0.00     0.065 A 
HETATM   25  C   UNL     1      41.419 -15.002   1.149  1.00  0.00     0.036 A 
HETATM   26  C   UNL     1      40.635 -16.971   2.119  1.00  0.00     0.061 C 
HETATM   27  C   UNL     1      41.379 -15.941   0.006  1.00  0.00     0.047 C 
HETATM   28  C   UNL     1      41.843 -13.604   1.121  1.00  0.00     0.268 A 
HETATM   29  C   UNL     1      41.187 -17.286   0.719  1.00  0.00     0.011 C 
HETATM   30  O   UNL     1      42.220 -13.046   0.102  1.00  0.00    -0.267 OA
HETATM   31  N   UNL     1      41.771 -12.999   2.343  1.00  0.00    -0.152 N 
HETATM   32  H   UNL     1      42.047 -12.026   2.424  1.00  0.00     0.188 HD
ENDBRANCH   2  22
BRANCH   4  33
HETATM   33  C   UNL     1      40.711  -9.552   5.951  1.00  0.00     0.035 A 
HETATM   34  S   UNL     1      41.070  -8.744   7.415  1.00  0.00    -0.100 SA
HETATM   35  C   UNL     1      40.401  -7.276   6.847  1.00  0.00     0.050 A 
HETATM   36  C   UNL     1      39.905  -7.397   5.569  1.00  0.00     0.008 A 
HETATM   37  C   UNL     1      40.082  -8.715   5.051  1.00  0.00     0.022 A 
ENDBRANCH   4  33
TORSDOF 6
ENDMDL
MODEL 10
REMARK VINA RESULT:      -9.0      2.593      3.379
REMARK  6 active torsions:
REMARK  status: ('A' for Active; 'I' for Inactive)
REMARK    1  A    between atoms: C_9  and  O_10 
REMARK    2  A    between atoms: O_10  and  C_11 
REMARK    3  A    between atoms: C_11  and  C_12 
REMARK       I    between atoms: C_12  and  N_13 
REMARK    4  A    between atoms: N_13  and  C_14 
REMARK    5  A    between atoms: N_15  and  C_16 
REMARK    6  A    between atoms: C_27  and  C_28 
ROOT
HETATM    1  C   UNL     1      41.352 -11.995   4.105  1.00  0.00     0.152 A 
HETATM    2  N   UNL     1      41.451 -12.417   5.424  1.00  0.00    -0.044 N 
HETATM    3  N   UNL     1      40.838 -11.554   6.295  1.00  0.00    -0.150 NA
HETATM    4  C   UNL     1      40.345 -10.587   5.512  1.00  0.00     0.099 A 
HETATM    5  C   UNL     1      40.663 -10.802   4.155  1.00  0.00     0.086 A 
ENDROOT
BRANCH   1   6
HETATM    6  N   UNL     1      41.847 -12.721   3.026  1.00  0.00    -0.309 N 
HETATM    7  C   UNL     1      41.172 -13.805   2.491  1.00  0.00     0.247 C 
HETATM    8  O   UNL     1      40.033 -14.159   2.793  1.00  0.00    -0.271 OA
HETATM    9  H   UNL     1      42.747 -12.450   2.622  1.00  0.00     0.170 HD
BRANCH   7  10
HETATM   10  C   UNL     1      42.011 -14.662   1.545  1.00  0.00     0.278 C 
BRANCH  10  11
HETATM   11  O   UNL     1      43.236 -15.127   2.093  1.00  0.00    -0.342 OA
BRANCH  11  12
HETATM   12  C   UNL     1      43.394 -16.493   2.062  1.00  0.00     0.070 A 
HETATM   13  C   UNL     1      43.140 -17.308   0.957  1.00  0.00     0.037 A 
HETATM   14  C   UNL     1      43.350 -18.688   1.032  1.00  0.00     0.015 A 
HETATM   15  C   UNL     1      43.814 -19.280   2.213  1.00  0.00    -0.026 A 
HETATM   16  C   UNL     1      44.040 -20.663   2.292  1.00  0.00     0.012 A 
HETATM   17  C   UNL     1      44.059 -18.465   3.341  1.00  0.00    -0.023 A 
HETATM   18  C   UNL     1      44.505 -21.242   3.473  1.00  0.00     0.001 A 
HETATM   19  C   UNL     1      44.749 -20.444   4.586  1.00  0.00     0.001 A 
HETATM   20  C   UNL     1      44.526 -19.066   4.523  1.00  0.00     0.012 A 
HETATM   21  C   UNL     1      43.837 -17.078   3.252  1.00  0.00     0.049 A 
ENDBRANCH  11  12
ENDBRANCH  10  11
ENDBRANCH   7  10
ENDBRANCH   1   6
BRANCH   2  22
HETATM   22  C   UNL     1      42.058 -13.579   5.937  1.00  0.00     0.732 A 
HETATM   23  N   UNL     1      41.547 -14.771   5.830  1.00  0.00    -0.067 NA
HETATM   24  C   UNL     1      42.308 -15.752   6.405  1.00  0.00     0.065 A 
HETATM   25  C   UNL     1      43.475 -15.579   7.028  1.00  0.00     0.036 A 
HETATM   26  C   UNL     1      41.912 -17.190   6.402  1.00  0.00     0.061 C 
HETATM   27  C   UNL     1      44.066 -16.833   7.547  1.00  0.00     0.047 C 
HETATM   28  C   UNL     1      44.035 -14.234   7.139  1.00  0.00     0.268 A 
HETATM   29  C   UNL     1      42.885 -17.804   7.421  1.00  0.00     0.011 C 
HETATM   30  O   UNL     1      45.098 -14.003   7.696  1.00  0.00    -0.267 OA
HETATM   31  N   UNL     1      43.250 -13.279   6.560  1.00  0.00    -0.152 N 
HETATM   32  H   UNL     1      43.556 -12.311   6.589  1.00  0.00     0.188 HD
ENDBRANCH   2  22
BRANCH   4  33
HETATM   33  C   UNL     1      39.533  -9.452   6.064  1.00  0.00     0.035 A 
HETATM   34  S   UNL     1      39.602  -8.917   7.687  1.00  0.00    -0.100 SA
HETATM   35  C   UNL     1      38.468  -7.670   7.395  1.00  0.00     0.050 A 
HETATM   36  C   UNL     1      38.036  -7.664   6.088  1.00  0.00     0.008 A 
HETATM   37  C   UNL     1      38.651  -8.697   5.318  1.00  0.00     0.022 A 
ENDBRANCH   4  33
TORSDOF 6
ENDMDL
