MODEL 1
REMARK VINA RESULT:      -8.4      0.000      0.000
REMARK  5 active torsions:
REMARK  status: ('A' for Active; 'I' for Inactive)
REMARK    1  A    between atoms: C_2  and  C_3 
REMARK    2  A    between atoms: N_4  and  C_5 
REMARK    3  A    between atoms: C_5  and  C_6 
REMARK    4  A    between atoms: C_11  and  N_12 
REMARK       I    between atoms: N_12  and  C_13 
REMARK       I    between atoms: C_13  and  N_14 
REMARK    5  A    between atoms: N_14  and  C_15 
ROOT
HETATM    1  N   UNL     1      45.143 -13.943   7.243  1.00  0.00    -0.306 N 
HETATM    2  C   UNL     1      45.308 -12.935   8.147  1.00  0.00     0.321 C 
HETATM    3  N   UNL     1      44.217 -12.615   8.904  1.00  0.00    -0.333 N 
HETATM    4  O   UNL     1      46.413 -12.420   8.290  1.00  0.00    -0.247 OA
HETATM    5  H   UNL     1      46.018 -14.272   6.863  1.00  0.00     0.171 HD
HETATM    6  H   UNL     1      43.604 -13.404   9.069  1.00  0.00     0.165 HD
ENDROOT
BRANCH   1   7
HETATM    7  C   UNL     1      43.990 -14.340   6.590  1.00  0.00     0.080 A 
HETATM    8  C   UNL     1      43.502 -15.638   6.529  1.00  0.00     0.058 A 
HETATM    9  N   UNL     1      42.431 -15.569   5.654  1.00  0.00    -0.272 N 
HETATM   10  N   UNL     1      42.131 -14.317   5.265  1.00  0.00    -0.182 NA
HETATM   11  C   UNL     1      43.098 -13.579   5.804  1.00  0.00     0.170 A 
BRANCH   8  12
HETATM   12  C   UNL     1      43.890 -16.942   7.166  1.00  0.00     0.057 C 
HETATM   13  C   UNL     1      45.008 -17.718   6.493  1.00  0.00     0.011 C 
ENDBRANCH   8  12
BRANCH   9  14
HETATM   14  C   UNL     1      41.638 -16.660   5.106  1.00  0.00     0.155 C 
BRANCH  14  15
HETATM   15  C   UNL     1      42.064 -17.077   3.687  1.00  0.00    -0.003 C 
HETATM   16  C   UNL     1      42.688 -18.474   3.657  1.00  0.00     0.011 C 
HETATM   17  C   UNL     1      40.858 -17.032   2.748  1.00  0.00     0.011 C 
ENDBRANCH  14  15
ENDBRANCH   9  14
ENDBRANCH   1   7
BRANCH   3  18
HETATM   18  C   UNL     1      44.236 -11.561   9.933  1.00  0.00     0.039 C 
HETATM   19  C   UNL     1      45.607 -10.849   9.904  1.00  0.00     0.039 C 
HETATM   20  C   UNL     1      43.110 -10.513   9.656  1.00  0.00     0.070 C 
HETATM   21  C   UNL     1      42.717 -10.078  11.034  1.00  0.00    -0.049 A 
HETATM   22  C   UNL     1      43.185 -10.976  11.996  1.00  0.00    -0.049 A 
HETATM   23  C   UNL     1      41.958  -8.978  11.396  1.00  0.00     0.007 A 
HETATM   24  C   UNL     1      43.934 -12.107  11.363  1.00  0.00     0.070 C 
HETATM   25  C   UNL     1      42.912 -10.790  13.341  1.00  0.00     0.007 A 
HETATM   26  C   UNL     1      42.160  -9.676  13.718  1.00  0.00     0.001 A 
HETATM   27  C   UNL     1      41.685  -8.777  12.751  1.00  0.00     0.001 A 
ENDBRANCH   3  18
TORSDOF 5
ENDMDL
MODEL 2
REMARK VINA RESULT:      -8.4      6.539      9.880
REMARK  5 active torsions:
REMARK  status: ('A' for Active; 'I' for Inactive)
REMARK    1  A    between atoms: C_2  and  C_3 
REMARK    2  A    between atoms: N_4  and  C_5 
REMARK    3  A    between atoms: C_5  and  C_6 
REMARK    4  A    between atoms: C_11  and  N_12 
REMARK       I    between atoms: N_12  and  C_13 
REMARK       I    between atoms: C_13  and  N_14 
REMARK    5  A    between atoms: N_14  and  C_15 
ROOT
HETATM    1  N   UNL     1      40.251 -15.764   3.747  1.00  0.00    -0.306 N 
HETATM    2  C   UNL     1      41.141 -16.792   3.628  1.00  0.00     0.321 C 
HETATM    3  N   UNL     1      42.108 -16.650   2.674  1.00  0.00    -0.333 N 
HETATM    4  O   UNL     1      41.084 -17.739   4.406  1.00  0.00    -0.247 OA
HETATM    5  H   UNL     1      39.696 -15.826   4.587  1.00  0.00     0.171 HD
HETATM    6  H   UNL     1      42.361 -15.684   2.507  1.00  0.00     0.165 HD
ENDROOT
BRANCH   1   7
HETATM    7  C   UNL     1      39.822 -14.876   2.778  1.00  0.00     0.080 A 
HETATM    8  C   UNL     1      40.267 -13.569   2.627  1.00  0.00     0.058 A 
HETATM    9  N   UNL     1      39.455 -13.034   1.640  1.00  0.00    -0.272 N 
HETATM   10  N   UNL     1      38.629 -13.933   1.075  1.00  0.00    -0.182 NA
HETATM   11  C   UNL     1      38.828 -15.038   1.789  1.00  0.00     0.170 A 
BRANCH   8  12
HETATM   12  C   UNL     1      41.339 -12.739   3.272  1.00  0.00     0.057 C 
HETATM   13  C   UNL     1      42.766 -13.236   3.116  1.00  0.00     0.011 C 
ENDBRANCH   8  12
BRANCH   9  14
HETATM   14  C   UNL     1      39.377 -11.656   1.180  1.00  0.00     0.155 C 
BRANCH  14  15
HETATM   15  C   UNL     1      39.939 -11.449  -0.238  1.00  0.00    -0.003 C 
HETATM   16  C   UNL     1      39.331 -10.226  -0.929  1.00  0.00     0.011 C 
HETATM   17  C   UNL     1      41.460 -11.303  -0.177  1.00  0.00     0.011 C 
ENDBRANCH  14  15
ENDBRANCH   9  14
ENDBRANCH   1   7
BRANCH   3  18
HETATM   18  C   UNL     1      43.149 -17.663   2.431  1.00  0.00     0.039 C 
HETATM   19  C   UNL     1      44.275 -17.038   1.577  1.00  0.00     0.039 C 
HETATM   20  C   UNL     1      43.750 -18.158   3.785  1.00  0.00     0.070 C 
HETATM   21  C   UNL     1      44.085 -19.589   3.495  1.00  0.00    -0.049 A 
HETATM   22  C   UNL     1      43.434 -20.033   2.341  1.00  0.00    -0.049 A 
HETATM   23  C   UNL     1      44.884 -20.444   4.236  1.00  0.00     0.007 A 
HETATM   24  C   UNL     1      42.592 -18.948   1.744  1.00  0.00     0.070 C 
HETATM   25  C   UNL     1      43.573 -21.337   1.899  1.00  0.00     0.007 A 
HETATM   26  C   UNL     1      44.388 -22.203   2.630  1.00  0.00     0.001 A 
HETATM   27  C   UNL     1      45.037 -21.760   3.792  1.00  0.00     0.001 A 
ENDBRANCH   3  18
TORSDOF 5
ENDMDL
MODEL 3
REMARK VINA RESULT:      -8.4      5.645      9.132
REMARK  5 active torsions:
REMARK  status: ('A' for Active; 'I' for Inactive)
REMARK    1  A    between atoms: C_2  and  C_3 
REMARK    2  A    between atoms: N_4  and  C_5 
REMARK    3  A    between atoms: C_5  and  C_6 
REMARK    4  A    between atoms: C_11  and  N_12 
REMARK       I    between atoms: N_12  and  C_13 
REMARK       I    between atoms: C_13  and  N_14 
REMARK    5  A    between atoms: N_14  and  C_15 
ROOT
HETATM    1  N   UNL     1      42.965 -13.691   3.869  1.00  0.00    -0.306 N 
HETATM    2  C   UNL     1      43.046 -15.001   4.242  1.00  0.00     0.321 C 
HETATM    3  N   UNL     1      42.508 -15.912   3.379  1.00  0.00    -0.333 N 
HETATM    4  O   UNL     1      43.643 -15.304   5.271  1.00  0.00    -0.247 OA
HETATM    5  H   UNL     1      43.548 -13.089   4.430  1.00  0.00     0.171 HD
HETATM    6  H   UNL     1      42.550 -15.615   2.413  1.00  0.00     0.165 HD
ENDROOT
BRANCH   1   7
HETATM    7  C   UNL     1      42.014 -13.076   3.074  1.00  0.00     0.080 A 
HETATM    8  C   UNL     1      40.710 -12.788   3.451  1.00  0.00     0.058 A 
HETATM    9  N   UNL     1      40.104 -12.325   2.294  1.00  0.00    -0.272 N 
HETATM   10  N   UNL     1      40.954 -12.178   1.262  1.00  0.00    -0.182 NA
HETATM   11  C   UNL     1      42.102 -12.667   1.726  1.00  0.00     0.170 A 
BRANCH   8  12
HETATM   12  C   UNL     1      39.937 -12.886   4.736  1.00  0.00     0.057 C 
HETATM   13  C   UNL     1      39.707 -14.283   5.283  1.00  0.00     0.011 C 
ENDBRANCH   8  12
BRANCH   9  14
HETATM   14  C   UNL     1      38.701 -12.014   2.069  1.00  0.00     0.155 C 
BRANCH  14  15
HETATM   15  C   UNL     1      38.095 -12.750   0.860  1.00  0.00    -0.003 C 
HETATM   16  C   UNL     1      37.951 -14.253   1.109  1.00  0.00     0.011 C 
HETATM   17  C   UNL     1      36.730 -12.151   0.518  1.00  0.00     0.011 C 
ENDBRANCH  14  15
ENDBRANCH   9  14
ENDBRANCH   1   7
BRANCH   3  18
HETATM   18  C   UNL     1      42.528 -17.364   3.631  1.00  0.00     0.039 C 
HETATM   19  C   UNL     1      41.370 -17.728   4.586  1.00  0.00     0.039 C 
HETATM   20  C   UNL     1      42.353 -18.149   2.292  1.00  0.00     0.070 C 
HETATM   21  C   UNL     1      43.167 -19.385   2.524  1.00  0.00    -0.049 A 
HETATM   22  C   UNL     1      44.030 -19.220   3.609  1.00  0.00    -0.049 A 
HETATM   23  C   UNL     1      43.161 -20.558   1.789  1.00  0.00     0.007 A 
HETATM   24  C   UNL     1      43.890 -17.857   4.212  1.00  0.00     0.070 C 
HETATM   25  C   UNL     1      44.902 -20.227   3.989  1.00  0.00     0.007 A 
HETATM   26  C   UNL     1      44.895 -21.419   3.263  1.00  0.00     0.001 A 
HETATM   27  C   UNL     1      44.031 -21.583   2.170  1.00  0.00     0.001 A 
ENDBRANCH   3  18
TORSDOF 5
ENDMDL
MODEL 4
REMARK VINA RESULT:      -8.3      5.863      9.615
REMARK  5 active torsions:
REMARK  status: ('A' for Active; 'I' for Inactive)
REMARK    1  A    between atoms: C_2  and  C_3 
REMARK    2  A    between atoms: N_4  and  C_5 
REMARK    3  A    between atoms: C_5  and  C_6 
REMARK    4  A    between atoms: C_11  and  N_12 
REMARK       I    between atoms: N_12  and  C_13 
REMARK       I    between atoms: C_13  and  N_14 
REMARK    5  A    between atoms: N_14  and  C_15 
ROOT
HETATM    1  N   UNL     1      40.423 -15.726   5.044  1.00  0.00    -0.306 N 
HETATM    2  C   UNL     1      41.180 -16.733   4.517  1.00  0.00     0.321 C 
HETATM    3  N   UNL     1      42.175 -16.358   3.660  1.00  0.00    -0.333 N 
HETATM    4  O   UNL     1      40.987 -17.890   4.877  1.00  0.00    -0.247 OA
HETATM    5  H   UNL     1      39.849 -16.034   5.814  1.00  0.00     0.171 HD
HETATM    6  H   UNL     1      42.552 -15.442   3.867  1.00  0.00     0.165 HD
ENDROOT
BRANCH   1   7
HETATM    7  C   UNL     1      40.130 -14.489   4.500  1.00  0.00     0.080 A 
HETATM    8  C   UNL     1      39.644 -14.265   3.219  1.00  0.00     0.058 A 
HETATM    9  N   UNL     1      39.653 -12.888   3.076  1.00  0.00    -0.272 N 
HETATM   10  N   UNL     1      39.981 -12.231   4.203  1.00  0.00    -0.182 NA
HETATM   11  C   UNL     1      40.304 -13.202   5.053  1.00  0.00     0.170 A 
BRANCH   8  12
HETATM   12  C   UNL     1      39.174 -15.150   2.100  1.00  0.00     0.057 C 
HETATM   13  C   UNL     1      40.186 -15.462   1.012  1.00  0.00     0.011 C 
ENDBRANCH   8  12
BRANCH   9  14
HETATM   14  C   UNL     1      39.384 -12.099   1.883  1.00  0.00     0.155 C 
BRANCH  14  15
HETATM   15  C   UNL     1      37.938 -11.575   1.807  1.00  0.00    -0.003 C 
HETATM   16  C   UNL     1      37.881 -10.070   1.532  1.00  0.00     0.011 C 
HETATM   17  C   UNL     1      37.170 -12.326   0.718  1.00  0.00     0.011 C 
ENDBRANCH  14  15
ENDBRANCH   9  14
ENDBRANCH   1   7
BRANCH   3  18
HETATM   18  C   UNL     1      43.086 -17.323   3.019  1.00  0.00     0.039 C 
HETATM   19  C   UNL     1      44.071 -16.561   2.106  1.00  0.00     0.039 C 
HETATM   20  C   UNL     1      43.894 -18.107   4.102  1.00  0.00     0.070 C 
HETATM   21  C   UNL     1      44.076 -19.453   3.470  1.00  0.00    -0.049 A 
HETATM   22  C   UNL     1      43.195 -19.627   2.400  1.00  0.00    -0.049 A 
HETATM   23  C   UNL     1      44.941 -20.464   3.852  1.00  0.00     0.007 A 
HETATM   24  C   UNL     1      42.329 -18.421   2.209  1.00  0.00     0.070 C 
HETATM   25  C   UNL     1      43.164 -20.813   1.684  1.00  0.00     0.007 A 
HETATM   26  C   UNL     1      44.042 -21.833   2.053  1.00  0.00     0.001 A 
HETATM   27  C   UNL     1      44.924 -21.660   3.130  1.00  0.00     0.001 A 
ENDBRANCH   3  18
TORSDOF 5
ENDMDL
MODEL 5
REMARK VINA RESULT:      -8.3      4.717      9.710
REMARK  5 active torsions:
REMARK  status: ('A' for Active; 'I' for Inactive)
REMARK    1  A    between atoms: C_2  and  C_3 
REMARK    2  A    between atoms: N_4  and  C_5 
REMARK    3  A    between atoms: C_5  and  C_6 
REMARK    4  A    between atoms: C_11  and  N_12 
REMARK       I    between atoms: N_12  and  C_13 
REMARK       I    between atoms: C_13  and  N_14 
REMARK    5  A    between atoms: N_14  and  C_15 
ROOT
HETATM    1  N   UNL     1      39.616 -15.806   2.394  1.00  0.00    -0.306 N 
HETATM    2  C   UNL     1      40.575 -16.730   2.094  1.00  0.00     0.321 C 
HETATM    3  N   UNL     1      41.773 -16.591   2.734  1.00  0.00    -0.333 N 
HETATM    4  O   UNL     1      40.307 -17.660   1.340  1.00  0.00    -0.247 OA
HETATM    5  H   UNL     1      38.702 -16.070   2.058  1.00  0.00     0.171 HD
HETATM    6  H   UNL     1      41.685 -16.171   3.651  1.00  0.00     0.165 HD
ENDROOT
BRANCH   1   7
HETATM    7  C   UNL     1      39.778 -14.495   2.802  1.00  0.00     0.080 A 
HETATM    8  C   UNL     1      39.943 -14.072   4.114  1.00  0.00     0.058 A 
HETATM    9  N   UNL     1      39.909 -12.689   4.044  1.00  0.00    -0.272 N 
HETATM   10  N   UNL     1      39.864 -12.213   2.787  1.00  0.00    -0.182 NA
HETATM   11  C   UNL     1      39.749 -13.308   2.038  1.00  0.00     0.170 A 
BRANCH   8  12
HETATM   12  C   UNL     1      40.127 -14.769   5.432  1.00  0.00     0.057 C 
HETATM   13  C   UNL     1      41.558 -15.018   5.873  1.00  0.00     0.011 C 
ENDBRANCH   8  12
BRANCH   9  14
HETATM   14  C   UNL     1      39.889 -11.727   5.136  1.00  0.00     0.155 C 
BRANCH  14  15
HETATM   15  C   UNL     1      41.270 -11.118   5.443  1.00  0.00    -0.003 C 
HETATM   16  C   UNL     1      41.372  -9.658   4.994  1.00  0.00     0.011 C 
HETATM   17  C   UNL     1      41.559 -11.217   6.941  1.00  0.00     0.011 C 
ENDBRANCH  14  15
ENDBRANCH   9  14
ENDBRANCH   1   7
BRANCH   3  18
HETATM   18  C   UNL     1      42.903 -17.514   2.530  1.00  0.00     0.039 C 
HETATM   19  C   UNL     1      44.051 -16.760   1.823  1.00  0.00     0.039 C 
HETATM   20  C   UNL     1      43.415 -18.056   3.903  1.00  0.00     0.070 C 
HETATM   21  C   UNL     1      43.877 -19.439   3.560  1.00  0.00    -0.049 A 
HETATM   22  C   UNL     1      43.366 -19.848   2.327  1.00  0.00    -0.049 A 
HETATM   23  C   UNL     1      44.668 -20.285   4.320  1.00  0.00     0.007 A 
HETATM   24  C   UNL     1      42.504 -18.785   1.719  1.00  0.00     0.070 C 
HETATM   25  C   UNL     1      43.638 -21.109   1.822  1.00  0.00     0.007 A 
HETATM   26  C   UNL     1      44.445 -21.964   2.573  1.00  0.00     0.001 A 
HETATM   27  C   UNL     1      44.955 -21.556   3.815  1.00  0.00     0.001 A 
ENDBRANCH   3  18
TORSDOF 5
ENDMDL
MODEL 6
REMARK VINA RESULT:      -8.3      7.568     10.115
REMARK  5 active torsions:
REMARK  status: ('A' for Active; 'I' for Inactive)
REMARK    1  A    between atoms: C_2  and  C_3 
REMARK    2  A    between atoms: N_4  and  C_5 
REMARK    3  A    between atoms: C_5  and  C_6 
REMARK    4  A    between atoms: C_11  and  N_12 
REMARK       I    between atoms: N_12  and  C_13 
REMARK       I    between atoms: C_13  and  N_14 
REMARK    5  A    between atoms: N_14  and  C_15 
ROOT
HETATM    1  N   UNL     1      41.880 -13.118   0.786  1.00  0.00    -0.306 N 
HETATM    2  C   UNL     1      41.879 -14.156   1.673  1.00  0.00     0.321 C 
HETATM    3  N   UNL     1      41.992 -15.409   1.141  1.00  0.00    -0.333 N 
HETATM    4  O   UNL     1      41.849 -13.925   2.878  1.00  0.00    -0.247 OA
HETATM    5  H   UNL     1      42.001 -12.223   1.235  1.00  0.00     0.171 HD
HETATM    6  H   UNL     1      42.522 -15.426   0.279  1.00  0.00     0.165 HD
ENDROOT
BRANCH   1   7
HETATM    7  C   UNL     1      41.457 -13.106  -0.530  1.00  0.00     0.080 A 
HETATM    8  C   UNL     1      40.136 -13.065  -0.954  1.00  0.00     0.058 A 
HETATM    9  N   UNL     1      40.203 -13.224  -2.328  1.00  0.00    -0.272 N 
HETATM   10  N   UNL     1      41.459 -13.232  -2.810  1.00  0.00    -0.182 NA
HETATM   11  C   UNL     1      42.217 -13.196  -1.717  1.00  0.00     0.170 A 
BRANCH   8  12
HETATM   12  C   UNL     1      38.812 -12.903  -0.263  1.00  0.00     0.057 C 
HETATM   13  C   UNL     1      38.297 -14.107   0.506  1.00  0.00     0.011 C 
ENDBRANCH   8  12
BRANCH   9  14
HETATM   14  C   UNL     1      39.111 -13.403  -3.273  1.00  0.00     0.155 C 
BRANCH  14  15
HETATM   15  C   UNL     1      38.477 -14.805  -3.221  1.00  0.00    -0.003 C 
HETATM   16  C   UNL     1      37.080 -14.833  -3.844  1.00  0.00     0.011 C 
HETATM   17  C   UNL     1      39.380 -15.810  -3.937  1.00  0.00     0.011 C 
ENDBRANCH  14  15
ENDBRANCH   9  14
ENDBRANCH   1   7
BRANCH   3  18
HETATM   18  C   UNL     1      42.020 -16.629   1.965  1.00  0.00     0.039 C 
HETATM   19  C   UNL     1      40.597 -16.919   2.491  1.00  0.00     0.039 C 
HETATM   20  C   UNL     1      42.508 -17.846   1.115  1.00  0.00     0.070 C 
HETATM   21  C   UNL     1      43.239 -18.681   2.121  1.00  0.00    -0.049 A 
HETATM   22  C   UNL     1      43.530 -17.942   3.270  1.00  0.00    -0.049 A 
HETATM   23  C   UNL     1      43.649 -19.998   1.999  1.00  0.00     0.007 A 
HETATM   24  C   UNL     1      43.030 -16.535   3.150  1.00  0.00     0.070 C 
HETATM   25  C   UNL     1      44.230 -18.503   4.324  1.00  0.00     0.007 A 
HETATM   26  C   UNL     1      44.636 -19.835   4.217  1.00  0.00     0.001 A 
HETATM   27  C   UNL     1      44.349 -20.576   3.061  1.00  0.00     0.001 A 
ENDBRANCH   3  18
TORSDOF 5
ENDMDL
MODEL 7
REMARK VINA RESULT:      -8.2      7.588     10.261
REMARK  5 active torsions:
REMARK  status: ('A' for Active; 'I' for Inactive)
REMARK    1  A    between atoms: C_2  and  C_3 
REMARK    2  A    between atoms: N_4  and  C_5 
REMARK    3  A    between atoms: C_5  and  C_6 
REMARK    4  A    between atoms: C_11  and  N_12 
REMARK       I    between atoms: N_12  and  C_13 
REMARK       I    between atoms: C_13  and  N_14 
REMARK    5  A    between atoms: N_14  and  C_15 
ROOT
HETATM    1  N   UNL     1      39.827 -15.950   1.712  1.00  0.00    -0.306 N 
HETATM    2  C   UNL     1      40.742 -16.963   1.695  1.00  0.00     0.321 C 
HETATM    3  N   UNL     1      42.018 -16.634   2.053  1.00  0.00    -0.333 N 
HETATM    4  O   UNL     1      40.378 -18.106   1.437  1.00  0.00    -0.247 OA
HETATM    5  H   UNL     1      38.877 -16.283   1.642  1.00  0.00     0.171 HD
HETATM    6  H   UNL     1      42.059 -15.870   2.716  1.00  0.00     0.165 HD
ENDROOT
BRANCH   1   7
HETATM    7  C   UNL     1      40.033 -14.597   1.515  1.00  0.00     0.080 A 
HETATM    8  C   UNL     1      40.153 -13.969   0.282  1.00  0.00     0.058 A 
HETATM    9  N   UNL     1      40.497 -12.662   0.586  1.00  0.00    -0.272 N 
HETATM   10  N   UNL     1      40.476 -12.391   1.903  1.00  0.00    -0.182 NA
HETATM   11  C   UNL     1      40.230 -13.572   2.466  1.00  0.00     0.170 A 
BRANCH   8  12
HETATM   12  C   UNL     1      39.997 -14.410  -1.145  1.00  0.00     0.057 C 
HETATM   13  C   UNL     1      41.050 -15.368  -1.677  1.00  0.00     0.011 C 
ENDBRANCH   8  12
BRANCH   9  14
HETATM   14  C   UNL     1      40.891 -11.595  -0.322  1.00  0.00     0.155 C 
BRANCH  14  15
HETATM   15  C   UNL     1      42.411 -11.515  -0.553  1.00  0.00    -0.003 C 
HETATM   16  C   UNL     1      42.819 -12.068  -1.921  1.00  0.00     0.011 C 
HETATM   17  C   UNL     1      42.880 -10.065  -0.424  1.00  0.00     0.011 C 
ENDBRANCH  14  15
ENDBRANCH   9  14
ENDBRANCH   1   7
BRANCH   3  18
HETATM   18  C   UNL     1      43.116 -17.615   2.098  1.00  0.00     0.039 C 
HETATM   19  C   UNL     1      44.373 -16.999   1.447  1.00  0.00     0.039 C 
HETATM   20  C   UNL     1      43.441 -17.996   3.578  1.00  0.00     0.070 C 
HETATM   21  C   UNL     1      43.869 -19.428   3.464  1.00  0.00    -0.049 A 
HETATM   22  C   UNL     1      43.481 -19.971   2.237  1.00  0.00    -0.049 A 
HETATM   23  C   UNL     1      44.524 -20.198   4.410  1.00  0.00     0.007 A 
HETATM   24  C   UNL     1      42.748 -18.964   1.406  1.00  0.00     0.070 C 
HETATM   25  C   UNL     1      43.745 -21.295   1.926  1.00  0.00     0.007 A 
HETATM   26  C   UNL     1      44.417 -22.076   2.866  1.00  0.00     0.001 A 
HETATM   27  C   UNL     1      44.802 -21.532   4.101  1.00  0.00     0.001 A 
ENDBRANCH   3  18
TORSDOF 5
ENDMDL
MODEL 8
REMARK VINA RESULT:      -8.0      6.449     10.190
REMARK  5 active torsions:
REMARK  status: ('A' for Active; 'I' for Inactive)
REMARK    1  A    between atoms: C_2  and  C_3 
REMARK    2  A    between atoms: N_4  and  C_5 
REMARK    3  A    between atoms: C_5  and  C_6 
REMARK    4  A    between atoms: C_11  and  N_12 
REMARK       I    between atoms: N_12  and  C_13 
REMARK       I    between atoms: C_13  and  N_14 
REMARK    5  A    between atoms: N_14  and  C_15 
ROOT
HETATM    1  N   UNL     1      39.620 -16.058   2.031  1.00  0.00    -0.306 N 
HETATM    2  C   UNL     1      40.662 -16.900   1.772  1.00  0.00     0.321 C 
HETATM    3  N   UNL     1      41.681 -16.902   2.680  1.00  0.00    -0.333 N 
HETATM    4  O   UNL     1      40.609 -17.651   0.802  1.00  0.00    -0.247 OA
HETATM    5  H   UNL     1      38.816 -16.243   1.451  1.00  0.00     0.171 HD
HETATM    6  H   UNL     1      41.375 -16.683   3.619  1.00  0.00     0.165 HD
ENDROOT
BRANCH   1   7
HETATM    7  C   UNL     1      39.628 -14.861   2.725  1.00  0.00     0.080 A 
HETATM    8  C   UNL     1      39.319 -13.617   2.193  1.00  0.00     0.058 A 
HETATM    9  N   UNL     1      39.612 -12.719   3.207  1.00  0.00    -0.272 N 
HETATM   10  N   UNL     1      39.955 -13.308   4.366  1.00  0.00    -0.182 NA
HETATM   11  C   UNL     1      39.999 -14.603   4.063  1.00  0.00     0.170 A 
BRANCH   8  12
HETATM   12  C   UNL     1      38.792 -13.136   0.871  1.00  0.00     0.057 C 
HETATM   13  C   UNL     1      37.295 -13.269   0.651  1.00  0.00     0.011 C 
ENDBRANCH   8  12
BRANCH   9  14
HETATM   14  C   UNL     1      39.617 -11.265   3.155  1.00  0.00     0.155 C 
BRANCH  14  15
HETATM   15  C   UNL     1      38.352 -10.625   3.758  1.00  0.00    -0.003 C 
HETATM   16  C   UNL     1      38.685  -9.528   4.771  1.00  0.00     0.011 C 
HETATM   17  C   UNL     1      37.481 -10.047   2.641  1.00  0.00     0.011 C 
ENDBRANCH  14  15
ENDBRANCH   9  14
ENDBRANCH   1   7
BRANCH   3  18
HETATM   18  C   UNL     1      42.869 -17.764   2.550  1.00  0.00     0.039 C 
HETATM   19  C   UNL     1      44.004 -16.965   1.873  1.00  0.00     0.039 C 
HETATM   20  C   UNL     1      43.349 -18.240   3.959  1.00  0.00     0.070 C 
HETATM   21  C   UNL     1      43.902 -19.603   3.676  1.00  0.00    -0.049 A 
HETATM   22  C   UNL     1      43.470 -20.072   2.433  1.00  0.00    -0.049 A 
HETATM   23  C   UNL     1      44.703 -20.384   4.492  1.00  0.00     0.007 A 
HETATM   24  C   UNL     1      42.578 -19.076   1.759  1.00  0.00     0.070 C 
HETATM   25  C   UNL     1      43.834 -21.328   1.976  1.00  0.00     0.007 A 
HETATM   26  C   UNL     1      44.653 -22.117   2.785  1.00  0.00     0.001 A 
HETATM   27  C   UNL     1      45.083 -21.648   4.036  1.00  0.00     0.001 A 
ENDBRANCH   3  18
TORSDOF 5
ENDMDL
MODEL 9
REMARK VINA RESULT:      -7.9      6.636      9.753
REMARK  5 active torsions:
REMARK  status: ('A' for Active; 'I' for Inactive)
REMARK    1  A    between atoms: C_2  and  C_3 
REMARK    2  A    between atoms: N_4  and  C_5 
REMARK    3  A    between atoms: C_5  and  C_6 
REMARK    4  A    between atoms: C_11  and  N_12 
REMARK       I    between atoms: N_12  and  C_13 
REMARK       I    between atoms: C_13  and  N_14 
REMARK    5  A    between atoms: N_14  and  C_15 
ROOT
HETATM    1  N   UNL     1      40.107 -16.633   2.838  1.00  0.00    -0.306 N 
HETATM    2  C   UNL     1      39.806 -15.593   2.007  1.00  0.00     0.321 C 
HETATM    3  N   UNL     1      40.865 -14.932   1.455  1.00  0.00    -0.333 N 
HETATM    4  O   UNL     1      38.633 -15.348   1.741  1.00  0.00    -0.247 OA
HETATM    5  H   UNL     1      39.305 -17.206   3.051  1.00  0.00     0.171 HD
HETATM    6  H   UNL     1      41.675 -15.524   1.319  1.00  0.00     0.165 HD
ENDROOT
BRANCH   1   7
HETATM    7  C   UNL     1      41.231 -16.814   3.623  1.00  0.00     0.080 A 
HETATM    8  C   UNL     1      42.322 -17.610   3.301  1.00  0.00     0.058 A 
HETATM    9  N   UNL     1      43.111 -17.601   4.439  1.00  0.00    -0.272 N 
HETATM   10  N   UNL     1      42.670 -16.765   5.395  1.00  0.00    -0.182 NA
HETATM   11  C   UNL     1      41.513 -16.316   4.914  1.00  0.00     0.170 A 
BRANCH   8  12
HETATM   12  C   UNL     1      42.738 -18.387   2.084  1.00  0.00     0.057 C 
HETATM   13  C   UNL     1      43.628 -17.662   1.091  1.00  0.00     0.011 C 
ENDBRANCH   8  12
BRANCH   9  14
HETATM   14  C   UNL     1      44.306 -18.383   4.719  1.00  0.00     0.155 C 
BRANCH  14  15
HETATM   15  C   UNL     1      44.008 -19.843   5.105  1.00  0.00    -0.003 C 
HETATM   16  C   UNL     1      45.086 -20.808   4.605  1.00  0.00     0.011 C 
HETATM   17  C   UNL     1      43.878 -19.961   6.625  1.00  0.00     0.011 C 
ENDBRANCH  14  15
ENDBRANCH   9  14
ENDBRANCH   1   7
BRANCH   3  18
HETATM   18  C   UNL     1      40.707 -13.798   0.528  1.00  0.00     0.039 C 
HETATM   19  C   UNL     1      39.720 -12.778   1.138  1.00  0.00     0.039 C 
HETATM   20  C   UNL     1      42.083 -13.098   0.288  1.00  0.00     0.070 C 
HETATM   21  C   UNL     1      41.970 -12.624  -1.129  1.00  0.00    -0.049 A 
HETATM   22  C   UNL     1      40.921 -13.266  -1.791  1.00  0.00    -0.049 A 
HETATM   23  C   UNL     1      42.776 -11.711  -1.788  1.00  0.00     0.007 A 
HETATM   24  C   UNL     1      40.228 -14.240  -0.890  1.00  0.00     0.070 C 
HETATM   25  C   UNL     1      40.651 -13.005  -3.124  1.00  0.00     0.007 A 
HETATM   26  C   UNL     1      41.448 -12.076  -3.794  1.00  0.00     0.001 A 
HETATM   27  C   UNL     1      42.505 -11.435  -3.130  1.00  0.00     0.001 A 
ENDBRANCH   3  18
TORSDOF 5
ENDMDL
MODEL 10
REMARK VINA RESULT:      -7.8      4.468      6.229
REMARK  5 active torsions:
REMARK  status: ('A' for Active; 'I' for Inactive)
REMARK    1  A    between atoms: C_2  and  C_3 
REMARK    2  A    between atoms: N_4  and  C_5 
REMARK    3  A    between atoms: C_5  and  C_6 
REMARK    4  A    between atoms: C_11  and  N_12 
REMARK       I    between atoms: N_12  and  C_13 
REMARK       I    between atoms: C_13  and  N_14 
REMARK    5  A    between atoms: N_14  and  C_15 
ROOT
HETATM    1  N   UNL     1      41.381 -17.473   5.225  1.00  0.00    -0.306 N 
HETATM    2  C   UNL     1      41.233 -16.116   5.220  1.00  0.00     0.321 C 
HETATM    3  N   UNL     1      42.102 -15.413   4.435  1.00  0.00    -0.333 N 
HETATM    4  O   UNL     1      40.309 -15.604   5.844  1.00  0.00    -0.247 OA
HETATM    5  H   UNL     1      40.599 -17.948   5.649  1.00  0.00     0.171 HD
HETATM    6  H   UNL     1      42.411 -15.933   3.623  1.00  0.00     0.165 HD
ENDROOT
BRANCH   1   7
HETATM    7  C   UNL     1      42.528 -18.217   5.016  1.00  0.00     0.080 A 
HETATM    8  C   UNL     1      42.993 -18.655   3.783  1.00  0.00     0.058 A 
HETATM    9  N   UNL     1      44.066 -19.477   4.085  1.00  0.00    -0.272 N 
HETATM   10  N   UNL     1      44.388 -19.486   5.391  1.00  0.00    -0.182 NA
HETATM   11  C   UNL     1      43.434 -18.752   5.957  1.00  0.00     0.170 A 
BRANCH   8  12
HETATM   12  C   UNL     1      42.581 -18.423   2.357  1.00  0.00     0.057 C 
HETATM   13  C   UNL     1      43.412 -17.429   1.566  1.00  0.00     0.011 C 
ENDBRANCH   8  12
BRANCH   9  14
HETATM   14  C   UNL     1      44.841 -20.322   3.188  1.00  0.00     0.155 C 
BRANCH  14  15
HETATM   15  C   UNL     1      44.157 -21.663   2.865  1.00  0.00    -0.003 C 
HETATM   16  C   UNL     1      44.285 -22.037   1.386  1.00  0.00     0.011 C 
HETATM   17  C   UNL     1      44.757 -22.773   3.729  1.00  0.00     0.011 C 
ENDBRANCH  14  15
ENDBRANCH   9  14
ENDBRANCH   1   7
BRANCH   3  18
HETATM   18  C   UNL     1      42.063 -13.946   4.311  1.00  0.00     0.039 C 
HETATM   19  C   UNL     1      43.146 -13.493   3.307  1.00  0.00     0.039 C 
HETATM   20  C   UNL     1      40.662 -13.482   3.797  1.00  0.00     0.070 C 
HETATM   21  C   UNL     1      40.484 -12.157   4.472  1.00  0.00    -0.049 A 
HETATM   22  C   UNL     1      41.383 -12.008   5.531  1.00  0.00    -0.049 A 
HETATM   23  C   UNL     1      39.556 -11.171   4.182  1.00  0.00     0.007 A 
HETATM   24  C   UNL     1      42.250 -13.220   5.680  1.00  0.00     0.070 C 
HETATM   25  C   UNL     1      41.378 -10.869   6.319  1.00  0.00     0.007 A 
HETATM   26  C   UNL     1      40.456  -9.864   6.026  1.00  0.00     0.001 A 
HETATM   27  C   UNL     1      39.550 -10.015   4.966  1.00  0.00     0.001 A 
ENDBRANCH   3  18
TORSDOF 5
ENDMDL
