MODEL 1
REMARK VINA RESULT:      -8.8      0.000      0.000
REMARK  3 active torsions:
REMARK  status: ('A' for Active; 'I' for Inactive)
REMARK    1  A    between atoms: C_4  and  N_5 
REMARK       I    between atoms: N_5  and  C_6 
REMARK    2  A    between atoms: C_6  and  C_7 
REMARK    3  A    between atoms: C_7  and  C_8 
ROOT
HETATM    1  C   UNL     1      43.868 -15.809   7.281  1.00  0.00     0.286 C 
HETATM    2  N   UNL     1      42.413 -15.970   6.783  1.00  0.00    -0.056 N 
HETATM    3  H   UNL     1      42.137 -16.961   6.807  1.00  0.00     0.278 HD
HETATM    4  H   UNL     1      41.804 -15.482   7.454  1.00  0.00     0.278 HD
HETATM    5  C   UNL     1      42.217 -15.380   5.408  1.00  0.00     0.209 C 
HETATM    6  C   UNL     1      42.603 -13.885   5.448  1.00  0.00     0.115 C 
HETATM    7  N   UNL     1      43.941 -13.679   5.983  1.00  0.00    -0.353 N 
HETATM    8  C   UNL     1      44.371 -14.357   7.103  1.00  0.00     0.249 C 
HETATM    9  O   UNL     1      45.114 -13.820   7.918  1.00  0.00    -0.271 OA
HETATM   10  C   UNL     1      40.769 -15.561   4.965  1.00  0.00     0.035 C 
HETATM   11  C   UNL     1      40.558 -14.927   3.590  1.00  0.00     0.002 C 
HETATM   12  C   UNL     1      41.001 -13.463   3.550  1.00  0.00     0.002 C 
HETATM   13  C   UNL     1      42.431 -13.268   4.060  1.00  0.00     0.027 C 
HETATM   14  H   UNL     1      44.318 -12.732   5.958  1.00  0.00     0.163 HD
ENDROOT
BRANCH   1  15
HETATM   15  C   UNL     1      44.720 -16.926   6.670  1.00  0.00     0.146 C 
BRANCH  15  16
HETATM   16  C   UNL     1      44.248 -18.304   7.070  1.00  0.00     0.224 C 
HETATM   17  N   UNL     1      43.706 -19.154   6.156  1.00  0.00    -0.327 N 
HETATM   18  H   UNL     1      43.191 -19.916   6.590  1.00  0.00     0.169 HD
HETATM   19  O   UNL     1      44.302 -18.638   8.253  1.00  0.00    -0.273 OA
BRANCH  17  20
HETATM   20  C   UNL     1      43.881 -19.264   4.764  1.00  0.00     0.035 A 
HETATM   21  C   UNL     1      44.173 -20.466   4.112  1.00  0.00     0.036 A 
HETATM   22  C   UNL     1      44.311 -20.510   2.718  1.00  0.00    -0.059 A 
HETATM   23  C   UNL     1      44.599 -21.803   2.010  1.00  0.00     0.048 C 
HETATM   24  C   UNL     1      44.110 -19.344   1.973  1.00  0.00     0.013 A 
HETATM   25  C   UNL     1      43.770 -18.143   2.604  1.00  0.00    -0.059 A 
HETATM   26  C   UNL     1      43.649 -18.115   4.000  1.00  0.00     0.036 A 
HETATM   27  C   UNL     1      43.516 -16.913   1.780  1.00  0.00     0.048 C 
ENDBRANCH  17  20
ENDBRANCH  15  16
ENDBRANCH   1  15
TORSDOF 3
ENDMDL
MODEL 2
REMARK VINA RESULT:      -8.5      3.676      5.082
REMARK  3 active torsions:
REMARK  status: ('A' for Active; 'I' for Inactive)
REMARK    1  A    between atoms: C_4  and  N_5 
REMARK       I    between atoms: N_5  and  C_6 
REMARK    2  A    between atoms: C_6  and  C_7 
REMARK    3  A    between atoms: C_7  and  C_8 
ROOT
HETATM    1  C   UNL     1      40.255 -16.112   2.529  1.00  0.00     0.286 C 
HETATM    2  N   UNL     1      38.866 -15.583   2.106  1.00  0.00    -0.056 N 
HETATM    3  H   UNL     1      38.260 -16.363   1.820  1.00  0.00     0.278 HD
HETATM    4  H   UNL     1      38.429 -15.166   2.941  1.00  0.00     0.278 HD
HETATM    5  C   UNL     1      38.964 -14.538   1.021  1.00  0.00     0.209 C 
HETATM    6  C   UNL     1      39.845 -13.376   1.527  1.00  0.00     0.115 C 
HETATM    7  N   UNL     1      41.139 -13.838   2.007  1.00  0.00    -0.353 N 
HETATM    8  C   UNL     1      41.243 -14.955   2.808  1.00  0.00     0.249 C 
HETATM    9  O   UNL     1      42.080 -15.014   3.702  1.00  0.00    -0.271 OA
HETATM   10  C   UNL     1      37.571 -14.047   0.643  1.00  0.00     0.035 C 
HETATM   11  C   UNL     1      37.670 -12.960  -0.428  1.00  0.00     0.002 C 
HETATM   12  C   UNL     1      38.598 -11.817  -0.011  1.00  0.00     0.002 C 
HETATM   13  C   UNL     1      39.976 -12.312   0.437  1.00  0.00     0.027 C 
HETATM   14  H   UNL     1      41.824 -13.129   2.272  1.00  0.00     0.163 HD
ENDROOT
BRANCH   1  15
HETATM   15  C   UNL     1      40.695 -17.183   1.526  1.00  0.00     0.146 C 
BRANCH  15  16
HETATM   16  C   UNL     1      41.947 -16.797   0.774  1.00  0.00     0.224 C 
HETATM   17  N   UNL     1      43.181 -17.098   1.263  1.00  0.00    -0.327 N 
HETATM   18  H   UNL     1      43.918 -16.557   0.817  1.00  0.00     0.169 HD
HETATM   19  O   UNL     1      41.847 -16.151  -0.268  1.00  0.00    -0.273 OA
BRANCH  17  20
HETATM   20  C   UNL     1      43.622 -18.123   2.120  1.00  0.00     0.035 A 
HETATM   21  C   UNL     1      43.911 -17.930   3.474  1.00  0.00     0.036 A 
HETATM   22  C   UNL     1      44.325 -19.002   4.278  1.00  0.00    -0.059 A 
HETATM   23  C   UNL     1      44.611 -18.807   5.740  1.00  0.00     0.048 C 
HETATM   24  C   UNL     1      44.406 -20.283   3.723  1.00  0.00     0.013 A 
HETATM   25  C   UNL     1      44.074 -20.503   2.382  1.00  0.00    -0.059 A 
HETATM   26  C   UNL     1      43.676 -19.417   1.590  1.00  0.00     0.036 A 
HETATM   27  C   UNL     1      44.126 -21.894   1.819  1.00  0.00     0.048 C 
ENDBRANCH  17  20
ENDBRANCH  15  16
ENDBRANCH   1  15
TORSDOF 3
ENDMDL
MODEL 3
REMARK VINA RESULT:      -8.3      3.211      6.310
REMARK  3 active torsions:
REMARK  status: ('A' for Active; 'I' for Inactive)
REMARK    1  A    between atoms: C_4  and  N_5 
REMARK       I    between atoms: N_5  and  C_6 
REMARK    2  A    between atoms: C_6  and  C_7 
REMARK    3  A    between atoms: C_7  and  C_8 
ROOT
HETATM    1  C   UNL     1      40.743 -15.008   1.967  1.00  0.00     0.286 C 
HETATM    2  N   UNL     1      40.845 -16.290   2.826  1.00  0.00    -0.056 N 
HETATM    3  H   UNL     1      40.610 -16.081   3.805  1.00  0.00     0.278 HD
HETATM    4  H   UNL     1      40.126 -16.944   2.487  1.00  0.00     0.278 HD
HETATM    5  C   UNL     1      42.203 -16.940   2.714  1.00  0.00     0.209 C 
HETATM    6  C   UNL     1      42.476 -17.270   1.231  1.00  0.00     0.115 C 
HETATM    7  N   UNL     1      42.318 -16.105   0.372  1.00  0.00    -0.353 N 
HETATM    8  C   UNL     1      41.248 -15.250   0.524  1.00  0.00     0.249 C 
HETATM    9  O   UNL     1      40.724 -14.716  -0.447  1.00  0.00    -0.271 OA
HETATM   10  C   UNL     1      42.251 -18.197   3.574  1.00  0.00     0.035 C 
HETATM   11  C   UNL     1      43.612 -18.880   3.431  1.00  0.00     0.002 C 
HETATM   12  C   UNL     1      43.972 -19.159   1.970  1.00  0.00     0.002 C 
HETATM   13  C   UNL     1      43.857 -17.912   1.089  1.00  0.00     0.027 C 
HETATM   14  H   UNL     1      42.571 -16.207  -0.611  1.00  0.00     0.163 HD
ENDROOT
BRANCH   1  15
HETATM   15  C   UNL     1      41.372 -13.849   2.745  1.00  0.00     0.146 C 
BRANCH  15  16
HETATM   16  C   UNL     1      40.546 -13.432   3.938  1.00  0.00     0.224 C 
HETATM   17  N   UNL     1      40.771 -13.966   5.169  1.00  0.00    -0.327 N 
HETATM   18  H   UNL     1      39.993 -13.816   5.807  1.00  0.00     0.169 HD
HETATM   19  O   UNL     1      39.617 -12.639   3.781  1.00  0.00    -0.273 OA
BRANCH  17  20
HETATM   20  C   UNL     1      41.928 -14.514   5.753  1.00  0.00     0.035 A 
HETATM   21  C   UNL     1      43.111 -13.795   5.952  1.00  0.00     0.036 A 
HETATM   22  C   UNL     1      44.221 -14.396   6.562  1.00  0.00    -0.059 A 
HETATM   23  C   UNL     1      45.485 -13.621   6.802  1.00  0.00     0.048 C 
HETATM   24  C   UNL     1      44.122 -15.715   7.014  1.00  0.00     0.013 A 
HETATM   25  C   UNL     1      42.931 -16.434   6.868  1.00  0.00    -0.059 A 
HETATM   26  C   UNL     1      41.836 -15.821   6.243  1.00  0.00     0.036 A 
HETATM   27  C   UNL     1      42.835 -17.835   7.400  1.00  0.00     0.048 C 
ENDBRANCH  17  20
ENDBRANCH  15  16
ENDBRANCH   1  15
TORSDOF 3
ENDMDL
MODEL 4
REMARK VINA RESULT:      -8.2      3.135      4.538
REMARK  3 active torsions:
REMARK  status: ('A' for Active; 'I' for Inactive)
REMARK    1  A    between atoms: C_4  and  N_5 
REMARK       I    between atoms: N_5  and  C_6 
REMARK    2  A    between atoms: C_6  and  C_7 
REMARK    3  A    between atoms: C_7  and  C_8 
ROOT
HETATM    1  C   UNL     1      41.337 -16.145   1.756  1.00  0.00     0.286 C 
HETATM    2  N   UNL     1      42.503 -15.200   2.130  1.00  0.00    -0.056 N 
HETATM    3  H   UNL     1      43.387 -15.558   1.745  1.00  0.00     0.278 HD
HETATM    4  H   UNL     1      42.328 -14.298   1.666  1.00  0.00     0.278 HD
HETATM    5  C   UNL     1      42.601 -14.984   3.621  1.00  0.00     0.209 C 
HETATM    6  C   UNL     1      41.262 -14.405   4.128  1.00  0.00     0.115 C 
HETATM    7  N   UNL     1      40.126 -15.224   3.733  1.00  0.00    -0.353 N 
HETATM    8  C   UNL     1      40.022 -15.727   2.454  1.00  0.00     0.249 C 
HETATM    9  O   UNL     1      38.931 -15.828   1.903  1.00  0.00    -0.271 OA
HETATM   10  C   UNL     1      43.760 -14.046   3.936  1.00  0.00     0.035 C 
HETATM   11  C   UNL     1      43.836 -13.793   5.442  1.00  0.00     0.002 C 
HETATM   12  C   UNL     1      42.508 -13.292   6.015  1.00  0.00     0.002 C 
HETATM   13  C   UNL     1      41.329 -14.195   5.641  1.00  0.00     0.027 C 
HETATM   14  H   UNL     1      39.211 -14.970   4.105  1.00  0.00     0.163 HD
ENDROOT
BRANCH   1  15
HETATM   15  C   UNL     1      41.802 -17.592   1.944  1.00  0.00     0.146 C 
BRANCH  15  16
HETATM   16  C   UNL     1      43.245 -17.797   1.547  1.00  0.00     0.224 C 
HETATM   17  N   UNL     1      44.188 -18.128   2.470  1.00  0.00    -0.327 N 
HETATM   18  H   UNL     1      45.134 -17.969   2.135  1.00  0.00     0.169 HD
HETATM   19  O   UNL     1      43.580 -17.605   0.378  1.00  0.00    -0.273 OA
BRANCH  17  20
HETATM   20  C   UNL     1      44.094 -18.802   3.702  1.00  0.00     0.035 A 
HETATM   21  C   UNL     1      44.510 -20.122   3.897  1.00  0.00     0.036 A 
HETATM   22  C   UNL     1      44.410 -20.726   5.159  1.00  0.00    -0.059 A 
HETATM   23  C   UNL     1      44.881 -22.135   5.381  1.00  0.00     0.048 C 
HETATM   24  C   UNL     1      43.927 -19.980   6.238  1.00  0.00     0.013 A 
HETATM   25  C   UNL     1      43.550 -18.644   6.072  1.00  0.00    -0.059 A 
HETATM   26  C   UNL     1      43.645 -18.061   4.801  1.00  0.00     0.036 A 
HETATM   27  C   UNL     1      43.075 -17.850   7.255  1.00  0.00     0.048 C 
ENDBRANCH  17  20
ENDBRANCH  15  16
ENDBRANCH   1  15
TORSDOF 3
ENDMDL
MODEL 5
REMARK VINA RESULT:      -8.1      2.631      3.970
REMARK  3 active torsions:
REMARK  status: ('A' for Active; 'I' for Inactive)
REMARK    1  A    between atoms: C_4  and  N_5 
REMARK       I    between atoms: N_5  and  C_6 
REMARK    2  A    between atoms: C_6  and  C_7 
REMARK    3  A    between atoms: C_7  and  C_8 
ROOT
HETATM    1  C   UNL     1      41.124 -15.971   4.344  1.00  0.00     0.286 C 
HETATM    2  N   UNL     1      40.241 -15.111   3.411  1.00  0.00    -0.056 N 
HETATM    3  H   UNL     1      40.595 -15.156   2.446  1.00  0.00     0.278 HD
HETATM    4  H   UNL     1      39.304 -15.537   3.397  1.00  0.00     0.278 HD
HETATM    5  C   UNL     1      40.133 -13.683   3.889  1.00  0.00     0.209 C 
HETATM    6  C   UNL     1      39.555 -13.681   5.321  1.00  0.00     0.115 C 
HETATM    7  N   UNL     1      40.312 -14.539   6.220  1.00  0.00    -0.353 N 
HETATM    8  C   UNL     1      40.720 -15.796   5.827  1.00  0.00     0.249 C 
HETATM    9  O   UNL     1      40.752 -16.726   6.625  1.00  0.00    -0.271 OA
HETATM   10  C   UNL     1      39.252 -12.881   2.939  1.00  0.00     0.035 C 
HETATM   11  C   UNL     1      39.108 -11.444   3.444  1.00  0.00     0.002 C 
HETATM   12  C   UNL     1      38.613 -11.384   4.891  1.00  0.00     0.002 C 
HETATM   13  C   UNL     1      39.454 -12.245   5.836  1.00  0.00     0.027 C 
HETATM   14  H   UNL     1      40.060 -14.525   7.208  1.00  0.00     0.163 HD
ENDROOT
BRANCH   1  15
HETATM   15  C   UNL     1      42.593 -15.730   3.984  1.00  0.00     0.146 C 
BRANCH  15  16
HETATM   16  C   UNL     1      42.885 -15.984   2.524  1.00  0.00     0.224 C 
HETATM   17  N   UNL     1      43.654 -17.037   2.135  1.00  0.00    -0.327 N 
HETATM   18  H   UNL     1      43.994 -16.940   1.181  1.00  0.00     0.169 HD
HETATM   19  O   UNL     1      42.467 -15.192   1.680  1.00  0.00    -0.273 OA
BRANCH  17  20
HETATM   20  C   UNL     1      43.905 -18.284   2.736  1.00  0.00     0.035 A 
HETATM   21  C   UNL     1      44.043 -18.467   4.115  1.00  0.00     0.036 A 
HETATM   22  C   UNL     1      44.268 -19.743   4.651  1.00  0.00    -0.059 A 
HETATM   23  C   UNL     1      44.391 -19.948   6.134  1.00  0.00     0.048 C 
HETATM   24  C   UNL     1      44.312 -20.846   3.794  1.00  0.00     0.013 A 
HETATM   25  C   UNL     1      44.129 -20.689   2.416  1.00  0.00    -0.059 A 
HETATM   26  C   UNL     1      43.917 -19.405   1.897  1.00  0.00     0.036 A 
HETATM   27  C   UNL     1      44.136 -21.895   1.520  1.00  0.00     0.048 C 
ENDBRANCH  17  20
ENDBRANCH  15  16
ENDBRANCH   1  15
TORSDOF 3
ENDMDL
MODEL 6
REMARK VINA RESULT:      -8.1      1.867      2.871
REMARK  3 active torsions:
REMARK  status: ('A' for Active; 'I' for Inactive)
REMARK    1  A    between atoms: C_4  and  N_5 
REMARK       I    between atoms: N_5  and  C_6 
REMARK    2  A    between atoms: C_6  and  C_7 
REMARK    3  A    between atoms: C_7  and  C_8 
ROOT
HETATM    1  C   UNL     1      42.212 -15.241   5.703  1.00  0.00     0.286 C 
HETATM    2  N   UNL     1      41.304 -16.102   4.794  1.00  0.00    -0.056 N 
HETATM    3  H   UNL     1      41.320 -17.082   5.104  1.00  0.00     0.278 HD
HETATM    4  H   UNL     1      40.338 -15.770   4.923  1.00  0.00     0.278 HD
HETATM    5  C   UNL     1      41.684 -15.980   3.338  1.00  0.00     0.209 C 
HETATM    6  C   UNL     1      41.597 -14.495   2.924  1.00  0.00     0.115 C 
HETATM    7  N   UNL     1      42.378 -13.635   3.800  1.00  0.00    -0.353 N 
HETATM    8  C   UNL     1      42.342 -13.795   5.168  1.00  0.00     0.249 C 
HETATM    9  O   UNL     1      42.406 -12.826   5.918  1.00  0.00    -0.271 OA
HETATM   10  C   UNL     1      40.760 -16.843   2.486  1.00  0.00     0.035 C 
HETATM   11  C   UNL     1      41.115 -16.690   1.006  1.00  0.00     0.002 C 
HETATM   12  C   UNL     1      41.124 -15.227   0.559  1.00  0.00     0.002 C 
HETATM   13  C   UNL     1      41.996 -14.343   1.455  1.00  0.00     0.027 C 
HETATM   14  H   UNL     1      42.457 -12.651   3.546  1.00  0.00     0.163 HD
ENDROOT
BRANCH   1  15
HETATM   15  C   UNL     1      43.509 -16.010   5.967  1.00  0.00     0.146 C 
BRANCH  15  16
HETATM   16  C   UNL     1      43.363 -17.041   7.061  1.00  0.00     0.224 C 
HETATM   17  N   UNL     1      43.214 -18.361   6.767  1.00  0.00    -0.327 N 
HETATM   18  H   UNL     1      42.858 -18.898   7.554  1.00  0.00     0.169 HD
HETATM   19  O   UNL     1      43.320 -16.672   8.235  1.00  0.00    -0.273 OA
BRANCH  17  20
HETATM   20  C   UNL     1      43.625 -19.124   5.658  1.00  0.00     0.035 A 
HETATM   21  C   UNL     1      43.540 -18.678   4.336  1.00  0.00     0.036 A 
HETATM   22  C   UNL     1      43.991 -19.481   3.278  1.00  0.00    -0.059 A 
HETATM   23  C   UNL     1      43.926 -18.997   1.858  1.00  0.00     0.048 C 
HETATM   24  C   UNL     1      44.570 -20.722   3.560  1.00  0.00     0.013 A 
HETATM   25  C   UNL     1      44.708 -21.163   4.880  1.00  0.00    -0.059 A 
HETATM   26  C   UNL     1      44.239 -20.353   5.924  1.00  0.00     0.036 A 
HETATM   27  C   UNL     1      45.373 -22.480   5.161  1.00  0.00     0.048 C 
ENDBRANCH  17  20
ENDBRANCH  15  16
ENDBRANCH   1  15
TORSDOF 3
ENDMDL
MODEL 7
REMARK VINA RESULT:      -8.1      1.872      6.132
REMARK  3 active torsions:
REMARK  status: ('A' for Active; 'I' for Inactive)
REMARK    1  A    between atoms: C_4  and  N_5 
REMARK       I    between atoms: N_5  and  C_6 
REMARK    2  A    between atoms: C_6  and  C_7 
REMARK    3  A    between atoms: C_7  and  C_8 
ROOT
HETATM    1  C   UNL     1      43.751 -17.700   4.883  1.00  0.00     0.286 C 
HETATM    2  N   UNL     1      43.721 -18.138   3.400  1.00  0.00    -0.056 N 
HETATM    3  H   UNL     1      42.961 -17.657   2.903  1.00  0.00     0.278 HD
HETATM    4  H   UNL     1      44.600 -17.818   2.968  1.00  0.00     0.278 HD
HETATM    5  C   UNL     1      43.610 -19.636   3.255  1.00  0.00     0.209 C 
HETATM    6  C   UNL     1      44.802 -20.296   3.982  1.00  0.00     0.115 C 
HETATM    7  N   UNL     1      44.915 -19.854   5.364  1.00  0.00    -0.353 N 
HETATM    8  C   UNL     1      44.775 -18.524   5.698  1.00  0.00     0.249 C 
HETATM    9  O   UNL     1      45.443 -18.028   6.599  1.00  0.00    -0.271 OA
HETATM   10  C   UNL     1      43.588 -20.016   1.779  1.00  0.00     0.035 C 
HETATM   11  C   UNL     1      43.516 -21.536   1.629  1.00  0.00     0.002 C 
HETATM   12  C   UNL     1      44.630 -22.249   2.398  1.00  0.00     0.002 C 
HETATM   13  C   UNL     1      44.701 -21.818   3.866  1.00  0.00     0.027 C 
HETATM   14  H   UNL     1      45.615 -20.310   5.948  1.00  0.00     0.163 HD
ENDROOT
BRANCH   1  15
HETATM   15  C   UNL     1      42.313 -17.653   5.407  1.00  0.00     0.146 C 
BRANCH  15  16
HETATM   16  C   UNL     1      42.168 -16.786   6.635  1.00  0.00     0.224 C 
HETATM   17  N   UNL     1      42.010 -15.439   6.530  1.00  0.00    -0.327 N 
HETATM   18  H   UNL     1      42.198 -14.954   7.404  1.00  0.00     0.169 HD
HETATM   19  O   UNL     1      42.254 -17.302   7.750  1.00  0.00    -0.273 OA
BRANCH  17  20
HETATM   20  C   UNL     1      41.471 -14.638   5.505  1.00  0.00     0.035 A 
HETATM   21  C   UNL     1      40.705 -15.142   4.449  1.00  0.00     0.036 A 
HETATM   22  C   UNL     1      40.177 -14.285   3.473  1.00  0.00    -0.059 A 
HETATM   23  C   UNL     1      39.332 -14.817   2.352  1.00  0.00     0.048 C 
HETATM   24  C   UNL     1      40.388 -12.907   3.587  1.00  0.00     0.013 A 
HETATM   25  C   UNL     1      41.111 -12.381   4.662  1.00  0.00    -0.059 A 
HETATM   26  C   UNL     1      41.642 -13.254   5.621  1.00  0.00     0.036 A 
HETATM   27  C   UNL     1      41.287 -10.894   4.787  1.00  0.00     0.048 C 
ENDBRANCH  17  20
ENDBRANCH  15  16
ENDBRANCH   1  15
TORSDOF 3
ENDMDL
MODEL 8
REMARK VINA RESULT:      -8.0      1.917      2.442
REMARK  3 active torsions:
REMARK  status: ('A' for Active; 'I' for Inactive)
REMARK    1  A    between atoms: C_4  and  N_5 
REMARK       I    between atoms: N_5  and  C_6 
REMARK    2  A    between atoms: C_6  and  C_7 
REMARK    3  A    between atoms: C_7  and  C_8 
ROOT
HETATM    1  C   UNL     1      42.205 -15.322   5.604  1.00  0.00     0.286 C 
HETATM    2  N   UNL     1      41.278 -16.156   4.690  1.00  0.00    -0.056 N 
HETATM    3  H   UNL     1      41.266 -17.138   4.997  1.00  0.00     0.278 HD
HETATM    4  H   UNL     1      40.320 -15.800   4.818  1.00  0.00     0.278 HD
HETATM    5  C   UNL     1      41.663 -16.041   3.235  1.00  0.00     0.209 C 
HETATM    6  C   UNL     1      41.617 -14.553   2.825  1.00  0.00     0.115 C 
HETATM    7  N   UNL     1      42.418 -13.716   3.706  1.00  0.00    -0.353 N 
HETATM    8  C   UNL     1      42.375 -13.879   5.074  1.00  0.00     0.249 C 
HETATM    9  O   UNL     1      42.463 -12.915   5.827  1.00  0.00    -0.271 OA
HETATM   10  C   UNL     1      40.719 -16.876   2.379  1.00  0.00     0.035 C 
HETATM   11  C   UNL     1      41.081 -16.728   0.900  1.00  0.00     0.002 C 
HETATM   12  C   UNL     1      41.130 -15.264   0.457  1.00  0.00     0.002 C 
HETATM   13  C   UNL     1      42.022 -14.406   1.359  1.00  0.00     0.027 C 
HETATM   14  H   UNL     1      42.523 -12.733   3.455  1.00  0.00     0.163 HD
ENDROOT
BRANCH   1  15
HETATM   15  C   UNL     1      43.482 -16.127   5.868  1.00  0.00     0.146 C 
BRANCH  15  16
HETATM   16  C   UNL     1      43.327 -17.108   7.006  1.00  0.00     0.224 C 
HETATM   17  N   UNL     1      43.247 -18.446   6.774  1.00  0.00    -0.327 N 
HETATM   18  H   UNL     1      42.877 -18.958   7.571  1.00  0.00     0.169 HD
HETATM   19  O   UNL     1      43.213 -16.683   8.156  1.00  0.00    -0.273 OA
BRANCH  17  20
HETATM   20  C   UNL     1      43.742 -19.244   5.726  1.00  0.00     0.035 A 
HETATM   21  C   UNL     1      44.311 -20.507   5.914  1.00  0.00     0.036 A 
HETATM   22  C   UNL     1      44.763 -21.260   4.822  1.00  0.00    -0.059 A 
HETATM   23  C   UNL     1      45.351 -22.629   5.016  1.00  0.00     0.048 C 
HETATM   24  C   UNL     1      44.600 -20.754   3.528  1.00  0.00     0.013 A 
HETATM   25  C   UNL     1      43.990 -19.514   3.317  1.00  0.00    -0.059 A 
HETATM   26  C   UNL     1      43.556 -18.769   4.422  1.00  0.00     0.036 A 
HETATM   27  C   UNL     1      43.787 -19.011   1.917  1.00  0.00     0.048 C 
ENDBRANCH  17  20
ENDBRANCH  15  16
ENDBRANCH   1  15
TORSDOF 3
ENDMDL
MODEL 9
REMARK VINA RESULT:      -7.9      2.801      3.971
REMARK  3 active torsions:
REMARK  status: ('A' for Active; 'I' for Inactive)
REMARK    1  A    between atoms: C_4  and  N_5 
REMARK       I    between atoms: N_5  and  C_6 
REMARK    2  A    between atoms: C_6  and  C_7 
REMARK    3  A    between atoms: C_7  and  C_8 
ROOT
HETATM    1  C   UNL     1      40.864 -15.763   4.226  1.00  0.00     0.286 C 
HETATM    2  N   UNL     1      39.954 -14.752   3.489  1.00  0.00    -0.056 N 
HETATM    3  H   UNL     1      40.188 -14.730   2.488  1.00  0.00     0.278 HD
HETATM    4  H   UNL     1      38.989 -15.104   3.556  1.00  0.00     0.278 HD
HETATM    5  C   UNL     1      40.028 -13.374   4.101  1.00  0.00     0.209 C 
HETATM    6  C   UNL     1      39.623 -13.468   5.588  1.00  0.00     0.115 C 
HETATM    7  N   UNL     1      40.404 -14.464   6.307  1.00  0.00    -0.353 N 
HETATM    8  C   UNL     1      40.653 -15.703   5.758  1.00  0.00     0.249 C 
HETATM    9  O   UNL     1      40.698 -16.706   6.461  1.00  0.00    -0.271 OA
HETATM   10  C   UNL     1      39.113 -12.419   3.342  1.00  0.00     0.035 C 
HETATM   11  C   UNL     1      39.154 -11.032   3.984  1.00  0.00     0.002 C 
HETATM   12  C   UNL     1      38.839 -11.075   5.481  1.00  0.00     0.002 C 
HETATM   13  C   UNL     1      39.708 -12.085   6.236  1.00  0.00     0.027 C 
HETATM   14  H   UNL     1      40.272 -14.527   7.316  1.00  0.00     0.163 HD
ENDROOT
BRANCH   1  15
HETATM   15  C   UNL     1      42.296 -15.599   3.708  1.00  0.00     0.146 C 
BRANCH  15  16
HETATM   16  C   UNL     1      42.420 -15.901   2.234  1.00  0.00     0.224 C 
HETATM   17  N   UNL     1      43.175 -16.943   1.792  1.00  0.00    -0.327 N 
HETATM   18  H   UNL     1      43.395 -16.872   0.801  1.00  0.00     0.169 HD
HETATM   19  O   UNL     1      41.875 -15.157   1.419  1.00  0.00    -0.273 OA
BRANCH  17  20
HETATM   20  C   UNL     1      43.542 -18.157   2.402  1.00  0.00     0.035 A 
HETATM   21  C   UNL     1      43.597 -19.379   1.725  1.00  0.00     0.036 A 
HETATM   22  C   UNL     1      43.994 -20.548   2.389  1.00  0.00    -0.059 A 
HETATM   23  C   UNL     1      44.081 -21.859   1.661  1.00  0.00     0.048 C 
HETATM   24  C   UNL     1      44.379 -20.476   3.731  1.00  0.00     0.013 A 
HETATM   25  C   UNL     1      44.376 -19.254   4.411  1.00  0.00    -0.059 A 
HETATM   26  C   UNL     1      43.964 -18.097   3.735  1.00  0.00     0.036 A 
HETATM   27  C   UNL     1      44.836 -19.193   5.839  1.00  0.00     0.048 C 
ENDBRANCH  17  20
ENDBRANCH  15  16
ENDBRANCH   1  15
TORSDOF 3
ENDMDL
MODEL 10
REMARK VINA RESULT:      -7.8      1.694      5.605
REMARK  3 active torsions:
REMARK  status: ('A' for Active; 'I' for Inactive)
REMARK    1  A    between atoms: C_4  and  N_5 
REMARK       I    between atoms: N_5  and  C_6 
REMARK    2  A    between atoms: C_6  and  C_7 
REMARK    3  A    between atoms: C_7  and  C_8 
ROOT
HETATM    1  C   UNL     1      44.169 -18.542   6.764  1.00  0.00     0.286 C 
HETATM    2  N   UNL     1      44.909 -18.770   5.426  1.00  0.00    -0.056 N 
HETATM    3  H   UNL     1      44.876 -17.917   4.852  1.00  0.00     0.278 HD
HETATM    4  H   UNL     1      45.901 -18.934   5.647  1.00  0.00     0.278 HD
HETATM    5  C   UNL     1      44.362 -19.959   4.672  1.00  0.00     0.209 C 
HETATM    6  C   UNL     1      44.481 -21.211   5.567  1.00  0.00     0.115 C 
HETATM    7  N   UNL     1      43.863 -21.016   6.870  1.00  0.00    -0.353 N 
HETATM    8  C   UNL     1      44.056 -19.851   7.580  1.00  0.00     0.249 C 
HETATM    9  O   UNL     1      44.139 -19.865   8.804  1.00  0.00    -0.271 OA
HETATM   10  C   UNL     1      45.125 -20.142   3.365  1.00  0.00     0.035 C 
HETATM   11  C   UNL     1      44.601 -21.370   2.619  1.00  0.00     0.002 C 
HETATM   12  C   UNL     1      44.620 -22.630   3.488  1.00  0.00     0.002 C 
HETATM   13  C   UNL     1      43.916 -22.427   4.832  1.00  0.00     0.027 C 
HETATM   14  H   UNL     1      43.809 -21.823   7.491  1.00  0.00     0.163 HD
ENDROOT
BRANCH   1  15
HETATM   15  C   UNL     1      42.872 -17.778   6.481  1.00  0.00     0.146 C 
BRANCH  15  16
HETATM   16  C   UNL     1      43.085 -16.286   6.376  1.00  0.00     0.224 C 
HETATM   17  N   UNL     1      43.097 -15.662   5.167  1.00  0.00    -0.327 N 
HETATM   18  H   UNL     1      43.513 -14.735   5.211  1.00  0.00     0.169 HD
HETATM   19  O   UNL     1      43.310 -15.637   7.397  1.00  0.00    -0.273 OA
BRANCH  17  20
HETATM   20  C   UNL     1      42.488 -15.988   3.941  1.00  0.00     0.035 A 
HETATM   21  C   UNL     1      41.212 -15.554   3.569  1.00  0.00     0.036 A 
HETATM   22  C   UNL     1      40.673 -15.896   2.321  1.00  0.00    -0.059 A 
HETATM   23  C   UNL     1      39.314 -15.410   1.905  1.00  0.00     0.048 C 
HETATM   24  C   UNL     1      41.444 -16.644   1.425  1.00  0.00     0.013 A 
HETATM   25  C   UNL     1      42.741 -17.046   1.761  1.00  0.00    -0.059 A 
HETATM   26  C   UNL     1      43.257 -16.706   3.019  1.00  0.00     0.036 A 
HETATM   27  C   UNL     1      43.566 -17.811   0.766  1.00  0.00     0.048 C 
ENDBRANCH  17  20
ENDBRANCH  15  16
ENDBRANCH   1  15
TORSDOF 3
ENDMDL
