MODEL 1
REMARK VINA RESULT:      -8.0      0.000      0.000
REMARK  7 active torsions:
REMARK  status: ('A' for Active; 'I' for Inactive)
REMARK    1  A    between atoms: O_2  and  C_3 
REMARK    2  A    between atoms: C_7  and  C_8 
REMARK    3  A    between atoms: C_8  and  C_9 
REMARK       I    between atoms: C_9  and  N_10 
REMARK    4  A    between atoms: N_10  and  C_11 
REMARK    5  A    between atoms: C_11  and  C_12 
REMARK    6  A    between atoms: C_12  and  N_13 
REMARK    7  A    between atoms: C_12  and  C_19 
ROOT
HETATM    1  C   UNL     1      43.675 -14.388   5.638  1.00  0.00     0.222 C 
HETATM    2  N   UNL     1      43.811 -14.429   4.263  1.00  0.00    -0.358 N 
HETATM    3  O   UNL     1      42.778 -13.723   6.153  1.00  0.00    -0.273 OA
HETATM    4  H   UNL     1      44.420 -15.147   3.887  1.00  0.00     0.162 HD
ENDROOT
BRANCH   2   5
HETATM    5  C   UNL     1      42.745 -13.977   3.387  1.00  0.00     0.160 C 
BRANCH   5   6
HETATM    6  C   UNL     1      41.678 -15.025   2.918  1.00  0.00     0.240 C 
BRANCH   6   7
HETATM    7  N   UNL     1      40.740 -14.481   1.826  1.00  0.00    -0.061 N 
HETATM    8  H   UNL     1      41.245 -14.684   0.953  1.00  0.00     0.280 HD
HETATM    9  C   UNL     1      40.460 -13.000   1.815  1.00  0.00     0.236 C 
HETATM   10  C   UNL     1      38.978 -12.900   2.106  1.00  0.00     0.029 C 
HETATM   11  C   UNL     1      38.407 -14.113   1.397  1.00  0.00     0.029 C 
HETATM   12  C   UNL     1      39.421 -15.209   1.665  1.00  0.00     0.236 C 
ENDBRANCH   6   7
BRANCH   6  13
HETATM   13  C   UNL     1      42.294 -16.355   2.467  1.00  0.00    -0.004 A 
HETATM   14  C   UNL     1      42.076 -17.537   3.207  1.00  0.00     0.042 A 
HETATM   15 CL   UNL     1      41.062 -17.552   4.608  1.00  0.00    -0.084 Cl
HETATM   16  C   UNL     1      42.637 -18.755   2.812  1.00  0.00     0.024 A 
HETATM   17  C   UNL     1      43.422 -18.825   1.665  1.00  0.00     0.002 A 
HETATM   18  C   UNL     1      43.641 -17.679   0.911  1.00  0.00     0.001 A 
HETATM   19  C   UNL     1      43.081 -16.460   1.302  1.00  0.00     0.011 A 
ENDBRANCH   6  13
ENDBRANCH   5   6
ENDBRANCH   2   5
BRANCH   1  20
HETATM   20  C   UNL     1      44.660 -15.217   6.467  1.00  0.00     0.144 C 
BRANCH  20  21
HETATM   21  C   UNL     1      44.089 -16.509   6.952  1.00  0.00    -0.014 A 
HETATM   22  C   UNL     1      44.263 -17.807   6.375  1.00  0.00     0.006 A 
HETATM   23  C   UNL     1      43.666 -18.702   7.251  1.00  0.00     0.088 A 
HETATM   24  C   UNL     1      44.915 -18.318   5.238  1.00  0.00     0.017 A 
HETATM   25  C   UNL     1      43.695 -20.089   7.107  1.00  0.00     0.074 A 
HETATM   26  O   UNL     1      43.079 -18.029   8.278  1.00  0.00    -0.321 OA
HETATM   27  C   UNL     1      44.394 -20.584   6.000  1.00  0.00     0.070 A 
HETATM   28  C   UNL     1      44.975 -19.708   5.074  1.00  0.00     0.038 A 
HETATM   29  C   UNL     1      43.315 -16.707   8.078  1.00  0.00     0.151 A 
BRANCH  27  30
HETATM   30  O   UNL     1      44.586 -21.909   5.710  1.00  0.00    -0.356 OA
HETATM   31  C   UNL     1      44.736 -22.255   4.339  1.00  0.00     0.210 C 
ENDBRANCH  27  30
ENDBRANCH  20  21
ENDBRANCH   1  20
TORSDOF 7
ENDMDL
MODEL 2
REMARK VINA RESULT:      -7.6      2.571      3.561
REMARK  7 active torsions:
REMARK  status: ('A' for Active; 'I' for Inactive)
REMARK    1  A    between atoms: O_2  and  C_3 
REMARK    2  A    between atoms: C_7  and  C_8 
REMARK    3  A    between atoms: C_8  and  C_9 
REMARK       I    between atoms: C_9  and  N_10 
REMARK    4  A    between atoms: N_10  and  C_11 
REMARK    5  A    between atoms: C_11  and  C_12 
REMARK    6  A    between atoms: C_12  and  N_13 
REMARK    7  A    between atoms: C_12  and  C_19 
ROOT
HETATM    1  C   UNL     1      41.615 -12.199   3.413  1.00  0.00     0.222 C 
HETATM    2  N   UNL     1      42.451 -12.804   2.493  1.00  0.00    -0.358 N 
HETATM    3  O   UNL     1      40.684 -11.490   3.033  1.00  0.00    -0.273 OA
HETATM    4  H   UNL     1      43.058 -13.536   2.843  1.00  0.00     0.162 HD
ENDROOT
BRANCH   2   5
HETATM    5  C   UNL     1      42.086 -12.896   1.090  1.00  0.00     0.160 C 
BRANCH   5   6
HETATM    6  C   UNL     1      41.496 -14.250   0.566  1.00  0.00     0.240 C 
BRANCH   6   7
HETATM    7  N   UNL     1      41.897 -14.558  -0.886  1.00  0.00    -0.061 N 
HETATM    8  H   UNL     1      42.824 -14.995  -0.793  1.00  0.00     0.280 HD
HETATM    9  C   UNL     1      42.074 -13.395  -1.828  1.00  0.00     0.236 C 
HETATM   10  C   UNL     1      40.987 -13.585  -2.863  1.00  0.00     0.029 C 
HETATM   11  C   UNL     1      40.914 -15.093  -3.011  1.00  0.00     0.029 C 
HETATM   12  C   UNL     1      41.065 -15.610  -1.592  1.00  0.00     0.236 C 
ENDBRANCH   6   7
BRANCH   6  13
HETATM   13  C   UNL     1      41.829 -15.444   1.468  1.00  0.00    -0.004 A 
HETATM   14  C   UNL     1      40.815 -16.095   2.205  1.00  0.00     0.042 A 
HETATM   15 CL   UNL     1      39.157 -15.618   2.076  1.00  0.00    -0.084 Cl
HETATM   16  C   UNL     1      41.104 -17.180   3.037  1.00  0.00     0.024 A 
HETATM   17  C   UNL     1      42.410 -17.648   3.148  1.00  0.00     0.002 A 
HETATM   18  C   UNL     1      43.425 -17.036   2.423  1.00  0.00     0.001 A 
HETATM   19  C   UNL     1      43.139 -15.951   1.590  1.00  0.00     0.011 A 
ENDBRANCH   6  13
ENDBRANCH   5   6
ENDBRANCH   2   5
BRANCH   1  20
HETATM   20  C   UNL     1      41.882 -12.475   4.895  1.00  0.00     0.144 C 
BRANCH  20  21
HETATM   21  C   UNL     1      41.436 -13.830   5.338  1.00  0.00    -0.014 A 
HETATM   22  C   UNL     1      42.261 -14.920   5.762  1.00  0.00     0.006 A 
HETATM   23  C   UNL     1      41.394 -15.909   6.207  1.00  0.00     0.088 A 
HETATM   24  C   UNL     1      43.645 -15.146   5.870  1.00  0.00     0.017 A 
HETATM   25  C   UNL     1      41.797 -17.108   6.795  1.00  0.00     0.074 A 
HETATM   26  O   UNL     1      40.104 -15.521   6.012  1.00  0.00    -0.321 OA
HETATM   27  C   UNL     1      43.175 -17.293   6.945  1.00  0.00     0.070 A 
HETATM   28  C   UNL     1      44.079 -16.335   6.471  1.00  0.00     0.038 A 
HETATM   29  C   UNL     1      40.136 -14.279   5.464  1.00  0.00     0.151 A 
BRANCH  27  30
HETATM   30  O   UNL     1      43.770 -18.372   7.545  1.00  0.00    -0.356 OA
HETATM   31  C   UNL     1      43.855 -19.570   6.783  1.00  0.00     0.210 C 
ENDBRANCH  27  30
ENDBRANCH  20  21
ENDBRANCH   1  20
TORSDOF 7
ENDMDL
MODEL 3
REMARK VINA RESULT:      -7.5      2.747      6.667
REMARK  7 active torsions:
REMARK  status: ('A' for Active; 'I' for Inactive)
REMARK    1  A    between atoms: O_2  and  C_3 
REMARK    2  A    between atoms: C_7  and  C_8 
REMARK    3  A    between atoms: C_8  and  C_9 
REMARK       I    between atoms: C_9  and  N_10 
REMARK    4  A    between atoms: N_10  and  C_11 
REMARK    5  A    between atoms: C_11  and  C_12 
REMARK    6  A    between atoms: C_12  and  N_13 
REMARK    7  A    between atoms: C_12  and  C_19 
ROOT
HETATM    1  C   UNL     1      40.462 -15.526   4.976  1.00  0.00     0.222 C 
HETATM    2  N   UNL     1      40.720 -16.674   4.250  1.00  0.00    -0.358 N 
HETATM    3  O   UNL     1      40.674 -15.497   6.187  1.00  0.00    -0.273 OA
HETATM    4  H   UNL     1      40.732 -16.581   3.241  1.00  0.00     0.162 HD
ENDROOT
BRANCH   2   5
HETATM    5  C   UNL     1      41.529 -17.747   4.800  1.00  0.00     0.160 C 
BRANCH   5   6
HETATM    6  C   UNL     1      43.068 -17.740   4.501  1.00  0.00     0.240 C 
BRANCH   6   7
HETATM    7  N   UNL     1      43.921 -17.443   5.746  1.00  0.00    -0.061 N 
HETATM    8  H   UNL     1      44.875 -17.688   5.448  1.00  0.00     0.280 HD
HETATM    9  C   UNL     1      43.650 -18.248   6.991  1.00  0.00     0.236 C 
HETATM   10  C   UNL     1      43.154 -17.227   7.993  1.00  0.00     0.029 C 
HETATM   11  C   UNL     1      43.972 -15.995   7.660  1.00  0.00     0.029 C 
HETATM   12  C   UNL     1      44.025 -15.984   6.143  1.00  0.00     0.236 C 
ENDBRANCH   6   7
BRANCH   6  13
HETATM   13  C   UNL     1      43.558 -19.025   3.823  1.00  0.00    -0.004 A 
HETATM   14  C   UNL     1      43.229 -19.300   2.477  1.00  0.00     0.042 A 
HETATM   15 CL   UNL     1      42.320 -18.180   1.523  1.00  0.00    -0.084 Cl
HETATM   16  C   UNL     1      43.663 -20.470   1.848  1.00  0.00     0.024 A 
HETATM   17  C   UNL     1      44.441 -21.391   2.543  1.00  0.00     0.002 A 
HETATM   18  C   UNL     1      44.792 -21.139   3.863  1.00  0.00     0.001 A 
HETATM   19  C   UNL     1      44.361 -19.969   4.496  1.00  0.00     0.011 A 
ENDBRANCH   6  13
ENDBRANCH   5   6
ENDBRANCH   2   5
BRANCH   1  20
HETATM   20  C   UNL     1      39.939 -14.310   4.206  1.00  0.00     0.144 C 
BRANCH  20  21
HETATM   21  C   UNL     1      40.887 -13.811   3.165  1.00  0.00    -0.014 A 
HETATM   22  C   UNL     1      40.937 -14.185   1.785  1.00  0.00     0.006 A 
HETATM   23  C   UNL     1      41.883 -13.357   1.195  1.00  0.00     0.088 A 
HETATM   24  C   UNL     1      40.238 -15.091   0.967  1.00  0.00     0.017 A 
HETATM   25  C   UNL     1      42.170 -13.331  -0.169  1.00  0.00     0.074 A 
HETATM   26  O   UNL     1      42.460 -12.563   2.138  1.00  0.00    -0.321 OA
HETATM   27  C   UNL     1      41.428 -14.201  -0.976  1.00  0.00     0.070 A 
HETATM   28  C   UNL     1      40.493 -15.077  -0.410  1.00  0.00     0.038 A 
HETATM   29  C   UNL     1      41.876 -12.859   3.326  1.00  0.00     0.151 A 
BRANCH  27  30
HETATM   30  O   UNL     1      41.518 -14.288  -2.341  1.00  0.00    -0.356 OA
HETATM   31  C   UNL     1      40.705 -15.264  -2.980  1.00  0.00     0.210 C 
ENDBRANCH  27  30
ENDBRANCH  20  21
ENDBRANCH   1  20
TORSDOF 7
ENDMDL
MODEL 4
REMARK VINA RESULT:      -7.5      3.009      4.933
REMARK  7 active torsions:
REMARK  status: ('A' for Active; 'I' for Inactive)
REMARK    1  A    between atoms: O_2  and  C_3 
REMARK    2  A    between atoms: C_7  and  C_8 
REMARK    3  A    between atoms: C_8  and  C_9 
REMARK       I    between atoms: C_9  and  N_10 
REMARK    4  A    between atoms: N_10  and  C_11 
REMARK    5  A    between atoms: C_11  and  C_12 
REMARK    6  A    between atoms: C_12  and  N_13 
REMARK    7  A    between atoms: C_12  and  C_19 
ROOT
HETATM    1  C   UNL     1      42.083 -17.268   1.301  1.00  0.00     0.222 C 
HETATM    2  N   UNL     1      41.996 -15.896   1.446  1.00  0.00    -0.358 N 
HETATM    3  O   UNL     1      41.064 -17.955   1.274  1.00  0.00    -0.273 OA
HETATM    4  H   UNL     1      42.835 -15.363   1.251  1.00  0.00     0.162 HD
ENDROOT
BRANCH   2   5
HETATM    5  C   UNL     1      40.738 -15.197   1.250  1.00  0.00     0.160 C 
BRANCH   5   6
HETATM    6  C   UNL     1      40.330 -14.805  -0.211  1.00  0.00     0.240 C 
BRANCH   6   7
HETATM    7  N   UNL     1      38.846 -14.420  -0.339  1.00  0.00    -0.061 N 
HETATM    8  H   UNL     1      38.368 -15.328  -0.424  1.00  0.00     0.280 HD
HETATM    9  C   UNL     1      38.431 -13.612  -1.541  1.00  0.00     0.236 C 
HETATM   10  C   UNL     1      37.962 -12.295  -0.960  1.00  0.00     0.029 C 
HETATM   11  C   UNL     1      37.306 -12.709   0.342  1.00  0.00     0.029 C 
HETATM   12  C   UNL     1      38.218 -13.791   0.889  1.00  0.00     0.236 C 
ENDBRANCH   6   7
BRANCH   6  13
HETATM   13  C   UNL     1      41.211 -13.702  -0.811  1.00  0.00    -0.004 A 
HETATM   14  C   UNL     1      41.714 -13.817  -2.125  1.00  0.00     0.042 A 
HETATM   15 CL   UNL     1      41.311 -15.164  -3.132  1.00  0.00    -0.084 Cl
HETATM   16  C   UNL     1      42.525 -12.824  -2.682  1.00  0.00     0.024 A 
HETATM   17  C   UNL     1      42.847 -11.688  -1.944  1.00  0.00     0.002 A 
HETATM   18  C   UNL     1      42.353 -11.543  -0.654  1.00  0.00     0.001 A 
HETATM   19  C   UNL     1      41.542 -12.534  -0.094  1.00  0.00     0.011 A 
ENDBRANCH   6  13
ENDBRANCH   5   6
ENDBRANCH   2   5
BRANCH   1  20
HETATM   20  C   UNL     1      43.482 -17.871   1.148  1.00  0.00     0.144 C 
BRANCH  20  21
HETATM   21  C   UNL     1      43.861 -18.788   2.264  1.00  0.00    -0.014 A 
HETATM   22  C   UNL     1      43.948 -18.472   3.657  1.00  0.00     0.006 A 
HETATM   23  C   UNL     1      44.195 -19.672   4.310  1.00  0.00     0.088 A 
HETATM   24  C   UNL     1      43.782 -17.311   4.432  1.00  0.00     0.017 A 
HETATM   25  C   UNL     1      44.256 -19.821   5.695  1.00  0.00     0.074 A 
HETATM   26  O   UNL     1      44.339 -20.676   3.402  1.00  0.00    -0.321 OA
HETATM   27  C   UNL     1      44.035 -18.666   6.453  1.00  0.00     0.070 A 
HETATM   28  C   UNL     1      43.822 -17.432   5.828  1.00  0.00     0.038 A 
HETATM   29  C   UNL     1      44.163 -20.133   2.171  1.00  0.00     0.151 A 
BRANCH  27  30
HETATM   30  O   UNL     1      43.998 -18.610   7.822  1.00  0.00    -0.356 OA
HETATM   31  C   UNL     1      43.446 -17.436   8.406  1.00  0.00     0.210 C 
ENDBRANCH  27  30
ENDBRANCH  20  21
ENDBRANCH   1  20
TORSDOF 7
ENDMDL
MODEL 5
REMARK VINA RESULT:      -7.5      4.083      8.191
REMARK  7 active torsions:
REMARK  status: ('A' for Active; 'I' for Inactive)
REMARK    1  A    between atoms: O_2  and  C_3 
REMARK    2  A    between atoms: C_7  and  C_8 
REMARK    3  A    between atoms: C_8  and  C_9 
REMARK       I    between atoms: C_9  and  N_10 
REMARK    4  A    between atoms: N_10  and  C_11 
REMARK    5  A    between atoms: C_11  and  C_12 
REMARK    6  A    between atoms: C_12  and  N_13 
REMARK    7  A    between atoms: C_12  and  C_19 
ROOT
HETATM    1  C   UNL     1      41.924 -15.925   0.639  1.00  0.00     0.222 C 
HETATM    2  N   UNL     1      42.667 -17.090   0.600  1.00  0.00    -0.358 N 
HETATM    3  O   UNL     1      42.189 -15.047   1.458  1.00  0.00    -0.273 OA
HETATM    4  H   UNL     1      42.550 -17.678  -0.217  1.00  0.00     0.162 HD
ENDROOT
BRANCH   2   5
HETATM    5  C   UNL     1      43.950 -17.188   1.275  1.00  0.00     0.160 C 
BRANCH   5   6
HETATM    6  C   UNL     1      43.971 -17.718   2.750  1.00  0.00     0.240 C 
BRANCH   6   7
HETATM    7  N   UNL     1      42.777 -17.223   3.584  1.00  0.00    -0.061 N 
HETATM    8  H   UNL     1      42.136 -16.835   2.880  1.00  0.00     0.280 HD
HETATM    9  C   UNL     1      43.027 -16.118   4.578  1.00  0.00     0.236 C 
HETATM   10  C   UNL     1      42.756 -16.759   5.922  1.00  0.00     0.029 C 
HETATM   11  C   UNL     1      41.610 -17.706   5.626  1.00  0.00     0.029 C 
HETATM   12  C   UNL     1      41.960 -18.297   4.273  1.00  0.00     0.236 C 
ENDBRANCH   6   7
BRANCH   6  13
HETATM   13  C   UNL     1      44.078 -19.245   2.842  1.00  0.00    -0.004 A 
HETATM   14  C   UNL     1      44.662 -19.859   3.972  1.00  0.00     0.042 A 
HETATM   15 CL   UNL     1      45.220 -18.928   5.318  1.00  0.00    -0.084 Cl
HETATM   16  C   UNL     1      44.774 -21.250   4.067  1.00  0.00     0.024 A 
HETATM   17  C   UNL     1      44.298 -22.061   3.040  1.00  0.00     0.002 A 
HETATM   18  C   UNL     1      43.707 -21.484   1.924  1.00  0.00     0.001 A 
HETATM   19  C   UNL     1      43.593 -20.094   1.826  1.00  0.00     0.011 A 
ENDBRANCH   6  13
ENDBRANCH   5   6
ENDBRANCH   2   5
BRANCH   1  20
HETATM   20  C   UNL     1      40.799 -15.775  -0.388  1.00  0.00     0.144 C 
BRANCH  20  21
HETATM   21  C   UNL     1      41.178 -14.945  -1.571  1.00  0.00    -0.014 A 
HETATM   22  C   UNL     1      41.573 -13.570  -1.577  1.00  0.00     0.006 A 
HETATM   23  C   UNL     1      41.961 -13.286  -2.879  1.00  0.00     0.088 A 
HETATM   24  C   UNL     1      41.700 -12.561  -0.606  1.00  0.00     0.017 A 
HETATM   25  C   UNL     1      42.507 -12.071  -3.294  1.00  0.00     0.074 A 
HETATM   26  O   UNL     1      41.755 -14.371  -3.674  1.00  0.00    -0.321 OA
HETATM   27  C   UNL     1      42.677 -11.097  -2.305  1.00  0.00     0.070 A 
HETATM   28  C   UNL     1      42.261 -11.335  -0.990  1.00  0.00     0.038 A 
HETATM   29  C   UNL     1      41.259 -15.359  -2.886  1.00  0.00     0.151 A 
BRANCH  27  30
HETATM   30  O   UNL     1      43.244  -9.864  -2.495  1.00  0.00    -0.356 OA
HETATM   31  C   UNL     1      44.052  -9.356  -1.440  1.00  0.00     0.210 C 
ENDBRANCH  27  30
ENDBRANCH  20  21
ENDBRANCH   1  20
TORSDOF 7
ENDMDL
MODEL 6
REMARK VINA RESULT:      -7.4      2.151      3.856
REMARK  7 active torsions:
REMARK  status: ('A' for Active; 'I' for Inactive)
REMARK    1  A    between atoms: O_2  and  C_3 
REMARK    2  A    between atoms: C_7  and  C_8 
REMARK    3  A    between atoms: C_8  and  C_9 
REMARK       I    between atoms: C_9  and  N_10 
REMARK    4  A    between atoms: N_10  and  C_11 
REMARK    5  A    between atoms: C_11  and  C_12 
REMARK    6  A    between atoms: C_12  and  N_13 
REMARK    7  A    between atoms: C_12  and  C_19 
ROOT
HETATM    1  C   UNL     1      41.691 -15.748   5.994  1.00  0.00     0.222 C 
HETATM    2  N   UNL     1      41.656 -14.583   5.251  1.00  0.00    -0.358 N 
HETATM    3  O   UNL     1      40.711 -16.490   6.033  1.00  0.00    -0.273 OA
HETATM    4  H   UNL     1      42.543 -14.124   5.081  1.00  0.00     0.162 HD
ENDROOT
BRANCH   2   5
HETATM    5  C   UNL     1      40.621 -14.355   4.258  1.00  0.00     0.160 C 
BRANCH   5   6
HETATM    6  C   UNL     1      41.043 -14.291   2.750  1.00  0.00     0.240 C 
BRANCH   6   7
HETATM    7  N   UNL     1      41.677 -15.600   2.248  1.00  0.00    -0.061 N 
HETATM    8  H   UNL     1      42.479 -15.736   2.877  1.00  0.00     0.280 HD
HETATM    9  C   UNL     1      42.234 -15.617   0.848  1.00  0.00     0.236 C 
HETATM   10  C   UNL     1      41.366 -16.618   0.115  1.00  0.00     0.029 C 
HETATM   11  C   UNL     1      41.077 -17.662   1.175  1.00  0.00     0.029 C 
HETATM   12  C   UNL     1      40.845 -16.853   2.437  1.00  0.00     0.236 C 
ENDBRANCH   6   7
BRANCH   6  13
HETATM   13  C   UNL     1      39.900 -13.870   1.819  1.00  0.00    -0.004 A 
HETATM   14  C   UNL     1      40.036 -12.746   0.975  1.00  0.00     0.042 A 
HETATM   15 CL   UNL     1      41.507 -11.839   0.908  1.00  0.00    -0.084 Cl
HETATM   16  C   UNL     1      39.000 -12.345   0.126  1.00  0.00     0.024 A 
HETATM   17  C   UNL     1      37.806 -13.061   0.092  1.00  0.00     0.002 A 
HETATM   18  C   UNL     1      37.652 -14.180   0.901  1.00  0.00     0.001 A 
HETATM   19  C   UNL     1      38.686 -14.584   1.751  1.00  0.00     0.011 A 
ENDBRANCH   6  13
ENDBRANCH   5   6
ENDBRANCH   2   5
BRANCH   1  20
HETATM   20  C   UNL     1      42.996 -16.076   6.725  1.00  0.00     0.144 C 
BRANCH  20  21
HETATM   21  C   UNL     1      43.352 -17.526   6.689  1.00  0.00    -0.014 A 
HETATM   22  C   UNL     1      43.604 -18.330   5.532  1.00  0.00     0.006 A 
HETATM   23  C   UNL     1      44.030 -19.563   6.005  1.00  0.00     0.088 A 
HETATM   24  C   UNL     1      43.576 -18.121   4.141  1.00  0.00     0.017 A 
HETATM   25  C   UNL     1      44.471 -20.611   5.197  1.00  0.00     0.074 A 
HETATM   26  O   UNL     1      43.979 -19.584   7.365  1.00  0.00    -0.321 OA
HETATM   27  C   UNL     1      44.488 -20.368   3.819  1.00  0.00     0.070 A 
HETATM   28  C   UNL     1      44.029 -19.149   3.305  1.00  0.00     0.038 A 
HETATM   29  C   UNL     1      43.545 -18.364   7.770  1.00  0.00     0.151 A 
BRANCH  27  30
HETATM   30  O   UNL     1      44.936 -21.242   2.864  1.00  0.00    -0.356 OA
HETATM   31  C   UNL     1      44.018 -21.607   1.841  1.00  0.00     0.210 C 
ENDBRANCH  27  30
ENDBRANCH  20  21
ENDBRANCH   1  20
TORSDOF 7
ENDMDL
MODEL 7
REMARK VINA RESULT:      -7.4      2.983      6.674
REMARK  7 active torsions:
REMARK  status: ('A' for Active; 'I' for Inactive)
REMARK    1  A    between atoms: O_2  and  C_3 
REMARK    2  A    between atoms: C_7  and  C_8 
REMARK    3  A    between atoms: C_8  and  C_9 
REMARK       I    between atoms: C_9  and  N_10 
REMARK    4  A    between atoms: N_10  and  C_11 
REMARK    5  A    between atoms: C_11  and  C_12 
REMARK    6  A    between atoms: C_12  and  N_13 
REMARK    7  A    between atoms: C_12  and  C_19 
ROOT
HETATM    1  C   UNL     1      39.936 -13.478   5.324  1.00  0.00     0.222 C 
HETATM    2  N   UNL     1      39.851 -14.858   5.331  1.00  0.00    -0.358 N 
HETATM    3  O   UNL     1      40.561 -12.890   6.205  1.00  0.00    -0.273 OA
HETATM    4  H   UNL     1      39.514 -15.298   4.483  1.00  0.00     0.162 HD
ENDROOT
BRANCH   2   5
HETATM    5  C   UNL     1      40.734 -15.662   6.157  1.00  0.00     0.160 C 
BRANCH   5   6
HETATM    6  C   UNL     1      42.272 -15.616   5.858  1.00  0.00     0.240 C 
BRANCH   6   7
HETATM    7  N   UNL     1      43.125 -16.183   7.006  1.00  0.00    -0.061 N 
HETATM    8  H   UNL     1      42.986 -15.505   7.767  1.00  0.00     0.280 HD
HETATM    9  C   UNL     1      44.614 -16.278   6.794  1.00  0.00     0.236 C 
HETATM   10  C   UNL     1      44.901 -17.764   6.829  1.00  0.00     0.029 C 
HETATM   11  C   UNL     1      43.923 -18.277   7.867  1.00  0.00     0.029 C 
HETATM   12  C   UNL     1      42.651 -17.497   7.596  1.00  0.00     0.236 C 
ENDBRANCH   6   7
BRANCH   6  13
HETATM   13  C   UNL     1      42.652 -16.295   4.537  1.00  0.00    -0.004 A 
HETATM   14  C   UNL     1      43.282 -15.564   3.507  1.00  0.00     0.042 A 
HETATM   15 CL   UNL     1      43.707 -13.899   3.710  1.00  0.00    -0.084 Cl
HETATM   16  C   UNL     1      43.628 -16.167   2.294  1.00  0.00     0.024 A 
HETATM   17  C   UNL     1      43.360 -17.516   2.083  1.00  0.00     0.002 A 
HETATM   18  C   UNL     1      42.754 -18.263   3.085  1.00  0.00     0.001 A 
HETATM   19  C   UNL     1      42.408 -17.663   4.299  1.00  0.00     0.011 A 
ENDBRANCH   6  13
ENDBRANCH   5   6
ENDBRANCH   2   5
BRANCH   1  20
HETATM   20  C   UNL     1      39.253 -12.738   4.170  1.00  0.00     0.144 C 
BRANCH  20  21
HETATM   21  C   UNL     1      40.092 -12.653   2.937  1.00  0.00    -0.014 A 
HETATM   22  C   UNL     1      40.363 -13.698   1.998  1.00  0.00     0.006 A 
HETATM   23  C   UNL     1      41.065 -13.107   0.956  1.00  0.00     0.088 A 
HETATM   24  C   UNL     1      40.036 -15.062   1.895  1.00  0.00     0.017 A 
HETATM   25  C   UNL     1      41.442 -13.762  -0.216  1.00  0.00     0.074 A 
HETATM   26  O   UNL     1      41.300 -11.796   1.237  1.00  0.00    -0.321 OA
HETATM   27  C   UNL     1      41.062 -15.104  -0.326  1.00  0.00     0.070 A 
HETATM   28  C   UNL     1      40.388 -15.743   0.722  1.00  0.00     0.038 A 
HETATM   29  C   UNL     1      40.735 -11.535   2.443  1.00  0.00     0.151 A 
BRANCH  27  30
HETATM   30  O   UNL     1      41.286 -15.906  -1.414  1.00  0.00    -0.356 OA
HETATM   31  C   UNL     1      40.782 -15.452  -2.665  1.00  0.00     0.210 C 
ENDBRANCH  27  30
ENDBRANCH  20  21
ENDBRANCH   1  20
TORSDOF 7
ENDMDL
MODEL 8
REMARK VINA RESULT:      -7.4      1.990      4.219
REMARK  7 active torsions:
REMARK  status: ('A' for Active; 'I' for Inactive)
REMARK    1  A    between atoms: O_2  and  C_3 
REMARK    2  A    between atoms: C_7  and  C_8 
REMARK    3  A    between atoms: C_8  and  C_9 
REMARK       I    between atoms: C_9  and  N_10 
REMARK    4  A    between atoms: N_10  and  C_11 
REMARK    5  A    between atoms: C_11  and  C_12 
REMARK    6  A    between atoms: C_12  and  N_13 
REMARK    7  A    between atoms: C_12  and  C_19 
ROOT
HETATM    1  C   UNL     1      43.709 -19.654   1.936  1.00  0.00     0.222 C 
HETATM    2  N   UNL     1      44.137 -18.349   1.777  1.00  0.00    -0.358 N 
HETATM    3  O   UNL     1      42.537 -19.954   1.712  1.00  0.00    -0.273 OA
HETATM    4  H   UNL     1      45.138 -18.196   1.767  1.00  0.00     0.162 HD
ENDROOT
BRANCH   2   5
HETATM    5  C   UNL     1      43.337 -17.377   1.051  1.00  0.00     0.160 C 
BRANCH   5   6
HETATM    6  C   UNL     1      43.077 -15.985   1.722  1.00  0.00     0.240 C 
BRANCH   6   7
HETATM    7  N   UNL     1      42.242 -15.040   0.840  1.00  0.00    -0.061 N 
HETATM    8  H   UNL     1      42.951 -14.494   0.333  1.00  0.00     0.280 HD
HETATM    9  C   UNL     1      41.354 -14.038   1.532  1.00  0.00     0.236 C 
HETATM   10  C   UNL     1      39.951 -14.450   1.140  1.00  0.00     0.029 C 
HETATM   11  C   UNL     1      40.123 -14.939  -0.285  1.00  0.00     0.029 C 
HETATM   12  C   UNL     1      41.434 -15.703  -0.258  1.00  0.00     0.236 C 
ENDBRANCH   6   7
BRANCH   6  13
HETATM   13  C   UNL     1      42.451 -16.093   3.117  1.00  0.00    -0.004 A 
HETATM   14  C   UNL     1      42.820 -15.197   4.144  1.00  0.00     0.042 A 
HETATM   15 CL   UNL     1      43.939 -13.909   3.859  1.00  0.00    -0.084 Cl
HETATM   16  C   UNL     1      42.263 -15.288   5.423  1.00  0.00     0.024 A 
HETATM   17  C   UNL     1      41.318 -16.269   5.706  1.00  0.00     0.002 A 
HETATM   18  C   UNL     1      40.925 -17.155   4.710  1.00  0.00     0.001 A 
HETATM   19  C   UNL     1      41.479 -17.066   3.430  1.00  0.00     0.011 A 
ENDBRANCH   6  13
ENDBRANCH   5   6
ENDBRANCH   2   5
BRANCH   1  20
HETATM   20  C   UNL     1      44.752 -20.688   2.366  1.00  0.00     0.144 C 
BRANCH  20  21
HETATM   21  C   UNL     1      44.665 -21.057   3.811  1.00  0.00    -0.014 A 
HETATM   22  C   UNL     1      44.568 -20.170   4.929  1.00  0.00     0.006 A 
HETATM   23  C   UNL     1      44.370 -20.975   6.043  1.00  0.00     0.088 A 
HETATM   24  C   UNL     1      44.566 -18.775   5.104  1.00  0.00     0.017 A 
HETATM   25  C   UNL     1      44.130 -20.497   7.332  1.00  0.00     0.074 A 
HETATM   26  O   UNL     1      44.417 -22.287   5.685  1.00  0.00    -0.321 OA
HETATM   27  C   UNL     1      44.078 -19.106   7.478  1.00  0.00     0.070 A 
HETATM   28  C   UNL     1      44.311 -18.265   6.383  1.00  0.00     0.038 A 
HETATM   29  C   UNL     1      44.621 -22.331   4.344  1.00  0.00     0.151 A 
BRANCH  27  30
HETATM   30  O   UNL     1      43.800 -18.441   8.643  1.00  0.00    -0.356 OA
HETATM   31  C   UNL     1      43.444 -17.068   8.534  1.00  0.00     0.210 C 
ENDBRANCH  27  30
ENDBRANCH  20  21
ENDBRANCH   1  20
TORSDOF 7
ENDMDL
MODEL 9
REMARK VINA RESULT:      -7.4      4.032      5.462
REMARK  7 active torsions:
REMARK  status: ('A' for Active; 'I' for Inactive)
REMARK    1  A    between atoms: O_2  and  C_3 
REMARK    2  A    between atoms: C_7  and  C_8 
REMARK    3  A    between atoms: C_8  and  C_9 
REMARK       I    between atoms: C_9  and  N_10 
REMARK    4  A    between atoms: N_10  and  C_11 
REMARK    5  A    between atoms: C_11  and  C_12 
REMARK    6  A    between atoms: C_12  and  N_13 
REMARK    7  A    between atoms: C_12  and  C_19 
ROOT
HETATM    1  C   UNL     1      41.303 -15.574   0.803  1.00  0.00     0.222 C 
HETATM    2  N   UNL     1      41.636 -14.378   0.196  1.00  0.00    -0.358 N 
HETATM    3  O   UNL     1      40.183 -15.734   1.285  1.00  0.00    -0.273 OA
HETATM    4  H   UNL     1      42.481 -14.372  -0.365  1.00  0.00     0.162 HD
ENDROOT
BRANCH   2   5
HETATM    5  C   UNL     1      40.617 -13.414  -0.179  1.00  0.00     0.160 C 
BRANCH   5   6
HETATM    6  C   UNL     1      40.456 -13.061  -1.698  1.00  0.00     0.240 C 
BRANCH   6   7
HETATM    7  N   UNL     1      41.773 -12.614  -2.354  1.00  0.00    -0.061 N 
HETATM    8  H   UNL     1      42.305 -13.490  -2.448  1.00  0.00     0.280 HD
HETATM    9  C   UNL     1      42.655 -11.667  -1.583  1.00  0.00     0.236 C 
HETATM   10  C   UNL     1      42.666 -10.405  -2.418  1.00  0.00     0.029 C 
HETATM   11  C   UNL     1      42.631 -10.934  -3.839  1.00  0.00     0.029 C 
HETATM   12  C   UNL     1      41.662 -12.099  -3.775  1.00  0.00     0.236 C 
ENDBRANCH   6   7
BRANCH   6  13
HETATM   13  C   UNL     1      39.816 -14.188  -2.517  1.00  0.00    -0.004 A 
HETATM   14  C   UNL     1      38.487 -14.078  -2.979  1.00  0.00     0.042 A 
HETATM   15 CL   UNL     1      37.548 -12.653  -2.699  1.00  0.00    -0.084 Cl
HETATM   16  C   UNL     1      37.888 -15.101  -3.721  1.00  0.00     0.024 A 
HETATM   17  C   UNL     1      38.604 -16.255  -4.026  1.00  0.00     0.002 A 
HETATM   18  C   UNL     1      39.919 -16.384  -3.596  1.00  0.00     0.001 A 
HETATM   19  C   UNL     1      40.521 -15.362  -2.855  1.00  0.00     0.011 A 
ENDBRANCH   6  13
ENDBRANCH   5   6
ENDBRANCH   2   5
BRANCH   1  20
HETATM   20  C   UNL     1      42.366 -16.676   0.817  1.00  0.00     0.144 C 
BRANCH  20  21
HETATM   21  C   UNL     1      42.846 -17.024   2.188  1.00  0.00    -0.014 A 
HETATM   22  C   UNL     1      43.368 -18.280   2.632  1.00  0.00     0.006 A 
HETATM   23  C   UNL     1      43.808 -18.075   3.933  1.00  0.00     0.088 A 
HETATM   24  C   UNL     1      43.568 -19.544   2.050  1.00  0.00     0.017 A 
HETATM   25  C   UNL     1      44.474 -19.030   4.702  1.00  0.00     0.074 A 
HETATM   26  O   UNL     1      43.520 -16.805   4.329  1.00  0.00    -0.321 OA
HETATM   27  C   UNL     1      44.713 -20.264   4.088  1.00  0.00     0.070 A 
HETATM   28  C   UNL     1      44.249 -20.518   2.792  1.00  0.00     0.038 A 
HETATM   29  C   UNL     1      42.917 -16.185   3.283  1.00  0.00     0.151 A 
BRANCH  27  30
HETATM   30  O   UNL     1      45.397 -21.310   4.650  1.00  0.00    -0.356 OA
HETATM   31  C   UNL     1      44.731 -22.565   4.699  1.00  0.00     0.210 C 
ENDBRANCH  27  30
ENDBRANCH  20  21
ENDBRANCH   1  20
TORSDOF 7
ENDMDL
MODEL 10
REMARK VINA RESULT:      -7.3      2.023      2.603
REMARK  7 active torsions:
REMARK  status: ('A' for Active; 'I' for Inactive)
REMARK    1  A    between atoms: O_2  and  C_3 
REMARK    2  A    between atoms: C_7  and  C_8 
REMARK    3  A    between atoms: C_8  and  C_9 
REMARK       I    between atoms: C_9  and  N_10 
REMARK    4  A    between atoms: N_10  and  C_11 
REMARK    5  A    between atoms: C_11  and  C_12 
REMARK    6  A    between atoms: C_12  and  N_13 
REMARK    7  A    between atoms: C_12  and  C_19 
ROOT
HETATM    1  C   UNL     1      41.562 -15.726   5.983  1.00  0.00     0.222 C 
HETATM    2  N   UNL     1      40.349 -15.518   5.354  1.00  0.00    -0.358 N 
HETATM    3  O   UNL     1      42.535 -15.030   5.699  1.00  0.00    -0.273 OA
HETATM    4  H   UNL     1      39.539 -15.964   5.769  1.00  0.00     0.162 HD
ENDROOT
BRANCH   2   5
HETATM    5  C   UNL     1      40.090 -14.304   4.600  1.00  0.00     0.160 C 
BRANCH   5   6
HETATM    6  C   UNL     1      39.672 -14.442   3.096  1.00  0.00     0.240 C 
BRANCH   6   7
HETATM    7  N   UNL     1      39.558 -13.087   2.377  1.00  0.00    -0.061 N 
HETATM    8  H   UNL     1      40.396 -13.061   1.780  1.00  0.00     0.280 HD
HETATM    9  C   UNL     1      39.603 -11.839   3.220  1.00  0.00     0.236 C 
HETATM   10  C   UNL     1      38.235 -11.218   3.038  1.00  0.00     0.029 C 
HETATM   11  C   UNL     1      37.905 -11.534   1.592  1.00  0.00     0.029 C 
HETATM   12  C   UNL     1      38.408 -12.952   1.399  1.00  0.00     0.236 C 
ENDBRANCH   6   7
BRANCH   6  13
HETATM   13  C   UNL     1      40.581 -15.386   2.300  1.00  0.00    -0.004 A 
HETATM   14  C   UNL     1      41.916 -15.029   2.015  1.00  0.00     0.042 A 
HETATM   15 CL   UNL     1      42.601 -13.553   2.599  1.00  0.00    -0.084 Cl
HETATM   16  C   UNL     1      42.755 -15.876   1.283  1.00  0.00     0.024 A 
HETATM   17  C   UNL     1      42.283 -17.103   0.826  1.00  0.00     0.002 A 
HETATM   18  C   UNL     1      40.977 -17.486   1.105  1.00  0.00     0.001 A 
HETATM   19  C   UNL     1      40.136 -16.642   1.836  1.00  0.00     0.011 A 
ENDBRANCH   6  13
ENDBRANCH   5   6
ENDBRANCH   2   5
BRANCH   1  20
HETATM   20  C   UNL     1      41.622 -16.823   7.050  1.00  0.00     0.144 C 
BRANCH  20  21
HETATM   21  C   UNL     1      42.745 -17.787   6.851  1.00  0.00    -0.014 A 
HETATM   22  C   UNL     1      43.080 -18.495   5.654  1.00  0.00     0.006 A 
HETATM   23  C   UNL     1      44.274 -19.153   5.917  1.00  0.00     0.088 A 
HETATM   24  C   UNL     1      42.531 -18.596   4.363  1.00  0.00     0.017 A 
HETATM   25  C   UNL     1      44.997 -19.886   4.976  1.00  0.00     0.074 A 
HETATM   26  O   UNL     1      44.642 -18.952   7.212  1.00  0.00    -0.321 OA
HETATM   27  C   UNL     1      44.465 -19.931   3.683  1.00  0.00     0.070 A 
HETATM   28  C   UNL     1      43.243 -19.312   3.392  1.00  0.00     0.038 A 
HETATM   29  C   UNL     1      43.704 -18.150   7.777  1.00  0.00     0.151 A 
BRANCH  27  30
HETATM   30  O   UNL     1      45.047 -20.548   2.606  1.00  0.00    -0.356 OA
HETATM   31  C   UNL     1      44.286 -21.553   1.948  1.00  0.00     0.210 C 
ENDBRANCH  27  30
ENDBRANCH  20  21
ENDBRANCH   1  20
TORSDOF 7
ENDMDL
