MODEL 1
REMARK VINA RESULT:      -9.0      0.000      0.000
REMARK  8 active torsions:
REMARK  status: ('A' for Active; 'I' for Inactive)
REMARK    1  A    between atoms: C_3  and  C_4 
REMARK    2  A    between atoms: N_5  and  N_6 
REMARK    3  A    between atoms: C_17  and  C_18 
REMARK       I    between atoms: C_18  and  N_19 
REMARK    4  A    between atoms: N_19  and  C_20 
REMARK    5  A    between atoms: C_20  and  C_21 
REMARK    6  A    between atoms: C_21  and  C_22 
REMARK    7  A    between atoms: C_29  and  N_30 
REMARK    8  A    between atoms: C_31  and  O_32 
ROOT
HETATM    1  N   UNL     1      40.491 -14.423   3.330  1.00  0.00    -0.202 N 
HETATM    2  C   UNL     1      40.954 -13.559   2.359  1.00  0.00     0.183 A 
HETATM    3  C   UNL     1      41.524 -14.322   1.343  1.00  0.00     0.124 A 
HETATM    4  N   UNL     1      42.073 -13.731   0.250  1.00  0.00    -0.242 NA
HETATM    5  C   UNL     1      41.982 -12.387   0.230  1.00  0.00     0.086 A 
HETATM    6  C   UNL     1      41.382 -11.638   1.276  1.00  0.00     0.088 A 
HETATM    7  N   UNL     1      40.862 -12.208   2.374  1.00  0.00    -0.225 NA
HETATM    8  C   UNL     1      42.494 -11.698  -0.864  1.00  0.00     0.034 A 
HETATM    9  C   UNL     1      42.429 -10.305  -0.952  1.00  0.00     0.002 A 
HETATM   10  C   UNL     1      41.842  -9.580   0.074  1.00  0.00     0.002 A 
HETATM   11  C   UNL     1      41.324 -10.255   1.179  1.00  0.00     0.034 A 
HETATM   12  C   UNL     1      41.394 -15.688   1.700  1.00  0.00     0.104 A 
HETATM   13  C   UNL     1      40.720 -15.724   2.915  1.00  0.00     0.123 A 
ENDROOT
BRANCH  12  14
HETATM   14  C   UNL     1      41.784 -16.877   0.972  1.00  0.00     0.257 C 
HETATM   15  N   UNL     1      43.147 -16.912   0.719  1.00  0.00    -0.356 N 
HETATM   16  H   UNL     1      43.629 -16.039   0.893  1.00  0.00     0.162 HD
HETATM   17  O   UNL     1      41.022 -17.812   0.765  1.00  0.00    -0.267 OA
BRANCH  15  18
HETATM   18  C   UNL     1      43.894 -18.090   1.113  1.00  0.00     0.127 C 
BRANCH  18  19
HETATM   19  C   UNL     1      43.997 -18.309   2.623  1.00  0.00     0.053 C 
BRANCH  19  20
HETATM   20  C   UNL     1      44.241 -19.760   2.964  1.00  0.00    -0.082 C 
HETATM   21  C   UNL     1      44.549 -20.071   4.407  1.00  0.00     0.034 C 
HETATM   22  C   UNL     1      45.150 -21.463   4.613  1.00  0.00     0.005 C 
HETATM   23  C   UNL     1      44.420 -22.515   3.785  1.00  0.00     0.004 C 
HETATM   24  C   UNL     1      44.457 -22.173   2.297  1.00  0.00     0.027 C 
HETATM   25  C   UNL     1      44.204 -20.719   2.020  1.00  0.00    -0.024 C 
ENDBRANCH  19  20
ENDBRANCH  18  19
ENDBRANCH  15  18
ENDBRANCH  12  14
BRANCH  13  26
HETATM   26  N   UNL     1      40.273 -16.773   3.671  1.00  0.00    -0.286 NA
HETATM   27  H   UNL     1      40.952 -17.216   4.293  1.00  0.00     0.125 HD
HETATM   28  H   UNL     1      39.759 -17.492   3.153  1.00  0.00     0.125 HD
ENDBRANCH  13  26
BRANCH   1  29
HETATM   29  N   UNL     1      39.756 -14.115   4.444  1.00  0.00    -0.176 NA
HETATM   30  C   UNL     1      40.410 -14.070   5.565  1.00  0.00     0.153 C 
BRANCH  30  31
HETATM   31  C   UNL     1      41.792 -14.490   5.835  1.00  0.00     0.016 A 
HETATM   32  C   UNL     1      42.818 -13.558   5.676  1.00  0.00     0.016 A 
HETATM   33  C   UNL     1      44.118 -13.896   6.052  1.00  0.00     0.001 A 
HETATM   34  C   UNL     1      44.378 -15.145   6.619  1.00  0.00     0.003 A 
HETATM   35  C   UNL     1      43.345 -16.071   6.786  1.00  0.00     0.037 A 
HETATM   36  C   UNL     1      42.054 -15.750   6.377  1.00  0.00     0.077 A 
BRANCH  36  37
HETATM   37  O   UNL     1      41.095 -16.710   6.543  1.00  0.00    -0.360 OA
HETATM   38  H   UNL     1      41.529 -17.571   6.697  1.00  0.00     0.217 HD
ENDBRANCH  36  37
ENDBRANCH  30  31
ENDBRANCH   1  29
TORSDOF 8
ENDMDL
MODEL 2
REMARK VINA RESULT:      -8.6      2.236      4.533
REMARK  8 active torsions:
REMARK  status: ('A' for Active; 'I' for Inactive)
REMARK    1  A    between atoms: C_3  and  C_4 
REMARK    2  A    between atoms: N_5  and  N_6 
REMARK    3  A    between atoms: C_17  and  C_18 
REMARK       I    between atoms: C_18  and  N_19 
REMARK    4  A    between atoms: N_19  and  C_20 
REMARK    5  A    between atoms: C_20  and  C_21 
REMARK    6  A    between atoms: C_21  and  C_22 
REMARK    7  A    between atoms: C_29  and  N_30 
REMARK    8  A    between atoms: C_31  and  O_32 
ROOT
HETATM    1  N   UNL     1      40.016 -14.744   2.280  1.00  0.00    -0.202 N 
HETATM    2  C   UNL     1      40.695 -13.901   1.423  1.00  0.00     0.183 A 
HETATM    3  C   UNL     1      41.362 -12.953   2.194  1.00  0.00     0.124 A 
HETATM    4  N   UNL     1      42.112 -11.982   1.611  1.00  0.00    -0.242 NA
HETATM    5  C   UNL     1      42.175 -12.048   0.268  1.00  0.00     0.086 A 
HETATM    6  C   UNL     1      41.493 -13.036  -0.490  1.00  0.00     0.088 A 
HETATM    7  N   UNL     1      40.726 -13.983   0.072  1.00  0.00    -0.225 NA
HETATM    8  C   UNL     1      42.942 -11.110  -0.413  1.00  0.00     0.034 A 
HETATM    9  C   UNL     1      43.055 -11.122  -1.806  1.00  0.00     0.002 A 
HETATM   10  C   UNL     1      42.386 -12.091  -2.539  1.00  0.00     0.002 A 
HETATM   11  C   UNL     1      41.611 -13.039  -1.872  1.00  0.00     0.034 A 
HETATM   12  C   UNL     1      41.091 -13.232   3.558  1.00  0.00     0.104 A 
HETATM   13  C   UNL     1      40.285 -14.365   3.585  1.00  0.00     0.123 A 
ENDROOT
BRANCH  12  14
HETATM   14  C   UNL     1      41.575 -12.572   4.752  1.00  0.00     0.257 C 
HETATM   15  N   UNL     1      41.780 -13.462   5.795  1.00  0.00    -0.356 N 
HETATM   16  H   UNL     1      41.385 -14.382   5.646  1.00  0.00     0.162 HD
HETATM   17  O   UNL     1      41.924 -11.400   4.770  1.00  0.00    -0.267 OA
BRANCH  15  18
HETATM   18  C   UNL     1      43.072 -13.472   6.453  1.00  0.00     0.127 C 
BRANCH  18  19
HETATM   19  C   UNL     1      44.111 -14.393   5.813  1.00  0.00     0.053 C 
BRANCH  19  20
HETATM   20  C   UNL     1      43.969 -15.819   6.292  1.00  0.00    -0.082 C 
HETATM   21  C   UNL     1      42.590 -16.250   6.725  1.00  0.00     0.034 C 
HETATM   22  C   UNL     1      42.587 -17.546   7.540  1.00  0.00     0.005 C 
HETATM   23  C   UNL     1      43.516 -18.590   6.931  1.00  0.00     0.004 C 
HETATM   24  C   UNL     1      44.949 -18.068   6.833  1.00  0.00     0.027 C 
HETATM   25  C   UNL     1      45.027 -16.650   6.348  1.00  0.00    -0.024 C 
ENDBRANCH  19  20
ENDBRANCH  18  19
ENDBRANCH  15  18
ENDBRANCH  12  14
BRANCH  13  26
HETATM   26  N   UNL     1      39.793 -15.100   4.627  1.00  0.00    -0.286 NA
HETATM   27  H   UNL     1      40.476 -15.579   5.217  1.00  0.00     0.125 HD
HETATM   28  H   UNL     1      39.036 -15.745   4.383  1.00  0.00     0.125 HD
ENDBRANCH  13  26
BRANCH   1  29
HETATM   29  N   UNL     1      39.329 -15.885   1.963  1.00  0.00    -0.176 NA
HETATM   30  C   UNL     1      40.020 -16.985   1.959  1.00  0.00     0.153 C 
BRANCH  30  31
HETATM   31  C   UNL     1      41.476 -17.150   2.060  1.00  0.00     0.016 A 
HETATM   32  C   UNL     1      42.019 -17.570   3.276  1.00  0.00     0.016 A 
HETATM   33  C   UNL     1      43.381 -17.859   3.356  1.00  0.00     0.001 A 
HETATM   34  C   UNL     1      44.184 -17.766   2.217  1.00  0.00     0.003 A 
HETATM   35  C   UNL     1      43.633 -17.356   1.000  1.00  0.00     0.037 A 
HETATM   36  C   UNL     1      42.282 -17.030   0.926  1.00  0.00     0.077 A 
BRANCH  36  37
HETATM   37  O   UNL     1      41.812 -16.609  -0.286  1.00  0.00    -0.360 OA
HETATM   38  H   UNL     1      41.315 -15.777  -0.165  1.00  0.00     0.217 HD
ENDBRANCH  36  37
ENDBRANCH  30  31
ENDBRANCH   1  29
TORSDOF 8
ENDMDL
MODEL 3
REMARK VINA RESULT:      -8.5      1.120      1.278
REMARK  8 active torsions:
REMARK  status: ('A' for Active; 'I' for Inactive)
REMARK    1  A    between atoms: C_3  and  C_4 
REMARK    2  A    between atoms: N_5  and  N_6 
REMARK    3  A    between atoms: C_17  and  C_18 
REMARK       I    between atoms: C_18  and  N_19 
REMARK    4  A    between atoms: N_19  and  C_20 
REMARK    5  A    between atoms: C_20  and  C_21 
REMARK    6  A    between atoms: C_21  and  C_22 
REMARK    7  A    between atoms: C_29  and  N_30 
REMARK    8  A    between atoms: C_31  and  O_32 
ROOT
HETATM    1  N   UNL     1      40.293 -13.336   2.416  1.00  0.00    -0.202 N 
HETATM    2  C   UNL     1      40.980 -12.458   1.603  1.00  0.00     0.183 A 
HETATM    3  C   UNL     1      41.651 -13.203   0.636  1.00  0.00     0.124 A 
HETATM    4  N   UNL     1      42.421 -12.596  -0.303  1.00  0.00    -0.242 NA
HETATM    5  C   UNL     1      42.442 -11.251  -0.233  1.00  0.00     0.086 A 
HETATM    6  C   UNL     1      41.736 -10.519   0.758  1.00  0.00     0.088 A 
HETATM    7  N   UNL     1      40.995 -11.108   1.708  1.00  0.00    -0.225 NA
HETATM    8  C   UNL     1      43.184 -10.544  -1.172  1.00  0.00     0.034 A 
HETATM    9  C   UNL     1      43.245  -9.147  -1.160  1.00  0.00     0.002 A 
HETATM   10  C   UNL     1      42.553  -8.439  -0.189  1.00  0.00     0.002 A 
HETATM   11  C   UNL     1      41.805  -9.133   0.761  1.00  0.00     0.034 A 
HETATM   12  C   UNL     1      41.354 -14.572   0.860  1.00  0.00     0.104 A 
HETATM   13  C   UNL     1      40.485 -14.624   1.944  1.00  0.00     0.123 A 
ENDROOT
BRANCH  12  14
HETATM   14  C   UNL     1      41.766 -15.742   0.114  1.00  0.00     0.257 C 
HETATM   15  N   UNL     1      42.890 -16.343   0.659  1.00  0.00    -0.356 N 
HETATM   16  H   UNL     1      43.367 -15.785   1.356  1.00  0.00     0.162 HD
HETATM   17  O   UNL     1      41.092 -16.232  -0.783  1.00  0.00    -0.267 OA
BRANCH  15  18
HETATM   18  C   UNL     1      42.838 -17.758   0.969  1.00  0.00     0.127 C 
BRANCH  18  19
HETATM   19  C   UNL     1      42.768 -18.087   2.460  1.00  0.00     0.053 C 
BRANCH  19  20
HETATM   20  C   UNL     1      43.468 -19.387   2.782  1.00  0.00    -0.082 C 
HETATM   21  C   UNL     1      44.161 -19.466   4.119  1.00  0.00     0.034 C 
HETATM   22  C   UNL     1      45.149 -20.630   4.222  1.00  0.00     0.005 C 
HETATM   23  C   UNL     1      44.569 -21.910   3.629  1.00  0.00     0.004 C 
HETATM   24  C   UNL     1      44.181 -21.715   2.164  1.00  0.00     0.027 C 
HETATM   25  C   UNL     1      43.485 -20.410   1.907  1.00  0.00    -0.024 C 
ENDBRANCH  19  20
ENDBRANCH  18  19
ENDBRANCH  15  18
ENDBRANCH  12  14
BRANCH  13  26
HETATM   26  N   UNL     1      39.836 -15.673   2.532  1.00  0.00    -0.286 NA
HETATM   27  H   UNL     1      39.124 -15.444   3.228  1.00  0.00     0.125 HD
HETATM   28  H   UNL     1      40.446 -16.413   2.893  1.00  0.00     0.125 HD
ENDBRANCH  13  26
BRANCH   1  29
HETATM   29  N   UNL     1      39.409 -13.035   3.416  1.00  0.00    -0.176 NA
HETATM   30  C   UNL     1      39.845 -13.191   4.630  1.00  0.00     0.153 C 
BRANCH  30  31
HETATM   31  C   UNL     1      41.090 -13.827   5.080  1.00  0.00     0.016 A 
HETATM   32  C   UNL     1      42.270 -13.084   5.050  1.00  0.00     0.016 A 
HETATM   33  C   UNL     1      43.436 -13.624   5.593  1.00  0.00     0.001 A 
HETATM   34  C   UNL     1      43.407 -14.882   6.198  1.00  0.00     0.003 A 
HETATM   35  C   UNL     1      42.220 -15.617   6.235  1.00  0.00     0.037 A 
HETATM   36  C   UNL     1      41.064 -15.098   5.660  1.00  0.00     0.077 A 
BRANCH  36  37
HETATM   37  O   UNL     1      39.944 -15.879   5.705  1.00  0.00    -0.360 OA
HETATM   38  H   UNL     1      40.194 -16.806   5.528  1.00  0.00     0.217 HD
ENDBRANCH  36  37
ENDBRANCH  30  31
ENDBRANCH   1  29
TORSDOF 8
ENDMDL
MODEL 4
REMARK VINA RESULT:      -8.4      3.098      7.029
REMARK  8 active torsions:
REMARK  status: ('A' for Active; 'I' for Inactive)
REMARK    1  A    between atoms: C_3  and  C_4 
REMARK    2  A    between atoms: N_5  and  N_6 
REMARK    3  A    between atoms: C_17  and  C_18 
REMARK       I    between atoms: C_18  and  N_19 
REMARK    4  A    between atoms: N_19  and  C_20 
REMARK    5  A    between atoms: C_20  and  C_21 
REMARK    6  A    between atoms: C_21  and  C_22 
REMARK    7  A    between atoms: C_29  and  N_30 
REMARK    8  A    between atoms: C_31  and  O_32 
ROOT
HETATM    1  N   UNL     1      43.301 -14.438   2.876  1.00  0.00    -0.202 N 
HETATM    2  C   UNL     1      43.292 -15.801   2.662  1.00  0.00     0.183 A 
HETATM    3  C   UNL     1      42.485 -16.056   1.556  1.00  0.00     0.124 A 
HETATM    4  N   UNL     1      42.284 -17.325   1.117  1.00  0.00    -0.242 NA
HETATM    5  C   UNL     1      42.948 -18.273   1.806  1.00  0.00     0.086 A 
HETATM    6  C   UNL     1      43.775 -17.980   2.923  1.00  0.00     0.088 A 
HETATM    7  N   UNL     1      43.958 -16.733   3.385  1.00  0.00    -0.225 NA
HETATM    8  C   UNL     1      42.823 -19.600   1.410  1.00  0.00     0.034 A 
HETATM    9  C   UNL     1      43.487 -20.633   2.078  1.00  0.00     0.002 A 
HETATM   10  C   UNL     1      44.293 -20.338   3.168  1.00  0.00     0.002 A 
HETATM   11  C   UNL     1      44.428 -19.013   3.579  1.00  0.00     0.034 A 
HETATM   12  C   UNL     1      41.999 -14.813   1.077  1.00  0.00     0.104 A 
HETATM   13  C   UNL     1      42.547 -13.826   1.888  1.00  0.00     0.123 A 
ENDROOT
BRANCH  12  14
HETATM   14  C   UNL     1      41.160 -14.527  -0.067  1.00  0.00     0.257 C 
HETATM   15  N   UNL     1      41.698 -15.018  -1.247  1.00  0.00    -0.356 N 
HETATM   16  H   UNL     1      42.662 -15.317  -1.176  1.00  0.00     0.162 HD
HETATM   17  O   UNL     1      40.032 -14.063   0.033  1.00  0.00    -0.267 OA
BRANCH  15  18
HETATM   18  C   UNL     1      40.874 -15.869  -2.083  1.00  0.00     0.127 C 
BRANCH  18  19
HETATM   19  C   UNL     1      40.608 -15.327  -3.487  1.00  0.00     0.053 C 
BRANCH  19  20
HETATM   20  C   UNL     1      39.251 -14.673  -3.589  1.00  0.00    -0.082 C 
HETATM   21  C   UNL     1      39.185 -13.201  -3.267  1.00  0.00     0.034 C 
HETATM   22  C   UNL     1      37.762 -12.696  -3.019  1.00  0.00     0.005 C 
HETATM   23  C   UNL     1      36.783 -13.258  -4.045  1.00  0.00     0.004 C 
HETATM   24  C   UNL     1      36.779 -14.786  -4.029  1.00  0.00     0.027 C 
HETATM   25  C   UNL     1      38.155 -15.377  -3.931  1.00  0.00    -0.024 C 
ENDBRANCH  19  20
ENDBRANCH  18  19
ENDBRANCH  15  18
ENDBRANCH  12  14
BRANCH  13  26
HETATM   26  N   UNL     1      42.469 -12.463   1.831  1.00  0.00    -0.286 NA
HETATM   27  H   UNL     1      41.652 -12.066   1.364  1.00  0.00     0.125 HD
HETATM   28  H   UNL     1      43.317 -11.994   1.499  1.00  0.00     0.125 HD
ENDBRANCH  13  26
BRANCH   1  29
HETATM   29  N   UNL     1      44.056 -13.736   3.777  1.00  0.00    -0.176 NA
HETATM   30  C   UNL     1      43.536 -13.577   4.957  1.00  0.00     0.153 C 
BRANCH  30  31
HETATM   31  C   UNL     1      42.169 -13.881   5.402  1.00  0.00     0.016 A 
HETATM   32  C   UNL     1      41.178 -12.914   5.228  1.00  0.00     0.016 A 
HETATM   33  C   UNL     1      39.852 -13.229   5.522  1.00  0.00     0.001 A 
HETATM   34  C   UNL     1      39.518 -14.516   5.950  1.00  0.00     0.003 A 
HETATM   35  C   UNL     1      40.512 -15.483   6.111  1.00  0.00     0.037 A 
HETATM   36  C   UNL     1      41.842 -15.160   5.856  1.00  0.00     0.077 A 
BRANCH  36  37
HETATM   37  O   UNL     1      42.768 -16.144   6.060  1.00  0.00    -0.360 OA
HETATM   38  H   UNL     1      42.415 -16.787   6.705  1.00  0.00     0.217 HD
ENDBRANCH  36  37
ENDBRANCH  30  31
ENDBRANCH   1  29
TORSDOF 8
ENDMDL
MODEL 5
REMARK VINA RESULT:      -8.4      2.324      6.982
REMARK  8 active torsions:
REMARK  status: ('A' for Active; 'I' for Inactive)
REMARK    1  A    between atoms: C_3  and  C_4 
REMARK    2  A    between atoms: N_5  and  N_6 
REMARK    3  A    between atoms: C_17  and  C_18 
REMARK       I    between atoms: C_18  and  N_19 
REMARK    4  A    between atoms: N_19  and  C_20 
REMARK    5  A    between atoms: C_20  and  C_21 
REMARK    6  A    between atoms: C_21  and  C_22 
REMARK    7  A    between atoms: C_29  and  N_30 
REMARK    8  A    between atoms: C_31  and  O_32 
ROOT
HETATM    1  N   UNL     1      43.268 -14.369   2.807  1.00  0.00    -0.202 N 
HETATM    2  C   UNL     1      43.286 -15.737   2.625  1.00  0.00     0.183 A 
HETATM    3  C   UNL     1      42.532 -16.027   1.490  1.00  0.00     0.124 A 
HETATM    4  N   UNL     1      42.367 -17.309   1.071  1.00  0.00    -0.242 NA
HETATM    5  C   UNL     1      43.012 -18.232   1.811  1.00  0.00     0.086 A 
HETATM    6  C   UNL     1      43.784 -17.902   2.956  1.00  0.00     0.088 A 
HETATM    7  N   UNL     1      43.931 -16.643   3.397  1.00  0.00    -0.225 NA
HETATM    8  C   UNL     1      42.922 -19.568   1.440  1.00  0.00     0.034 A 
HETATM    9  C   UNL     1      43.569 -20.577   2.160  1.00  0.00     0.002 A 
HETATM   10  C   UNL     1      44.322 -20.247   3.277  1.00  0.00     0.002 A 
HETATM   11  C   UNL     1      44.421 -18.911   3.664  1.00  0.00     0.034 A 
HETATM   12  C   UNL     1      42.052 -14.802   0.961  1.00  0.00     0.104 A 
HETATM   13  C   UNL     1      42.551 -13.790   1.774  1.00  0.00     0.123 A 
ENDROOT
BRANCH  12  14
HETATM   14  C   UNL     1      41.261 -14.553  -0.225  1.00  0.00     0.257 C 
HETATM   15  N   UNL     1      39.963 -15.022  -0.097  1.00  0.00    -0.356 N 
HETATM   16  H   UNL     1      39.813 -15.630   0.699  1.00  0.00     0.162 HD
HETATM   17  O   UNL     1      41.652 -13.856  -1.152  1.00  0.00    -0.267 OA
BRANCH  15  18
HETATM   18  C   UNL     1      38.867 -14.109  -0.358  1.00  0.00     0.127 C 
BRANCH  18  19
HETATM   19  C   UNL     1      37.841 -13.998   0.770  1.00  0.00     0.053 C 
BRANCH  19  20
HETATM   20  C   UNL     1      38.038 -12.743   1.587  1.00  0.00    -0.082 C 
HETATM   21  C   UNL     1      37.151 -11.571   1.248  1.00  0.00     0.034 C 
HETATM   22  C   UNL     1      37.646 -10.246   1.831  1.00  0.00     0.005 C 
HETATM   23  C   UNL     1      38.112 -10.409   3.274  1.00  0.00     0.004 C 
HETATM   24  C   UNL     1      39.227 -11.448   3.382  1.00  0.00     0.027 C 
HETATM   25  C   UNL     1      38.973 -12.673   2.553  1.00  0.00    -0.024 C 
ENDBRANCH  19  20
ENDBRANCH  18  19
ENDBRANCH  15  18
ENDBRANCH  12  14
BRANCH  13  26
HETATM   26  N   UNL     1      42.458 -12.429   1.682  1.00  0.00    -0.286 NA
HETATM   27  H   UNL     1      41.523 -12.024   1.755  1.00  0.00     0.125 HD
HETATM   28  H   UNL     1      42.953 -12.014   0.887  1.00  0.00     0.125 HD
ENDBRANCH  13  26
BRANCH   1  29
HETATM   29  N   UNL     1      43.973 -13.637   3.725  1.00  0.00    -0.176 NA
HETATM   30  C   UNL     1      43.631 -13.797   4.968  1.00  0.00     0.153 C 
BRANCH  30  31
HETATM   31  C   UNL     1      42.467 -14.510   5.512  1.00  0.00     0.016 A 
HETATM   32  C   UNL     1      41.193 -14.002   5.257  1.00  0.00     0.016 A 
HETATM   33  C   UNL     1      40.071 -14.733   5.651  1.00  0.00     0.001 A 
HETATM   34  C   UNL     1      40.228 -15.979   6.260  1.00  0.00     0.003 A 
HETATM   35  C   UNL     1      41.507 -16.488   6.502  1.00  0.00     0.037 A 
HETATM   36  C   UNL     1      42.627 -15.744   6.145  1.00  0.00     0.077 A 
BRANCH  36  37
HETATM   37  O   UNL     1      43.848 -16.285   6.436  1.00  0.00    -0.360 OA
HETATM   38  H   UNL     1      44.433 -16.190   5.659  1.00  0.00     0.217 HD
ENDBRANCH  36  37
ENDBRANCH  30  31
ENDBRANCH   1  29
TORSDOF 8
ENDMDL
MODEL 6
REMARK VINA RESULT:      -8.3      2.932      5.571
REMARK  8 active torsions:
REMARK  status: ('A' for Active; 'I' for Inactive)
REMARK    1  A    between atoms: C_3  and  C_4 
REMARK    2  A    between atoms: N_5  and  N_6 
REMARK    3  A    between atoms: C_17  and  C_18 
REMARK       I    between atoms: C_18  and  N_19 
REMARK    4  A    between atoms: N_19  and  C_20 
REMARK    5  A    between atoms: C_20  and  C_21 
REMARK    6  A    between atoms: C_21  and  C_22 
REMARK    7  A    between atoms: C_29  and  N_30 
REMARK    8  A    between atoms: C_31  and  O_32 
ROOT
HETATM    1  N   UNL     1      40.404 -11.576   0.897  1.00  0.00    -0.202 N 
HETATM    2  C   UNL     1      40.406 -12.605  -0.022  1.00  0.00     0.183 A 
HETATM    3  C   UNL     1      41.256 -13.601   0.453  1.00  0.00     0.124 A 
HETATM    4  N   UNL     1      41.461 -14.741  -0.256  1.00  0.00    -0.242 NA
HETATM    5  C   UNL     1      40.758 -14.826  -1.402  1.00  0.00     0.086 A 
HETATM    6  C   UNL     1      39.889 -13.798  -1.853  1.00  0.00     0.088 A 
HETATM    7  N   UNL     1      39.700 -12.655  -1.176  1.00  0.00    -0.225 NA
HETATM    8  C   UNL     1      40.885 -15.971  -2.181  1.00  0.00     0.034 A 
HETATM    9  C   UNL     1      40.181 -16.127  -3.379  1.00  0.00     0.002 A 
HETATM   10  C   UNL     1      39.334 -15.119  -3.813  1.00  0.00     0.002 A 
HETATM   11  C   UNL     1      39.197 -13.963  -3.044  1.00  0.00     0.034 A 
HETATM   12  C   UNL     1      41.776 -13.170   1.701  1.00  0.00     0.104 A 
HETATM   13  C   UNL     1      41.206 -11.931   1.969  1.00  0.00     0.123 A 
ENDROOT
BRANCH  12  14
HETATM   14  C   UNL     1      42.666 -13.851   2.617  1.00  0.00     0.257 C 
HETATM   15  N   UNL     1      42.386 -15.206   2.709  1.00  0.00    -0.356 N 
HETATM   16  H   UNL     1      41.505 -15.482   2.294  1.00  0.00     0.162 HD
HETATM   17  O   UNL     1      43.651 -13.318   3.109  1.00  0.00    -0.267 OA
BRANCH  15  18
HETATM   18  C   UNL     1      43.464 -16.152   2.492  1.00  0.00     0.127 C 
BRANCH  18  19
HETATM   19  C   UNL     1      43.046 -17.458   1.815  1.00  0.00     0.053 C 
BRANCH  19  20
HETATM   20  C   UNL     1      43.633 -18.663   2.510  1.00  0.00    -0.082 C 
HETATM   21  C   UNL     1      43.985 -18.497   3.967  1.00  0.00     0.034 C 
HETATM   22  C   UNL     1      44.907 -19.597   4.498  1.00  0.00     0.005 C 
HETATM   23  C   UNL     1      44.471 -20.975   4.010  1.00  0.00     0.004 C 
HETATM   24  C   UNL     1      44.448 -21.040   2.484  1.00  0.00     0.027 C 
HETATM   25  C   UNL     1      43.849 -19.818   1.851  1.00  0.00    -0.024 C 
ENDBRANCH  19  20
ENDBRANCH  18  19
ENDBRANCH  15  18
ENDBRANCH  12  14
BRANCH  13  26
HETATM   26  N   UNL     1      41.301 -11.108   3.056  1.00  0.00    -0.286 NA
HETATM   27  H   UNL     1      40.680 -10.298   3.077  1.00  0.00     0.125 HD
HETATM   28  H   UNL     1      42.254 -10.820   3.299  1.00  0.00     0.125 HD
ENDBRANCH  13  26
BRANCH   1  29
HETATM   29  N   UNL     1      39.620 -10.453   0.895  1.00  0.00    -0.176 NA
HETATM   30  C   UNL     1      40.084  -9.433   0.238  1.00  0.00     0.153 C 
BRANCH  30  31
HETATM   31  C   UNL     1      41.421  -9.252  -0.344  1.00  0.00     0.016 A 
HETATM   32  C   UNL     1      41.608  -9.547  -1.695  1.00  0.00     0.016 A 
HETATM   33  C   UNL     1      42.833  -9.258  -2.298  1.00  0.00     0.001 A 
HETATM   34  C   UNL     1      43.846  -8.643  -1.561  1.00  0.00     0.003 A 
HETATM   35  C   UNL     1      43.649  -8.339  -0.211  1.00  0.00     0.037 A 
HETATM   36  C   UNL     1      42.442  -8.661   0.403  1.00  0.00     0.077 A 
BRANCH  36  37
HETATM   37  O   UNL     1      42.324  -8.363   1.731  1.00  0.00    -0.360 OA
HETATM   38  H   UNL     1      41.527  -7.815   1.866  1.00  0.00     0.217 HD
ENDBRANCH  36  37
ENDBRANCH  30  31
ENDBRANCH   1  29
TORSDOF 8
ENDMDL
MODEL 7
REMARK VINA RESULT:      -8.3      3.738      7.511
REMARK  8 active torsions:
REMARK  status: ('A' for Active; 'I' for Inactive)
REMARK    1  A    between atoms: C_3  and  C_4 
REMARK    2  A    between atoms: N_5  and  N_6 
REMARK    3  A    between atoms: C_17  and  C_18 
REMARK       I    between atoms: C_18  and  N_19 
REMARK    4  A    between atoms: N_19  and  C_20 
REMARK    5  A    between atoms: C_20  and  C_21 
REMARK    6  A    between atoms: C_21  and  C_22 
REMARK    7  A    between atoms: C_29  and  N_30 
REMARK    8  A    between atoms: C_31  and  O_32 
ROOT
HETATM    1  N   UNL     1      41.383 -15.854   5.977  1.00  0.00    -0.202 N 
HETATM    2  C   UNL     1      41.089 -14.696   5.287  1.00  0.00     0.183 A 
HETATM    3  C   UNL     1      42.109 -13.780   5.531  1.00  0.00     0.124 A 
HETATM    4  N   UNL     1      42.079 -12.539   4.980  1.00  0.00    -0.242 NA
HETATM    5  C   UNL     1      41.024 -12.304   4.175  1.00  0.00     0.086 A 
HETATM    6  C   UNL     1      40.006 -13.264   3.936  1.00  0.00     0.088 A 
HETATM    7  N   UNL     1      40.010 -14.483   4.497  1.00  0.00    -0.225 NA
HETATM    8  C   UNL     1      40.925 -11.068   3.547  1.00  0.00     0.034 A 
HETATM    9  C   UNL     1      39.860 -10.759   2.696  1.00  0.00     0.002 A 
HETATM   10  C   UNL     1      38.869 -11.702   2.467  1.00  0.00     0.002 A 
HETATM   11  C   UNL     1      38.953 -12.946   3.091  1.00  0.00     0.034 A 
HETATM   12  C   UNL     1      43.056 -14.401   6.384  1.00  0.00     0.104 A 
HETATM   13  C   UNL     1      42.602 -15.694   6.616  1.00  0.00     0.123 A 
ENDROOT
BRANCH  12  14
HETATM   14  C   UNL     1      44.311 -13.895   6.897  1.00  0.00     0.257 C 
HETATM   15  N   UNL     1      44.145 -12.731   7.632  1.00  0.00    -0.356 N 
HETATM   16  H   UNL     1      43.232 -12.303   7.540  1.00  0.00     0.162 HD
HETATM   17  O   UNL     1      45.360 -14.522   6.832  1.00  0.00    -0.267 OA
BRANCH  15  18
HETATM   18  C   UNL     1      44.692 -12.675   8.974  1.00  0.00     0.127 C 
BRANCH  18  19
HETATM   19  C   UNL     1      44.838 -11.266   9.549  1.00  0.00     0.053 C 
BRANCH  19  20
HETATM   20  C   UNL     1      44.106 -11.117  10.862  1.00  0.00    -0.082 C 
HETATM   21  C   UNL     1      43.838  -9.708  11.329  1.00  0.00     0.034 C 
HETATM   22  C   UNL     1      43.450  -9.621  12.807  1.00  0.00     0.005 C 
HETATM   23  C   UNL     1      42.456 -10.713  13.188  1.00  0.00     0.004 C 
HETATM   24  C   UNL     1      43.022 -12.103  12.903  1.00  0.00     0.027 C 
HETATM   25  C   UNL     1      43.733 -12.191  11.584  1.00  0.00    -0.024 C 
ENDBRANCH  19  20
ENDBRANCH  18  19
ENDBRANCH  15  18
ENDBRANCH  12  14
BRANCH  13  26
HETATM   26  N   UNL     1      43.157 -16.737   7.304  1.00  0.00    -0.286 NA
HETATM   27  H   UNL     1      44.171 -16.845   7.240  1.00  0.00     0.125 HD
HETATM   28  H   UNL     1      42.704 -17.644   7.156  1.00  0.00     0.125 HD
ENDBRANCH  13  26
BRANCH   1  29
HETATM   29  N   UNL     1      40.720 -17.050   5.929  1.00  0.00    -0.176 NA
HETATM   30  C   UNL     1      41.036 -17.840   4.947  1.00  0.00     0.153 C 
BRANCH  30  31
HETATM   31  C   UNL     1      41.869 -17.550   3.773  1.00  0.00     0.016 A 
HETATM   32  C   UNL     1      43.228 -17.866   3.821  1.00  0.00     0.016 A 
HETATM   33  C   UNL     1      44.008 -17.721   2.674  1.00  0.00     0.001 A 
HETATM   34  C   UNL     1      43.422 -17.300   1.479  1.00  0.00     0.003 A 
HETATM   35  C   UNL     1      42.059 -16.996   1.433  1.00  0.00     0.037 A 
HETATM   36  C   UNL     1      41.286 -17.103   2.585  1.00  0.00     0.077 A 
BRANCH  36  37
HETATM   37  O   UNL     1      39.966 -16.763   2.480  1.00  0.00    -0.360 OA
HETATM   38  H   UNL     1      39.743 -16.125   3.185  1.00  0.00     0.217 HD
ENDBRANCH  36  37
ENDBRANCH  30  31
ENDBRANCH   1  29
TORSDOF 8
ENDMDL
MODEL 8
REMARK VINA RESULT:      -8.3      2.615      7.562
REMARK  8 active torsions:
REMARK  status: ('A' for Active; 'I' for Inactive)
REMARK    1  A    between atoms: C_3  and  C_4 
REMARK    2  A    between atoms: N_5  and  N_6 
REMARK    3  A    between atoms: C_17  and  C_18 
REMARK       I    between atoms: C_18  and  N_19 
REMARK    4  A    between atoms: N_19  and  C_20 
REMARK    5  A    between atoms: C_20  and  C_21 
REMARK    6  A    between atoms: C_21  and  C_22 
REMARK    7  A    between atoms: C_29  and  N_30 
REMARK    8  A    between atoms: C_31  and  O_32 
ROOT
HETATM    1  N   UNL     1      39.850 -14.828   2.826  1.00  0.00    -0.202 N 
HETATM    2  C   UNL     1      40.844 -15.783   2.896  1.00  0.00     0.183 A 
HETATM    3  C   UNL     1      41.740 -15.397   3.890  1.00  0.00     0.124 A 
HETATM    4  N   UNL     1      42.833 -16.150   4.176  1.00  0.00    -0.242 NA
HETATM    5  C   UNL     1      42.940 -17.284   3.457  1.00  0.00     0.086 A 
HETATM    6  C   UNL     1      42.003 -17.657   2.458  1.00  0.00     0.088 A 
HETATM    7  N   UNL     1      40.935 -16.906   2.146  1.00  0.00    -0.225 NA
HETATM    8  C   UNL     1      44.015 -18.132   3.701  1.00  0.00     0.034 A 
HETATM    9  C   UNL     1      44.185 -19.326   2.994  1.00  0.00     0.002 A 
HETATM   10  C   UNL     1      43.265 -19.683   2.020  1.00  0.00     0.002 A 
HETATM   11  C   UNL     1      42.182 -18.843   1.762  1.00  0.00     0.034 A 
HETATM   12  C   UNL     1      41.272 -14.180   4.449  1.00  0.00     0.104 A 
HETATM   13  C   UNL     1      40.083 -13.869   3.798  1.00  0.00     0.123 A 
ENDROOT
BRANCH  12  14
HETATM   14  C   UNL     1      41.814 -13.390   5.534  1.00  0.00     0.257 C 
HETATM   15  N   UNL     1      42.822 -14.057   6.214  1.00  0.00    -0.356 N 
HETATM   16  H   UNL     1      42.895 -15.043   5.994  1.00  0.00     0.162 HD
HETATM   17  O   UNL     1      41.531 -12.213   5.708  1.00  0.00    -0.267 OA
BRANCH  15  18
HETATM   18  C   UNL     1      44.099 -13.393   6.385  1.00  0.00     0.127 C 
BRANCH  18  19
HETATM   19  C   UNL     1      44.789 -13.664   7.722  1.00  0.00     0.053 C 
BRANCH  19  20
HETATM   20  C   UNL     1      44.555 -12.547   8.712  1.00  0.00    -0.082 C 
HETATM   21  C   UNL     1      45.539 -12.437   9.850  1.00  0.00     0.034 C 
HETATM   22  C   UNL     1      45.042 -11.556  10.999  1.00  0.00     0.005 C 
HETATM   23  C   UNL     1      44.388 -10.280  10.480  1.00  0.00     0.004 C 
HETATM   24  C   UNL     1      43.215 -10.596   9.553  1.00  0.00     0.027 C 
HETATM   25  C   UNL     1      43.508 -11.709   8.590  1.00  0.00    -0.024 C 
ENDBRANCH  19  20
ENDBRANCH  18  19
ENDBRANCH  15  18
ENDBRANCH  12  14
BRANCH  13  26
HETATM   26  N   UNL     1      39.187 -12.854   3.988  1.00  0.00    -0.286 NA
HETATM   27  H   UNL     1      39.215 -12.377   4.891  1.00  0.00     0.125 HD
HETATM   28  H   UNL     1      38.218 -13.082   3.748  1.00  0.00     0.125 HD
ENDBRANCH  13  26
BRANCH   1  29
HETATM   29  N   UNL     1      38.706 -14.864   2.076  1.00  0.00    -0.176 NA
HETATM   30  C   UNL     1      38.800 -14.395   0.868  1.00  0.00     0.153 C 
BRANCH  30  31
HETATM   31  C   UNL     1      39.913 -13.657   0.257  1.00  0.00     0.016 A 
HETATM   32  C   UNL     1      40.016 -12.286   0.493  1.00  0.00     0.016 A 
HETATM   33  C   UNL     1      41.135 -11.591   0.033  1.00  0.00     0.001 A 
HETATM   34  C   UNL     1      42.160 -12.276  -0.623  1.00  0.00     0.003 A 
HETATM   35  C   UNL     1      42.057 -13.651  -0.847  1.00  0.00     0.037 A 
HETATM   36  C   UNL     1      40.924 -14.339  -0.423  1.00  0.00     0.077 A 
BRANCH  36  37
HETATM   37  O   UNL     1      40.873 -15.677  -0.698  1.00  0.00    -0.360 OA
HETATM   38  H   UNL     1      40.117 -15.853  -1.290  1.00  0.00     0.217 HD
ENDBRANCH  36  37
ENDBRANCH  30  31
ENDBRANCH   1  29
TORSDOF 8
ENDMDL
MODEL 9
REMARK VINA RESULT:      -8.3      2.944      5.845
REMARK  8 active torsions:
REMARK  status: ('A' for Active; 'I' for Inactive)
REMARK    1  A    between atoms: C_3  and  C_4 
REMARK    2  A    between atoms: N_5  and  N_6 
REMARK    3  A    between atoms: C_17  and  C_18 
REMARK       I    between atoms: C_18  and  N_19 
REMARK    4  A    between atoms: N_19  and  C_20 
REMARK    5  A    between atoms: C_20  and  C_21 
REMARK    6  A    between atoms: C_21  and  C_22 
REMARK    7  A    between atoms: C_29  and  N_30 
REMARK    8  A    between atoms: C_31  and  O_32 
ROOT
HETATM    1  N   UNL     1      41.497 -13.896  -1.266  1.00  0.00    -0.202 N 
HETATM    2  C   UNL     1      41.318 -12.849  -0.384  1.00  0.00     0.183 A 
HETATM    3  C   UNL     1      40.840 -13.375   0.813  1.00  0.00     0.124 A 
HETATM    4  N   UNL     1      40.563 -12.567   1.869  1.00  0.00    -0.242 NA
HETATM    5  C   UNL     1      40.824 -11.261   1.664  1.00  0.00     0.086 A 
HETATM    6  C   UNL     1      41.324 -10.757   0.434  1.00  0.00     0.088 A 
HETATM    7  N   UNL     1      41.573 -11.542  -0.626  1.00  0.00    -0.225 NA
HETATM    8  C   UNL     1      40.596 -10.363   2.700  1.00  0.00     0.034 A 
HETATM    9  C   UNL     1      40.848  -8.996   2.557  1.00  0.00     0.002 A 
HETATM   10  C   UNL     1      41.336  -8.511   1.353  1.00  0.00     0.002 A 
HETATM   11  C   UNL     1      41.569  -9.398   0.303  1.00  0.00     0.034 A 
HETATM   12  C   UNL     1      40.736 -14.782   0.660  1.00  0.00     0.104 A 
HETATM   13  C   UNL     1      41.182 -15.081  -0.622  1.00  0.00     0.123 A 
ENDROOT
BRANCH  12  14
HETATM   14  C   UNL     1      40.332 -15.789   1.617  1.00  0.00     0.257 C 
HETATM   15  N   UNL     1      41.131 -16.920   1.556  1.00  0.00    -0.356 N 
HETATM   16  H   UNL     1      41.735 -16.964   0.745  1.00  0.00     0.162 HD
HETATM   17  O   UNL     1      39.496 -15.584   2.487  1.00  0.00    -0.267 OA
BRANCH  15  18
HETATM   18  C   UNL     1      41.747 -17.400   2.778  1.00  0.00     0.127 C 
BRANCH  18  19
HETATM   19  C   UNL     1      43.269 -17.533   2.721  1.00  0.00     0.053 C 
BRANCH  19  20
HETATM   20  C   UNL     1      43.709 -18.977   2.788  1.00  0.00    -0.082 C 
HETATM   21  C   UNL     1      44.345 -19.428   4.079  1.00  0.00     0.034 C 
HETATM   22  C   UNL     1      45.098 -20.755   3.954  1.00  0.00     0.005 C 
HETATM   23  C   UNL     1      44.305 -21.773   3.141  1.00  0.00     0.004 C 
HETATM   24  C   UNL     1      43.993 -21.243   1.742  1.00  0.00     0.027 C 
HETATM   25  C   UNL     1      43.557 -19.807   1.739  1.00  0.00    -0.024 C 
ENDBRANCH  19  20
ENDBRANCH  18  19
ENDBRANCH  15  18
ENDBRANCH  12  14
BRANCH  13  26
HETATM   26  N   UNL     1      41.359 -16.276  -1.262  1.00  0.00    -0.286 NA
HETATM   27  H   UNL     1      40.515 -16.782  -1.536  1.00  0.00     0.125 HD
HETATM   28  H   UNL     1      42.014 -16.919  -0.806  1.00  0.00     0.125 HD
ENDBRANCH  13  26
BRANCH   1  29
HETATM   29  N   UNL     1      42.062 -13.854  -2.512  1.00  0.00    -0.176 NA
HETATM   30  C   UNL     1      41.238 -13.750  -3.511  1.00  0.00     0.153 C 
BRANCH  30  31
HETATM   31  C   UNL     1      39.773 -13.863  -3.502  1.00  0.00     0.016 A 
HETATM   32  C   UNL     1      39.013 -12.701  -3.372  1.00  0.00     0.016 A 
HETATM   33  C   UNL     1      37.625 -12.771  -3.493  1.00  0.00     0.001 A 
HETATM   34  C   UNL     1      37.010 -13.990  -3.782  1.00  0.00     0.003 A 
HETATM   35  C   UNL     1      37.777 -15.149  -3.922  1.00  0.00     0.037 A 
HETATM   36  C   UNL     1      39.158 -15.090  -3.764  1.00  0.00     0.077 A 
BRANCH  36  37
HETATM   37  O   UNL     1      39.847 -16.264  -3.886  1.00  0.00    -0.360 OA
HETATM   38  H   UNL     1      39.211 -17.002  -3.948  1.00  0.00     0.217 HD
ENDBRANCH  36  37
ENDBRANCH  30  31
ENDBRANCH   1  29
TORSDOF 8
ENDMDL
MODEL 10
REMARK VINA RESULT:      -8.3      2.345      5.147
REMARK  8 active torsions:
REMARK  status: ('A' for Active; 'I' for Inactive)
REMARK    1  A    between atoms: C_3  and  C_4 
REMARK    2  A    between atoms: N_5  and  N_6 
REMARK    3  A    between atoms: C_17  and  C_18 
REMARK       I    between atoms: C_18  and  N_19 
REMARK    4  A    between atoms: N_19  and  C_20 
REMARK    5  A    between atoms: C_20  and  C_21 
REMARK    6  A    between atoms: C_21  and  C_22 
REMARK    7  A    between atoms: C_29  and  N_30 
REMARK    8  A    between atoms: C_31  and  O_32 
ROOT
HETATM    1  N   UNL     1      39.665 -14.332  -0.054  1.00  0.00    -0.202 N 
HETATM    2  C   UNL     1      39.633 -13.621   1.128  1.00  0.00     0.183 A 
HETATM    3  C   UNL     1      40.611 -14.144   1.969  1.00  0.00     0.124 A 
HETATM    4  N   UNL     1      40.803 -13.639   3.216  1.00  0.00    -0.242 NA
HETATM    5  C   UNL     1      40.009 -12.597   3.530  1.00  0.00     0.086 A 
HETATM    6  C   UNL     1      39.029 -12.077   2.644  1.00  0.00     0.088 A 
HETATM    7  N   UNL     1      38.811 -12.586   1.422  1.00  0.00    -0.225 NA
HETATM    8  C   UNL     1      40.154 -11.998   4.777  1.00  0.00     0.034 A 
HETATM    9  C   UNL     1      39.367 -10.911   5.166  1.00  0.00     0.002 A 
HETATM   10  C   UNL     1      38.412 -10.409   4.295  1.00  0.00     0.002 A 
HETATM   11  C   UNL     1      38.253 -10.998   3.042  1.00  0.00     0.034 A 
HETATM   12  C   UNL     1      41.265 -15.195   1.277  1.00  0.00     0.104 A 
HETATM   13  C   UNL     1      40.685 -15.267   0.015  1.00  0.00     0.123 A 
ENDROOT
BRANCH  12  14
HETATM   14  C   UNL     1      42.373 -16.028   1.691  1.00  0.00     0.257 C 
HETATM   15  N   UNL     1      42.395 -16.227   3.063  1.00  0.00    -0.356 N 
HETATM   16  H   UNL     1      41.776 -15.619   3.585  1.00  0.00     0.162 HD
HETATM   17  O   UNL     1      43.093 -16.622   0.899  1.00  0.00    -0.267 OA
BRANCH  15  18
HETATM   18  C   UNL     1      42.453 -17.586   3.565  1.00  0.00     0.127 C 
BRANCH  18  19
HETATM   19  C   UNL     1      43.862 -18.108   3.844  1.00  0.00     0.053 C 
BRANCH  19  20
HETATM   20  C   UNL     1      44.032 -19.538   3.389  1.00  0.00    -0.082 C 
HETATM   21  C   UNL     1      43.544 -19.866   2.000  1.00  0.00     0.034 C 
HETATM   22  C   UNL     1      43.393 -21.368   1.748  1.00  0.00     0.005 C 
HETATM   23  C   UNL     1      44.579 -22.149   2.304  1.00  0.00     0.004 C 
HETATM   24  C   UNL     1      44.746 -21.911   3.804  1.00  0.00     0.027 C 
HETATM   25  C   UNL     1      44.572 -20.472   4.195  1.00  0.00    -0.024 C 
ENDBRANCH  19  20
ENDBRANCH  18  19
ENDBRANCH  15  18
ENDBRANCH  12  14
BRANCH  13  26
HETATM   26  N   UNL     1      40.976 -16.045  -1.070  1.00  0.00    -0.286 NA
HETATM   27  H   UNL     1      41.959 -16.107  -1.343  1.00  0.00     0.125 HD
HETATM   28  H   UNL     1      40.399 -15.868  -1.898  1.00  0.00     0.125 HD
ENDBRANCH  13  26
BRANCH   1  29
HETATM   29  N   UNL     1      38.963 -14.081  -1.202  1.00  0.00    -0.176 NA
HETATM   30  C   UNL     1      39.527 -13.278  -2.054  1.00  0.00     0.153 C 
BRANCH  30  31
HETATM   31  C   UNL     1      40.727 -12.451  -1.874  1.00  0.00     0.016 A 
HETATM   32  C   UNL     1      40.620 -11.266  -1.144  1.00  0.00     0.016 A 
HETATM   33  C   UNL     1      41.771 -10.534  -0.851  1.00  0.00     0.001 A 
HETATM   34  C   UNL     1      43.022 -11.009  -1.251  1.00  0.00     0.003 A 
HETATM   35  C   UNL     1      43.124 -12.201  -1.971  1.00  0.00     0.037 A 
HETATM   36  C   UNL     1      41.974 -12.914  -2.299  1.00  0.00     0.077 A 
BRANCH  36  37
HETATM   37  O   UNL     1      42.141 -14.057  -3.029  1.00  0.00    -0.360 OA
HETATM   38  H   UNL     1      42.848 -14.595  -2.623  1.00  0.00     0.217 HD
ENDBRANCH  36  37
ENDBRANCH  30  31
ENDBRANCH   1  29
TORSDOF 8
ENDMDL
