MODEL 1
REMARK VINA RESULT:      -8.7      0.000      0.000
REMARK  10 active torsions:
REMARK  status: ('A' for Active; 'I' for Inactive)
REMARK    1  A    between atoms: N_7  and  C_8 
REMARK    2  A    between atoms: C_8  and  C_9 
REMARK       I    between atoms: C_9  and  N_10 
REMARK    3  A    between atoms: N_10  and  C_11 
REMARK    4  A    between atoms: C_11  and  C_12 
REMARK    5  A    between atoms: C_12  and  C_13 
REMARK    6  A    between atoms: C_13  and  C_14 
REMARK       I    between atoms: C_14  and  N_15 
REMARK    7  A    between atoms: N_15  and  C_16 
REMARK    8  A    between atoms: C_16  and  C_17 
REMARK    9  A    between atoms: C_17  and  C_18 
REMARK   10  A    between atoms: C_18  and  N_19 
ROOT
HETATM    1  C   UNL     1      40.264 -14.456   5.672  1.00  0.00     0.123 C 
ENDROOT
BRANCH   1   2
HETATM    2  N   UNL     1      41.669 -14.760   5.848  1.00  0.00    -0.360 N 
HETATM    3  C   UNL     1      42.082 -15.932   6.456  1.00  0.00     0.235 C 
HETATM    4  O   UNL     1      41.291 -16.759   6.903  1.00  0.00    -0.272 OA
HETATM    5  H   UNL     1      42.355 -14.067   5.572  1.00  0.00     0.162 HD
BRANCH   3   6
HETATM    6  C   UNL     1      43.596 -16.142   6.450  1.00  0.00     0.235 C 
BRANCH   6   7
HETATM    7  N   UNL     1      43.923 -17.433   5.872  1.00  0.00    -0.299 N 
HETATM    8  C   UNL     1      44.416 -18.447   6.670  1.00  0.00     0.214 A 
HETATM    9  N   UNL     1      44.709 -19.642   6.270  1.00  0.00    -0.235 NA
HETATM   10  C   UNL     1      44.496 -19.857   4.948  1.00  0.00     0.115 A 
HETATM   11  C   UNL     1      44.060 -18.936   4.021  1.00  0.00     0.075 A 
HETATM   12  S   UNL     1      44.756 -21.383   4.246  1.00  0.00    -0.074 SA
HETATM   13  C   UNL     1      43.946 -19.488   2.694  1.00  0.00    -0.031 A 
HETATM   14  C   UNL     1      43.776 -17.591   4.496  1.00  0.00     0.262 A 
HETATM   15  C   UNL     1      43.510 -18.708   1.494  1.00  0.00     0.050 C 
HETATM   16  C   UNL     1      44.267 -20.839   2.698  1.00  0.00    -0.012 A 
HETATM   17  C   UNL     1      44.245 -21.811   1.562  1.00  0.00     0.057 C 
HETATM   18  O   UNL     1      43.435 -16.673   3.753  1.00  0.00    -0.267 OA
ENDBRANCH   6   7
ENDBRANCH   3   6
ENDBRANCH   1   2
BRANCH   1  19
HETATM   19  C   UNL     1      39.961 -12.973   5.880  1.00  0.00     0.029 C 
BRANCH  19  20
HETATM   20  C   UNL     1      41.251 -12.165   5.999  1.00  0.00     0.104 C 
BRANCH  20  21
HETATM   21  C   UNL     1      41.118 -10.948   6.893  1.00  0.00     0.217 C 
HETATM   22  N   UNL     1      39.989 -10.908   7.674  1.00  0.00    -0.361 N 
HETATM   23  H   UNL     1      39.271 -11.611   7.511  1.00  0.00     0.162 HD
HETATM   24  O   UNL     1      41.945 -10.037   6.905  1.00  0.00    -0.274 OA
BRANCH  22  25
HETATM   25  C   UNL     1      39.607  -9.732   8.426  1.00  0.00     0.124 C 
BRANCH  25  26
HETATM   26  C   UNL     1      39.592  -9.934   9.941  1.00  0.00     0.047 C 
BRANCH  26  27
HETATM   27  C   UNL     1      40.044 -11.295  10.476  1.00  0.00     0.236 C 
BRANCH  27  28
HETATM   28  N   UNL     1      41.374 -11.276  11.196  1.00  0.00    -0.070 N 
HETATM   29  H   UNL     1      41.543 -12.268  11.467  1.00  0.00     0.279 HD
HETATM   30  C   UNL     1      42.519 -10.754  10.373  1.00  0.00     0.239 C 
HETATM   31  C   UNL     1      43.847 -10.873  11.127  1.00  0.00     0.008 C 
HETATM   32  C   UNL     1      44.326 -12.325  11.217  1.00  0.00     0.011 C 
HETATM   33  C   UNL     1      43.757 -10.214  12.509  1.00  0.00     0.011 C 
HETATM   34  C   UNL     1      42.554 -10.711  13.318  1.00  0.00     0.008 C 
HETATM   35  C   UNL     1      42.457  -9.960  14.646  1.00  0.00     0.011 C 
HETATM   36  C   UNL     1      41.257 -10.552  12.521  1.00  0.00     0.239 C 
ENDBRANCH  27  28
ENDBRANCH  26  27
ENDBRANCH  25  26
ENDBRANCH  22  25
ENDBRANCH  20  21
ENDBRANCH  19  20
ENDBRANCH   1  19
TORSDOF 10
ENDMDL
MODEL 2
REMARK VINA RESULT:      -8.5      1.123      1.882
REMARK  10 active torsions:
REMARK  status: ('A' for Active; 'I' for Inactive)
REMARK    1  A    between atoms: N_7  and  C_8 
REMARK    2  A    between atoms: C_8  and  C_9 
REMARK       I    between atoms: C_9  and  N_10 
REMARK    3  A    between atoms: N_10  and  C_11 
REMARK    4  A    between atoms: C_11  and  C_12 
REMARK    5  A    between atoms: C_12  and  C_13 
REMARK    6  A    between atoms: C_13  and  C_14 
REMARK       I    between atoms: C_14  and  N_15 
REMARK    7  A    between atoms: N_15  and  C_16 
REMARK    8  A    between atoms: C_16  and  C_17 
REMARK    9  A    between atoms: C_17  and  C_18 
REMARK   10  A    between atoms: C_18  and  N_19 
ROOT
HETATM    1  C   UNL     1      39.895 -14.096   4.911  1.00  0.00     0.123 C 
ENDROOT
BRANCH   1   2
HETATM    2  N   UNL     1      41.313 -14.271   5.145  1.00  0.00    -0.360 N 
HETATM    3  C   UNL     1      41.792 -15.309   5.923  1.00  0.00     0.235 C 
HETATM    4  O   UNL     1      41.051 -16.116   6.478  1.00  0.00    -0.272 OA
HETATM    5  H   UNL     1      41.956 -13.579   4.778  1.00  0.00     0.162 HD
BRANCH   3   6
HETATM    6  C   UNL     1      43.317 -15.410   5.966  1.00  0.00     0.235 C 
BRANCH   6   7
HETATM    7  N   UNL     1      43.745 -16.744   5.586  1.00  0.00    -0.299 N 
HETATM    8  C   UNL     1      44.326 -17.580   6.520  1.00  0.00     0.214 A 
HETATM    9  N   UNL     1      44.713 -18.795   6.303  1.00  0.00    -0.235 NA
HETATM   10  C   UNL     1      44.508 -19.229   5.034  1.00  0.00     0.115 A 
HETATM   11  C   UNL     1      43.990 -18.500   3.986  1.00  0.00     0.075 A 
HETATM   12  S   UNL     1      44.886 -20.819   4.570  1.00  0.00    -0.074 SA
HETATM   13  C   UNL     1      43.910 -19.258   2.762  1.00  0.00    -0.031 A 
HETATM   14  C   UNL     1      43.600 -17.125   4.254  1.00  0.00     0.262 A 
HETATM   15  C   UNL     1      43.401 -18.711   1.466  1.00  0.00     0.050 C 
HETATM   16  C   UNL     1      44.341 -20.562   2.967  1.00  0.00    -0.012 A 
HETATM   17  C   UNL     1      44.390 -21.697   1.995  1.00  0.00     0.057 C 
HETATM   18  O   UNL     1      43.178 -16.364   3.386  1.00  0.00    -0.267 OA
ENDBRANCH   6   7
ENDBRANCH   3   6
ENDBRANCH   1   2
BRANCH   1  19
HETATM   19  C   UNL     1      39.265 -13.097   5.880  1.00  0.00     0.029 C 
BRANCH  19  20
HETATM   20  C   UNL     1      39.482 -11.664   5.400  1.00  0.00     0.104 C 
BRANCH  20  21
HETATM   21  C   UNL     1      40.545 -10.922   6.184  1.00  0.00     0.217 C 
HETATM   22  N   UNL     1      40.217  -9.644   6.565  1.00  0.00    -0.361 N 
HETATM   23  H   UNL     1      39.359  -9.241   6.194  1.00  0.00     0.162 HD
HETATM   24  O   UNL     1      41.644 -11.412   6.444  1.00  0.00    -0.274 OA
BRANCH  22  25
HETATM   25  C   UNL     1      41.185  -8.732   7.136  1.00  0.00     0.124 C 
BRANCH  25  26
HETATM   26  C   UNL     1      41.001  -8.479   8.633  1.00  0.00     0.047 C 
BRANCH  26  27
HETATM   27  C   UNL     1      40.865  -9.702   9.544  1.00  0.00     0.236 C 
BRANCH  27  28
HETATM   28  N   UNL     1      42.074  -9.976  10.410  1.00  0.00    -0.070 N 
HETATM   29  H   UNL     1      42.408  -9.034  10.705  1.00  0.00     0.279 HD
HETATM   30  C   UNL     1      41.797 -10.836  11.612  1.00  0.00     0.239 C 
HETATM   31  C   UNL     1      43.038 -10.972  12.498  1.00  0.00     0.008 C 
HETATM   32  C   UNL     1      43.344  -9.678  13.258  1.00  0.00     0.011 C 
HETATM   33  C   UNL     1      44.245 -11.456  11.686  1.00  0.00     0.011 C 
HETATM   34  C   UNL     1      44.485 -10.609  10.432  1.00  0.00     0.008 C 
HETATM   35  C   UNL     1      45.639 -11.185   9.611  1.00  0.00     0.011 C 
HETATM   36  C   UNL     1      43.217 -10.523   9.580  1.00  0.00     0.239 C 
ENDBRANCH  27  28
ENDBRANCH  26  27
ENDBRANCH  25  26
ENDBRANCH  22  25
ENDBRANCH  20  21
ENDBRANCH  19  20
ENDBRANCH   1  19
TORSDOF 10
ENDMDL
MODEL 3
REMARK VINA RESULT:      -8.4      3.088     10.239
REMARK  10 active torsions:
REMARK  status: ('A' for Active; 'I' for Inactive)
REMARK    1  A    between atoms: N_7  and  C_8 
REMARK    2  A    between atoms: C_8  and  C_9 
REMARK       I    between atoms: C_9  and  N_10 
REMARK    3  A    between atoms: N_10  and  C_11 
REMARK    4  A    between atoms: C_11  and  C_12 
REMARK    5  A    between atoms: C_12  and  C_13 
REMARK    6  A    between atoms: C_13  and  C_14 
REMARK       I    between atoms: C_14  and  N_15 
REMARK    7  A    between atoms: N_15  and  C_16 
REMARK    8  A    between atoms: C_16  and  C_17 
REMARK    9  A    between atoms: C_17  and  C_18 
REMARK   10  A    between atoms: C_18  and  N_19 
ROOT
HETATM    1  C   UNL     1      40.422 -14.352   5.912  1.00  0.00     0.123 C 
ENDROOT
BRANCH   1   2
HETATM    2  N   UNL     1      40.938 -13.033   6.214  1.00  0.00    -0.360 N 
HETATM    3  C   UNL     1      40.108 -11.928   6.261  1.00  0.00     0.235 C 
HETATM    4  O   UNL     1      38.905 -11.994   6.022  1.00  0.00    -0.272 OA
HETATM    5  H   UNL     1      41.938 -12.917   6.333  1.00  0.00     0.162 HD
BRANCH   3   6
HETATM    6  C   UNL     1      40.800 -10.641   6.710  1.00  0.00     0.235 C 
BRANCH   6   7
HETATM    7  N   UNL     1      40.687 -10.484   8.149  1.00  0.00    -0.299 N 
HETATM    8  C   UNL     1      39.447 -10.314   8.735  1.00  0.00     0.214 A 
HETATM    9  N   UNL     1      39.226 -10.198  10.003  1.00  0.00    -0.235 NA
HETATM   10  C   UNL     1      40.342 -10.253  10.773  1.00  0.00     0.115 A 
HETATM   11  C   UNL     1      41.643 -10.368  10.335  1.00  0.00     0.075 A 
HETATM   12  S   UNL     1      40.251 -10.189  12.469  1.00  0.00    -0.074 SA
HETATM   13  C   UNL     1      42.597 -10.391  11.415  1.00  0.00    -0.031 A 
HETATM   14  C   UNL     1      41.860 -10.458   8.900  1.00  0.00     0.262 A 
HETATM   15  C   UNL     1      44.078 -10.493  11.226  1.00  0.00     0.050 C 
HETATM   16  C   UNL     1      41.948 -10.336  12.642  1.00  0.00    -0.012 A 
HETATM   17  C   UNL     1      42.536 -10.377  14.015  1.00  0.00     0.057 C 
HETATM   18  O   UNL     1      42.978 -10.507   8.391  1.00  0.00    -0.267 OA
ENDBRANCH   6   7
ENDBRANCH   3   6
ENDBRANCH   1   2
BRANCH   1  19
HETATM   19  C   UNL     1      41.533 -15.354   5.602  1.00  0.00     0.029 C 
BRANCH  19  20
HETATM   20  C   UNL     1      42.836 -14.632   5.263  1.00  0.00     0.104 C 
BRANCH  20  21
HETATM   21  C   UNL     1      43.204 -14.716   3.795  1.00  0.00     0.217 C 
HETATM   22  N   UNL     1      42.630 -15.752   3.099  1.00  0.00    -0.361 N 
HETATM   23  H   UNL     1      42.115 -16.454   3.626  1.00  0.00     0.162 HD
HETATM   24  O   UNL     1      43.986 -13.931   3.259  1.00  0.00    -0.274 OA
BRANCH  22  25
HETATM   25  C   UNL     1      43.030 -16.097   1.751  1.00  0.00     0.124 C 
BRANCH  25  26
HETATM   26  C   UNL     1      44.057 -17.226   1.672  1.00  0.00     0.047 C 
BRANCH  26  27
HETATM   27  C   UNL     1      43.605 -18.623   2.107  1.00  0.00     0.236 C 
BRANCH  27  28
HETATM   28  N   UNL     1      44.047 -19.021   3.498  1.00  0.00    -0.070 N 
HETATM   29  H   UNL     1      44.989 -18.587   3.610  1.00  0.00     0.279 HD
HETATM   30  C   UNL     1      43.126 -18.571   4.597  1.00  0.00     0.239 C 
HETATM   31  C   UNL     1      43.697 -18.908   5.977  1.00  0.00     0.008 C 
HETATM   32  C   UNL     1      44.881 -18.008   6.342  1.00  0.00     0.011 C 
HETATM   33  C   UNL     1      44.060 -20.396   6.074  1.00  0.00     0.011 C 
HETATM   34  C   UNL     1      44.953 -20.858   4.918  1.00  0.00     0.008 C 
HETATM   35  C   UNL     1      45.209 -22.362   5.011  1.00  0.00     0.011 C 
HETATM   36  C   UNL     1      44.323 -20.509   3.568  1.00  0.00     0.239 C 
ENDBRANCH  27  28
ENDBRANCH  26  27
ENDBRANCH  25  26
ENDBRANCH  22  25
ENDBRANCH  20  21
ENDBRANCH  19  20
ENDBRANCH   1  19
TORSDOF 10
ENDMDL
MODEL 4
REMARK VINA RESULT:      -8.2      1.829      4.527
REMARK  10 active torsions:
REMARK  status: ('A' for Active; 'I' for Inactive)
REMARK    1  A    between atoms: N_7  and  C_8 
REMARK    2  A    between atoms: C_8  and  C_9 
REMARK       I    between atoms: C_9  and  N_10 
REMARK    3  A    between atoms: N_10  and  C_11 
REMARK    4  A    between atoms: C_11  and  C_12 
REMARK    5  A    between atoms: C_12  and  C_13 
REMARK    6  A    between atoms: C_13  and  C_14 
REMARK       I    between atoms: C_14  and  N_15 
REMARK    7  A    between atoms: N_15  and  C_16 
REMARK    8  A    between atoms: C_16  and  C_17 
REMARK    9  A    between atoms: C_17  and  C_18 
REMARK   10  A    between atoms: C_18  and  N_19 
ROOT
HETATM    1  C   UNL     1      45.331 -12.913   8.104  1.00  0.00     0.123 C 
ENDROOT
BRANCH   1   2
HETATM    2  N   UNL     1      44.260 -13.828   7.770  1.00  0.00    -0.360 N 
HETATM    3  C   UNL     1      44.027 -14.219   6.464  1.00  0.00     0.235 C 
HETATM    4  O   UNL     1      44.688 -13.796   5.520  1.00  0.00    -0.272 OA
HETATM    5  H   UNL     1      43.635 -14.136   8.507  1.00  0.00     0.162 HD
BRANCH   3   6
HETATM    6  C   UNL     1      42.934 -15.278   6.311  1.00  0.00     0.235 C 
BRANCH   6   7
HETATM    7  N   UNL     1      43.503 -16.522   5.827  1.00  0.00    -0.299 N 
HETATM    8  C   UNL     1      44.405 -17.223   6.604  1.00  0.00     0.214 A 
HETATM    9  N   UNL     1      44.947 -18.354   6.289  1.00  0.00    -0.235 NA
HETATM   10  C   UNL     1      44.563 -18.842   5.083  1.00  0.00     0.115 A 
HETATM   11  C   UNL     1      43.717 -18.238   4.180  1.00  0.00     0.075 A 
HETATM   12  S   UNL     1      45.113 -20.349   4.522  1.00  0.00    -0.074 SA
HETATM   13  C   UNL     1      43.520 -19.022   2.986  1.00  0.00    -0.031 A 
HETATM   14  C   UNL     1      43.154 -16.949   4.548  1.00  0.00     0.262 A 
HETATM   15  C   UNL     1      42.664 -18.600   1.834  1.00  0.00     0.050 C 
HETATM   16  C   UNL     1      44.209 -20.225   3.073  1.00  0.00    -0.012 A 
HETATM   17  C   UNL     1      44.255 -21.352   2.092  1.00  0.00     0.057 C 
HETATM   18  O   UNL     1      42.432 -16.292   3.800  1.00  0.00    -0.267 OA
ENDBRANCH   6   7
ENDBRANCH   3   6
ENDBRANCH   1   2
BRANCH   1  19
HETATM   19  C   UNL     1      45.260 -12.440   9.555  1.00  0.00     0.029 C 
BRANCH  19  20
HETATM   20  C   UNL     1      44.963 -10.944   9.624  1.00  0.00     0.104 C 
BRANCH  20  21
HETATM   21  C   UNL     1      43.696 -10.618  10.390  1.00  0.00     0.217 C 
HETATM   22  N   UNL     1      42.527 -11.053   9.814  1.00  0.00    -0.361 N 
HETATM   23  H   UNL     1      42.574 -11.438   8.873  1.00  0.00     0.162 HD
HETATM   24  O   UNL     1      43.700  -9.982  11.444  1.00  0.00    -0.274 OA
BRANCH  22  25
HETATM   25  C   UNL     1      41.225 -10.652  10.303  1.00  0.00     0.124 C 
BRANCH  25  26
HETATM   26  C   UNL     1      40.056 -11.165   9.463  1.00  0.00     0.047 C 
BRANCH  26  27
HETATM   27  C   UNL     1      39.521 -10.245   8.361  1.00  0.00     0.236 C 
BRANCH  27  28
HETATM   28  N   UNL     1      39.845 -10.698   6.955  1.00  0.00    -0.070 N 
HETATM   29  H   UNL     1      39.070 -10.318   6.370  1.00  0.00     0.279 HD
HETATM   30  C   UNL     1      41.175 -10.224   6.439  1.00  0.00     0.239 C 
HETATM   31  C   UNL     1      41.379 -10.623   4.975  1.00  0.00     0.008 C 
HETATM   32  C   UNL     1      40.504  -9.797   4.028  1.00  0.00     0.011 C 
HETATM   33  C   UNL     1      41.167 -12.130   4.780  1.00  0.00     0.011 C 
HETATM   34  C   UNL     1      39.833 -12.613   5.360  1.00  0.00     0.008 C 
HETATM   35  C   UNL     1      39.710 -14.131   5.222  1.00  0.00     0.011 C 
HETATM   36  C   UNL     1      39.694 -12.199   6.827  1.00  0.00     0.239 C 
ENDBRANCH  27  28
ENDBRANCH  26  27
ENDBRANCH  25  26
ENDBRANCH  22  25
ENDBRANCH  20  21
ENDBRANCH  19  20
ENDBRANCH   1  19
TORSDOF 10
ENDMDL
MODEL 5
REMARK VINA RESULT:      -8.2      1.654      2.317
REMARK  10 active torsions:
REMARK  status: ('A' for Active; 'I' for Inactive)
REMARK    1  A    between atoms: N_7  and  C_8 
REMARK    2  A    between atoms: C_8  and  C_9 
REMARK       I    between atoms: C_9  and  N_10 
REMARK    3  A    between atoms: N_10  and  C_11 
REMARK    4  A    between atoms: C_11  and  C_12 
REMARK    5  A    between atoms: C_12  and  C_13 
REMARK    6  A    between atoms: C_13  and  C_14 
REMARK       I    between atoms: C_14  and  N_15 
REMARK    7  A    between atoms: N_15  and  C_16 
REMARK    8  A    between atoms: C_16  and  C_17 
REMARK    9  A    between atoms: C_17  and  C_18 
REMARK   10  A    between atoms: C_18  and  N_19 
ROOT
HETATM    1  C   UNL     1      39.850 -14.415   5.229  1.00  0.00     0.123 C 
ENDROOT
BRANCH   1   2
HETATM    2  N   UNL     1      41.231 -14.700   4.901  1.00  0.00    -0.360 N 
HETATM    3  C   UNL     1      41.629 -14.931   3.597  1.00  0.00     0.235 C 
HETATM    4  O   UNL     1      40.840 -14.936   2.656  1.00  0.00    -0.272 OA
HETATM    5  H   UNL     1      41.901 -14.791   5.656  1.00  0.00     0.162 HD
BRANCH   3   6
HETATM    6  C   UNL     1      43.139 -15.097   3.422  1.00  0.00     0.235 C 
BRANCH   6   7
HETATM    7  N   UNL     1      43.478 -16.503   3.289  1.00  0.00    -0.299 N 
HETATM    8  C   UNL     1      43.664 -17.057   2.037  1.00  0.00     0.214 A 
HETATM    9  N   UNL     1      44.000 -18.284   1.802  1.00  0.00    -0.235 NA
HETATM   10  C   UNL     1      44.165 -19.042   2.915  1.00  0.00     0.115 A 
HETATM   11  C   UNL     1      43.967 -18.647   4.220  1.00  0.00     0.075 A 
HETATM   12  S   UNL     1      44.672 -20.661   2.816  1.00  0.00    -0.074 SA
HETATM   13  C   UNL     1      44.224 -19.701   5.169  1.00  0.00    -0.031 A 
HETATM   14  C   UNL     1      43.553 -17.271   4.447  1.00  0.00     0.262 A 
HETATM   15  C   UNL     1      44.073 -19.554   6.650  1.00  0.00     0.050 C 
HETATM   16  C   UNL     1      44.655 -20.850   4.518  1.00  0.00    -0.012 A 
HETATM   17  C   UNL     1      45.071 -22.160   5.106  1.00  0.00     0.057 C 
HETATM   18  O   UNL     1      43.294 -16.823   5.563  1.00  0.00    -0.267 OA
ENDBRANCH   6   7
ENDBRANCH   3   6
ENDBRANCH   1   2
BRANCH   1  19
HETATM   19  C   UNL     1      39.713 -13.239   6.195  1.00  0.00     0.029 C 
BRANCH  19  20
HETATM   20  C   UNL     1      40.144 -11.935   5.528  1.00  0.00     0.104 C 
BRANCH  20  21
HETATM   21  C   UNL     1      39.665 -10.698   6.262  1.00  0.00     0.217 C 
HETATM   22  N   UNL     1      40.452 -10.290   7.312  1.00  0.00    -0.361 N 
HETATM   23  H   UNL     1      41.211 -10.902   7.605  1.00  0.00     0.162 HD
HETATM   24  O   UNL     1      38.627 -10.108   5.964  1.00  0.00    -0.274 OA
BRANCH  22  25
HETATM   25  C   UNL     1      40.036  -9.260   8.239  1.00  0.00     0.124 C 
BRANCH  25  26
HETATM   26  C   UNL     1      39.797  -9.758   9.664  1.00  0.00     0.047 C 
BRANCH  26  27
HETATM   27  C   UNL     1      40.283 -11.169  10.009  1.00  0.00     0.236 C 
BRANCH  27  28
HETATM   28  N   UNL     1      41.545 -11.211  10.842  1.00  0.00    -0.070 N 
HETATM   29  H   UNL     1      41.689 -12.221  11.054  1.00  0.00     0.279 HD
HETATM   30  C   UNL     1      42.758 -10.637  10.164  1.00  0.00     0.239 C 
HETATM   31  C   UNL     1      44.014 -10.819  11.020  1.00  0.00     0.008 C 
HETATM   32  C   UNL     1      44.484 -12.277  11.046  1.00  0.00     0.011 C 
HETATM   33  C   UNL     1      43.803 -10.263  12.434  1.00  0.00     0.011 C 
HETATM   34  C   UNL     1      42.533 -10.809  13.095  1.00  0.00     0.008 C 
HETATM   35  C   UNL     1      42.320 -10.157  14.461  1.00  0.00     0.011 C 
HETATM   36  C   UNL     1      41.312 -10.584  12.201  1.00  0.00     0.239 C 
ENDBRANCH  27  28
ENDBRANCH  26  27
ENDBRANCH  25  26
ENDBRANCH  22  25
ENDBRANCH  20  21
ENDBRANCH  19  20
ENDBRANCH   1  19
TORSDOF 10
ENDMDL
MODEL 6
REMARK VINA RESULT:      -8.1      3.246     10.076
REMARK  10 active torsions:
REMARK  status: ('A' for Active; 'I' for Inactive)
REMARK    1  A    between atoms: N_7  and  C_8 
REMARK    2  A    between atoms: C_8  and  C_9 
REMARK       I    between atoms: C_9  and  N_10 
REMARK    3  A    between atoms: N_10  and  C_11 
REMARK    4  A    between atoms: C_11  and  C_12 
REMARK    5  A    between atoms: C_12  and  C_13 
REMARK    6  A    between atoms: C_13  and  C_14 
REMARK       I    between atoms: C_14  and  N_15 
REMARK    7  A    between atoms: N_15  and  C_16 
REMARK    8  A    between atoms: C_16  and  C_17 
REMARK    9  A    between atoms: C_17  and  C_18 
REMARK   10  A    between atoms: C_18  and  N_19 
ROOT
HETATM    1  C   UNL     1      43.191 -14.179   5.730  1.00  0.00     0.123 C 
ENDROOT
BRANCH   1   2
HETATM    2  N   UNL     1      43.714 -13.162   6.617  1.00  0.00    -0.360 N 
HETATM    3  C   UNL     1      44.437 -13.496   7.748  1.00  0.00     0.235 C 
HETATM    4  O   UNL     1      44.649 -14.660   8.078  1.00  0.00    -0.272 OA
HETATM    5  H   UNL     1      43.490 -12.192   6.431  1.00  0.00     0.162 HD
BRANCH   3   6
HETATM    6  C   UNL     1      45.012 -12.296   8.502  1.00  0.00     0.235 C 
BRANCH   6   7
HETATM    7  N   UNL     1      44.138 -11.925   9.600  1.00  0.00    -0.299 N 
HETATM    8  C   UNL     1      44.327 -12.471  10.855  1.00  0.00     0.214 A 
HETATM    9  N   UNL     1      43.632 -12.189  11.909  1.00  0.00    -0.235 NA
HETATM   10  C   UNL     1      42.648 -11.278  11.702  1.00  0.00     0.115 A 
HETATM   11  C   UNL     1      42.307 -10.688  10.506  1.00  0.00     0.075 A 
HETATM   12  S   UNL     1      41.672 -10.726  12.979  1.00  0.00    -0.074 SA
HETATM   13  C   UNL     1      41.205  -9.766  10.630  1.00  0.00    -0.031 A 
HETATM   14  C   UNL     1      43.083 -11.055   9.332  1.00  0.00     0.262 A 
HETATM   15  C   UNL     1      40.619  -8.998   9.488  1.00  0.00     0.050 C 
HETATM   16  C   UNL     1      40.793  -9.674  11.953  1.00  0.00    -0.012 A 
HETATM   17  C   UNL     1      39.721  -8.815  12.543  1.00  0.00     0.057 C 
HETATM   18  O   UNL     1      42.835 -10.636   8.203  1.00  0.00    -0.267 OA
ENDBRANCH   6   7
ENDBRANCH   3   6
ENDBRANCH   1   2
BRANCH   1  19
HETATM   19  C   UNL     1      41.703 -13.988   5.441  1.00  0.00     0.029 C 
BRANCH  19  20
HETATM   20  C   UNL     1      41.445 -13.928   3.937  1.00  0.00     0.104 C 
BRANCH  20  21
HETATM   21  C   UNL     1      41.732 -15.235   3.226  1.00  0.00     0.217 C 
HETATM   22  N   UNL     1      42.696 -15.178   2.248  1.00  0.00    -0.361 N 
HETATM   23  H   UNL     1      43.051 -14.262   1.981  1.00  0.00     0.162 HD
HETATM   24  O   UNL     1      41.129 -16.277   3.478  1.00  0.00    -0.274 OA
BRANCH  22  25
HETATM   25  C   UNL     1      42.946 -16.276   1.340  1.00  0.00     0.124 C 
BRANCH  25  26
HETATM   26  C   UNL     1      44.104 -17.183   1.756  1.00  0.00     0.047 C 
BRANCH  26  27
HETATM   27  C   UNL     1      43.772 -18.637   2.103  1.00  0.00     0.236 C 
BRANCH  27  28
HETATM   28  N   UNL     1      44.164 -19.052   3.504  1.00  0.00    -0.070 N 
HETATM   29  H   UNL     1      45.110 -18.637   3.648  1.00  0.00     0.279 HD
HETATM   30  C   UNL     1      43.218 -18.589   4.578  1.00  0.00     0.239 C 
HETATM   31  C   UNL     1      43.741 -18.946   5.972  1.00  0.00     0.008 C 
HETATM   32  C   UNL     1      44.930 -18.072   6.380  1.00  0.00     0.011 C 
HETATM   33  C   UNL     1      44.070 -20.441   6.072  1.00  0.00     0.011 C 
HETATM   34  C   UNL     1      44.988 -20.915   4.940  1.00  0.00     0.008 C 
HETATM   35  C   UNL     1      45.212 -22.424   5.032  1.00  0.00     0.011 C 
HETATM   36  C   UNL     1      44.407 -20.545   3.574  1.00  0.00     0.239 C 
ENDBRANCH  27  28
ENDBRANCH  26  27
ENDBRANCH  25  26
ENDBRANCH  22  25
ENDBRANCH  20  21
ENDBRANCH  19  20
ENDBRANCH   1  19
TORSDOF 10
ENDMDL
MODEL 7
REMARK VINA RESULT:      -8.0      4.817      8.439
REMARK  10 active torsions:
REMARK  status: ('A' for Active; 'I' for Inactive)
REMARK    1  A    between atoms: N_7  and  C_8 
REMARK    2  A    between atoms: C_8  and  C_9 
REMARK       I    between atoms: C_9  and  N_10 
REMARK    3  A    between atoms: N_10  and  C_11 
REMARK    4  A    between atoms: C_11  and  C_12 
REMARK    5  A    between atoms: C_12  and  C_13 
REMARK    6  A    between atoms: C_13  and  C_14 
REMARK       I    between atoms: C_14  and  N_15 
REMARK    7  A    between atoms: N_15  and  C_16 
REMARK    8  A    between atoms: C_16  and  C_17 
REMARK    9  A    between atoms: C_17  and  C_18 
REMARK   10  A    between atoms: C_18  and  N_19 
ROOT
HETATM    1  C   UNL     1      39.813 -14.480   3.940  1.00  0.00     0.123 C 
ENDROOT
BRANCH   1   2
HETATM    2  N   UNL     1      41.212 -14.540   4.307  1.00  0.00    -0.360 N 
HETATM    3  C   UNL     1      41.622 -15.119   5.495  1.00  0.00     0.235 C 
HETATM    4  O   UNL     1      40.830 -15.583   6.311  1.00  0.00    -0.272 OA
HETATM    5  H   UNL     1      41.893 -14.093   3.704  1.00  0.00     0.162 HD
BRANCH   3   6
HETATM    6  C   UNL     1      43.139 -15.201   5.663  1.00  0.00     0.235 C 
BRANCH   6   7
HETATM    7  N   UNL     1      43.602 -16.552   5.404  1.00  0.00    -0.299 N 
HETATM    8  C   UNL     1      44.129 -17.315   6.428  1.00  0.00     0.214 A 
HETATM    9  N   UNL     1      44.540 -18.536   6.319  1.00  0.00    -0.235 NA
HETATM   10  C   UNL     1      44.422 -19.057   5.072  1.00  0.00     0.115 A 
HETATM   11  C   UNL     1      43.967 -18.408   3.946  1.00  0.00     0.075 A 
HETATM   12  S   UNL     1      44.844 -20.670   4.744  1.00  0.00    -0.074 SA
HETATM   13  C   UNL     1      43.974 -19.248   2.774  1.00  0.00    -0.031 A 
HETATM   14  C   UNL     1      43.548 -17.024   4.095  1.00  0.00     0.262 A 
HETATM   15  C   UNL     1      43.546 -18.797   1.414  1.00  0.00     0.050 C 
HETATM   16  C   UNL     1      44.403 -20.530   3.095  1.00  0.00    -0.012 A 
HETATM   17  C   UNL     1      44.525 -21.727   2.208  1.00  0.00     0.057 C 
HETATM   18  O   UNL     1      43.177 -16.329   3.151  1.00  0.00    -0.267 OA
ENDBRANCH   6   7
ENDBRANCH   3   6
ENDBRANCH   1   2
BRANCH   1  19
HETATM   19  C   UNL     1      39.614 -14.219   2.448  1.00  0.00     0.029 C 
BRANCH  19  20
HETATM   20  C   UNL     1      38.984 -12.847   2.216  1.00  0.00     0.104 C 
BRANCH  20  21
HETATM   21  C   UNL     1      39.592 -12.097   1.048  1.00  0.00     0.217 C 
HETATM   22  N   UNL     1      40.785 -11.465   1.306  1.00  0.00    -0.361 N 
HETATM   23  H   UNL     1      41.107 -11.430   2.271  1.00  0.00     0.162 HD
HETATM   24  O   UNL     1      39.050 -12.028  -0.055  1.00  0.00    -0.274 OA
BRANCH  22  25
HETATM   25  C   UNL     1      41.392 -10.543   0.370  1.00  0.00     0.124 C 
BRANCH  25  26
HETATM   26  C   UNL     1      42.518 -11.150  -0.467  1.00  0.00     0.047 C 
BRANCH  26  27
HETATM   27  C   UNL     1      42.190 -11.546  -1.909  1.00  0.00     0.236 C 
BRANCH  27  28
HETATM   28  N   UNL     1      41.369 -12.810  -2.041  1.00  0.00    -0.070 N 
HETATM   29  H   UNL     1      40.435 -12.561  -1.649  1.00  0.00     0.279 HD
HETATM   30  C   UNL     1      41.230 -13.318  -3.449  1.00  0.00     0.239 C 
HETATM   31  C   UNL     1      40.293 -14.527  -3.515  1.00  0.00     0.008 C 
HETATM   32  C   UNL     1      38.828 -14.130  -3.312  1.00  0.00     0.011 C 
HETATM   33  C   UNL     1      40.731 -15.618  -2.529  1.00  0.00     0.011 C 
HETATM   34  C   UNL     1      40.926 -15.078  -1.108  1.00  0.00     0.008 C 
HETATM   35  C   UNL     1      41.449 -16.180  -0.186  1.00  0.00     0.011 C 
HETATM   36  C   UNL     1      41.882 -13.883  -1.103  1.00  0.00     0.239 C 
ENDBRANCH  27  28
ENDBRANCH  26  27
ENDBRANCH  25  26
ENDBRANCH  22  25
ENDBRANCH  20  21
ENDBRANCH  19  20
ENDBRANCH   1  19
TORSDOF 10
ENDMDL
MODEL 8
REMARK VINA RESULT:      -7.9      4.379      8.707
REMARK  10 active torsions:
REMARK  status: ('A' for Active; 'I' for Inactive)
REMARK    1  A    between atoms: N_7  and  C_8 
REMARK    2  A    between atoms: C_8  and  C_9 
REMARK       I    between atoms: C_9  and  N_10 
REMARK    3  A    between atoms: N_10  and  C_11 
REMARK    4  A    between atoms: C_11  and  C_12 
REMARK    5  A    between atoms: C_12  and  C_13 
REMARK    6  A    between atoms: C_13  and  C_14 
REMARK       I    between atoms: C_14  and  N_15 
REMARK    7  A    between atoms: N_15  and  C_16 
REMARK    8  A    between atoms: C_16  and  C_17 
REMARK    9  A    between atoms: C_17  and  C_18 
REMARK   10  A    between atoms: C_18  and  N_19 
ROOT
HETATM    1  C   UNL     1      42.428 -12.919   6.196  1.00  0.00     0.123 C 
ENDROOT
BRANCH   1   2
HETATM    2  N   UNL     1      42.696 -14.328   6.389  1.00  0.00    -0.360 N 
HETATM    3  C   UNL     1      43.985 -14.801   6.558  1.00  0.00     0.235 C 
HETATM    4  O   UNL     1      44.968 -14.065   6.525  1.00  0.00    -0.272 OA
HETATM    5  H   UNL     1      41.923 -14.982   6.338  1.00  0.00     0.162 HD
BRANCH   3   6
HETATM    6  C   UNL     1      44.071 -16.295   6.867  1.00  0.00     0.235 C 
BRANCH   6   7
HETATM    7  N   UNL     1      43.894 -17.071   5.653  1.00  0.00    -0.299 N 
HETATM    8  C   UNL     1      43.331 -16.491   4.532  1.00  0.00     0.214 A 
HETATM    9  N   UNL     1      43.157 -17.075   3.392  1.00  0.00    -0.235 NA
HETATM   10  C   UNL     1      43.579 -18.363   3.353  1.00  0.00     0.115 A 
HETATM   11  C   UNL     1      44.111 -19.090   4.395  1.00  0.00     0.075 A 
HETATM   12  S   UNL     1      43.499 -19.277   1.923  1.00  0.00    -0.074 SA
HETATM   13  C   UNL     1      44.452 -20.439   4.020  1.00  0.00    -0.031 A 
HETATM   14  C   UNL     1      44.258 -18.415   5.675  1.00  0.00     0.262 A 
HETATM   15  C   UNL     1      45.032 -21.451   4.957  1.00  0.00     0.050 C 
HETATM   16  C   UNL     1      44.195 -20.651   2.671  1.00  0.00    -0.012 A 
HETATM   17  C   UNL     1      44.434 -21.879   1.853  1.00  0.00     0.057 C 
HETATM   18  O   UNL     1      44.668 -18.978   6.688  1.00  0.00    -0.267 OA
ENDBRANCH   6   7
ENDBRANCH   3   6
ENDBRANCH   1   2
BRANCH   1  19
HETATM   19  C   UNL     1      41.557 -12.655   4.968  1.00  0.00     0.029 C 
BRANCH  19  20
HETATM   20  C   UNL     1      42.336 -12.923   3.682  1.00  0.00     0.104 C 
BRANCH  20  21
HETATM   21  C   UNL     1      41.571 -13.767   2.683  1.00  0.00     0.217 C 
HETATM   22  N   UNL     1      40.213 -13.832   2.878  1.00  0.00    -0.361 N 
HETATM   23  H   UNL     1      39.834 -13.429   3.732  1.00  0.00     0.162 HD
HETATM   24  O   UNL     1      42.123 -14.383   1.771  1.00  0.00    -0.274 OA
BRANCH  22  25
HETATM   25  C   UNL     1      39.366 -14.750   2.146  1.00  0.00     0.124 C 
BRANCH  25  26
HETATM   26  C   UNL     1      38.449 -14.078   1.124  1.00  0.00     0.047 C 
BRANCH  26  27
HETATM   27  C   UNL     1      39.067 -13.013   0.214  1.00  0.00     0.236 C 
BRANCH  27  28
HETATM   28  N   UNL     1      39.352 -13.482  -1.196  1.00  0.00    -0.070 N 
HETATM   29  H   UNL     1      39.533 -12.608  -1.734  1.00  0.00     0.279 HD
HETATM   30  C   UNL     1      40.517 -14.425  -1.315  1.00  0.00     0.239 C 
HETATM   31  C   UNL     1      40.813 -14.762  -2.778  1.00  0.00     0.008 C 
HETATM   32  C   UNL     1      41.448 -13.583  -3.521  1.00  0.00     0.011 C 
HETATM   33  C   UNL     1      39.556 -15.276  -3.491  1.00  0.00     0.011 C 
HETATM   34  C   UNL     1      38.358 -14.337  -3.316  1.00  0.00     0.008 C 
HETATM   35  C   UNL     1      37.111 -14.936  -3.965  1.00  0.00     0.011 C 
HETATM   36  C   UNL     1      38.101 -14.049  -1.835  1.00  0.00     0.239 C 
ENDBRANCH  27  28
ENDBRANCH  26  27
ENDBRANCH  25  26
ENDBRANCH  22  25
ENDBRANCH  20  21
ENDBRANCH  19  20
ENDBRANCH   1  19
TORSDOF 10
ENDMDL
MODEL 9
REMARK VINA RESULT:      -7.9      4.322      8.439
REMARK  10 active torsions:
REMARK  status: ('A' for Active; 'I' for Inactive)
REMARK    1  A    between atoms: N_7  and  C_8 
REMARK    2  A    between atoms: C_8  and  C_9 
REMARK       I    between atoms: C_9  and  N_10 
REMARK    3  A    between atoms: N_10  and  C_11 
REMARK    4  A    between atoms: C_11  and  C_12 
REMARK    5  A    between atoms: C_12  and  C_13 
REMARK    6  A    between atoms: C_13  and  C_14 
REMARK       I    between atoms: C_14  and  N_15 
REMARK    7  A    between atoms: N_15  and  C_16 
REMARK    8  A    between atoms: C_16  and  C_17 
REMARK    9  A    between atoms: C_17  and  C_18 
REMARK   10  A    between atoms: C_18  and  N_19 
ROOT
HETATM    1  C   UNL     1      42.312 -12.792   4.830  1.00  0.00     0.123 C 
ENDROOT
BRANCH   1   2
HETATM    2  N   UNL     1      42.080 -14.094   5.419  1.00  0.00    -0.360 N 
HETATM    3  C   UNL     1      43.094 -14.788   6.054  1.00  0.00     0.235 C 
HETATM    4  O   UNL     1      44.243 -14.359   6.129  1.00  0.00    -0.272 OA
HETATM    5  H   UNL     1      41.170 -14.524   5.306  1.00  0.00     0.162 HD
BRANCH   3   6
HETATM    6  C   UNL     1      42.643 -16.089   6.719  1.00  0.00     0.235 C 
BRANCH   6   7
HETATM    7  N   UNL     1      43.297 -17.225   6.096  1.00  0.00    -0.299 N 
HETATM    8  C   UNL     1      44.260 -17.937   6.785  1.00  0.00     0.214 A 
HETATM    9  N   UNL     1      44.881 -18.981   6.343  1.00  0.00    -0.235 NA
HETATM   10  C   UNL     1      44.517 -19.362   5.093  1.00  0.00     0.115 A 
HETATM   11  C   UNL     1      43.615 -18.728   4.268  1.00  0.00     0.075 A 
HETATM   12  S   UNL     1      45.170 -20.752   4.365  1.00  0.00    -0.074 SA
HETATM   13  C   UNL     1      43.459 -19.389   2.996  1.00  0.00    -0.031 A 
HETATM   14  C   UNL     1      42.962 -17.534   4.780  1.00  0.00     0.262 A 
HETATM   15  C   UNL     1      42.557 -18.909   1.903  1.00  0.00     0.050 C 
HETATM   16  C   UNL     1      44.238 -20.538   2.944  1.00  0.00    -0.012 A 
HETATM   17  C   UNL     1      44.354 -21.543   1.844  1.00  0.00     0.057 C 
HETATM   18  O   UNL     1      42.181 -16.856   4.114  1.00  0.00    -0.267 OA
ENDBRANCH   6   7
ENDBRANCH   3   6
ENDBRANCH   1   2
BRANCH   1  19
HETATM   19  C   UNL     1      41.011 -12.045   4.539  1.00  0.00     0.029 C 
BRANCH  19  20
HETATM   20  C   UNL     1      39.814 -12.991   4.615  1.00  0.00     0.104 C 
BRANCH  20  21
HETATM   21  C   UNL     1      39.431 -13.584   3.275  1.00  0.00     0.217 C 
HETATM   22  N   UNL     1      39.717 -14.919   3.114  1.00  0.00    -0.361 N 
HETATM   23  H   UNL     1      40.271 -15.378   3.835  1.00  0.00     0.162 HD
HETATM   24  O   UNL     1      38.925 -12.919   2.371  1.00  0.00    -0.274 OA
BRANCH  22  25
HETATM   25  C   UNL     1      39.607 -15.588   1.836  1.00  0.00     0.124 C 
BRANCH  25  26
HETATM   26  C   UNL     1      40.916 -15.655   1.049  1.00  0.00     0.047 C 
BRANCH  26  27
HETATM   27  C   UNL     1      41.422 -14.360   0.408  1.00  0.00     0.236 C 
BRANCH  27  28
HETATM   28  N   UNL     1      41.136 -14.239  -1.072  1.00  0.00    -0.070 N 
HETATM   29  H   UNL     1      41.620 -15.056  -1.503  1.00  0.00     0.279 HD
HETATM   30  C   UNL     1      39.675 -14.246  -1.427  1.00  0.00     0.239 C 
HETATM   31  C   UNL     1      39.470 -14.238  -2.944  1.00  0.00     0.008 C 
HETATM   32  C   UNL     1      39.824 -15.586  -3.578  1.00  0.00     0.011 C 
HETATM   33  C   UNL     1      40.236 -13.081  -3.597  1.00  0.00     0.011 C 
HETATM   34  C   UNL     1      41.711 -13.048  -3.185  1.00  0.00     0.008 C 
HETATM   35  C   UNL     1      42.407 -11.828  -3.788  1.00  0.00     0.011 C 
HETATM   36  C   UNL     1      41.852 -13.042  -1.661  1.00  0.00     0.239 C 
ENDBRANCH  27  28
ENDBRANCH  26  27
ENDBRANCH  25  26
ENDBRANCH  22  25
ENDBRANCH  20  21
ENDBRANCH  19  20
ENDBRANCH   1  19
TORSDOF 10
ENDMDL
MODEL 10
REMARK VINA RESULT:      -7.8      4.293      8.402
REMARK  10 active torsions:
REMARK  status: ('A' for Active; 'I' for Inactive)
REMARK    1  A    between atoms: N_7  and  C_8 
REMARK    2  A    between atoms: C_8  and  C_9 
REMARK       I    between atoms: C_9  and  N_10 
REMARK    3  A    between atoms: N_10  and  C_11 
REMARK    4  A    between atoms: C_11  and  C_12 
REMARK    5  A    between atoms: C_12  and  C_13 
REMARK    6  A    between atoms: C_13  and  C_14 
REMARK       I    between atoms: C_14  and  N_15 
REMARK    7  A    between atoms: N_15  and  C_16 
REMARK    8  A    between atoms: C_16  and  C_17 
REMARK    9  A    between atoms: C_17  and  C_18 
REMARK   10  A    between atoms: C_18  and  N_19 
ROOT
HETATM    1  C   UNL     1      42.410 -13.507   5.779  1.00  0.00     0.123 C 
ENDROOT
BRANCH   1   2
HETATM    2  N   UNL     1      42.018 -14.860   6.117  1.00  0.00    -0.360 N 
HETATM    3  C   UNL     1      42.894 -15.729   6.742  1.00  0.00     0.235 C 
HETATM    4  O   UNL     1      44.050 -15.418   7.016  1.00  0.00    -0.272 OA
HETATM    5  H   UNL     1      41.102 -15.186   5.832  1.00  0.00     0.162 HD
BRANCH   3   6
HETATM    6  C   UNL     1      42.276 -17.072   7.129  1.00  0.00     0.235 C 
BRANCH   6   7
HETATM    7  N   UNL     1      42.989 -18.160   6.484  1.00  0.00    -0.299 N 
HETATM    8  C   UNL     1      43.770 -19.019   7.232  1.00  0.00     0.214 A 
HETATM    9  N   UNL     1      44.420 -20.037   6.770  1.00  0.00    -0.235 NA
HETATM   10  C   UNL     1      44.289 -20.224   5.432  1.00  0.00     0.115 A 
HETATM   11  C   UNL     1      43.591 -19.428   4.552  1.00  0.00     0.075 A 
HETATM   12  S   UNL     1      45.011 -21.548   4.649  1.00  0.00    -0.074 SA
HETATM   13  C   UNL     1      43.657 -19.904   3.193  1.00  0.00    -0.031 A 
HETATM   14  C   UNL     1      42.902 -18.270   5.099  1.00  0.00     0.262 A 
HETATM   15  C   UNL     1      43.003 -19.225   2.031  1.00  0.00     0.050 C 
HETATM   16  C   UNL     1      44.382 -21.087   3.125  1.00  0.00    -0.012 A 
HETATM   17  C   UNL     1      44.665 -21.945   1.934  1.00  0.00     0.057 C 
HETATM   18  O   UNL     1      42.294 -17.458   4.402  1.00  0.00    -0.267 OA
ENDBRANCH   6   7
ENDBRANCH   3   6
ENDBRANCH   1   2
BRANCH   1  19
HETATM   19  C   UNL     1      42.220 -13.202   4.294  1.00  0.00     0.029 C 
BRANCH  19  20
HETATM   20  C   UNL     1      43.418 -13.689   3.481  1.00  0.00     0.104 C 
BRANCH  20  21
HETATM   21  C   UNL     1      43.116 -14.916   2.644  1.00  0.00     0.217 C 
HETATM   22  N   UNL     1      41.834 -14.999   2.156  1.00  0.00    -0.361 N 
HETATM   23  H   UNL     1      41.152 -14.319   2.487  1.00  0.00     0.162 HD
HETATM   24  O   UNL     1      43.946 -15.800   2.433  1.00  0.00    -0.274 OA
BRANCH  22  25
HETATM   25  C   UNL     1      41.323 -16.193   1.517  1.00  0.00     0.124 C 
BRANCH  25  26
HETATM   26  C   UNL     1      41.451 -16.191  -0.007  1.00  0.00     0.047 C 
BRANCH  26  27
HETATM   27  C   UNL     1      41.301 -14.848  -0.726  1.00  0.00     0.236 C 
BRANCH  27  28
HETATM   28  N   UNL     1      39.875 -14.358  -0.849  1.00  0.00    -0.070 N 
HETATM   29  H   UNL     1      39.306 -15.072  -0.345  1.00  0.00     0.279 HD
HETATM   30  C   UNL     1      39.634 -12.991  -0.273  1.00  0.00     0.239 C 
HETATM   31  C   UNL     1      38.151 -12.615  -0.330  1.00  0.00     0.008 C 
HETATM   32  C   UNL     1      37.321 -13.398   0.691  1.00  0.00     0.011 C 
HETATM   33  C   UNL     1      37.599 -12.767  -1.753  1.00  0.00     0.011 C 
HETATM   34  C   UNL     1      37.899 -14.145  -2.353  1.00  0.00     0.008 C 
HETATM   35  C   UNL     1      37.409 -14.215  -3.800  1.00  0.00     0.011 C 
HETATM   36  C   UNL     1      39.395 -14.457  -2.282  1.00  0.00     0.239 C 
ENDBRANCH  27  28
ENDBRANCH  26  27
ENDBRANCH  25  26
ENDBRANCH  22  25
ENDBRANCH  20  21
ENDBRANCH  19  20
ENDBRANCH   1  19
TORSDOF 10
ENDMDL
