MODEL 1
REMARK VINA RESULT:      -8.8      0.000      0.000
REMARK  3 active torsions:
REMARK  status: ('A' for Active; 'I' for Inactive)
REMARK    1  A    between atoms: C_2  and  C_3 
REMARK    2  A    between atoms: C_3  and  C_4 
REMARK    3  A    between atoms: C_8  and  C_9 
REMARK       I    between atoms: C_9  and  N_10 
ROOT
HETATM    1  C   UNL     1      40.204 -15.456   1.559  1.00  0.00     0.271 C 
HETATM    2  N   UNL     1      41.276 -16.194   2.080  1.00  0.00    -0.347 N 
HETATM    3  C   UNL     1      42.689 -15.896   1.853  1.00  0.00     0.128 C 
HETATM    4  C   UNL     1      43.552 -16.166   3.079  1.00  0.00     0.055 C 
HETATM    5  C   UNL     1      43.321 -17.560   3.678  1.00  0.00     0.100 C 
HETATM    6  N   UNL     1      43.840 -18.584   2.731  1.00  0.00    -0.273 NA
HETATM    7  C   UNL     1      44.080 -19.853   3.287  1.00  0.00     0.036 A 
HETATM    8  C   UNL     1      44.384 -20.011   4.651  1.00  0.00     0.056 A 
HETATM    9  N   UNL     1      44.389 -18.894   5.492  1.00  0.00    -0.324 N 
HETATM   10  C   UNL     1      44.038 -17.640   5.057  1.00  0.00     0.245 C 
HETATM   11  O   UNL     1      44.191 -16.671   5.802  1.00  0.00    -0.271 OA
HETATM   12  C   UNL     1      44.172 -20.970   2.451  1.00  0.00     0.026 A 
HETATM   13  C   UNL     1      44.489 -22.227   2.974  1.00  0.00     0.002 A 
HETATM   14  C   UNL     1      44.754 -22.373   4.336  1.00  0.00     0.002 A 
HETATM   15  C   UNL     1      44.713 -21.261   5.176  1.00  0.00     0.031 A 
HETATM   16  C   UNL     1      41.816 -17.763   3.929  1.00  0.00     0.055 C 
HETATM   17  C   UNL     1      40.972 -17.483   2.693  1.00  0.00     0.128 C 
HETATM   18  O   UNL     1      39.049 -15.676   1.923  1.00  0.00    -0.266 OA
HETATM   19  H   UNL     1      43.338 -18.644   1.851  1.00  0.00     0.129 HD
HETATM   20  H   UNL     1      44.756 -18.960   6.431  1.00  0.00     0.169 HD
ENDROOT
BRANCH   1  21
HETATM   21  C   UNL     1      40.457 -14.411   0.598  1.00  0.00     0.119 A 
HETATM   22  N   UNL     1      40.274 -14.616  -0.743  1.00  0.00    -0.273 N 
HETATM   23  N   UNL     1      40.515 -13.535  -1.505  1.00  0.00    -0.179 NA
HETATM   24  H   UNL     1      39.961 -15.473  -1.190  1.00  0.00     0.189 HD
HETATM   25  C   UNL     1      40.946 -12.620  -0.631  1.00  0.00     0.057 A 
HETATM   26  C   UNL     1      40.975 -13.133   0.685  1.00  0.00     0.065 A 
BRANCH  25  27
HETATM   27  C   UNL     1      41.323 -11.245  -1.081  1.00  0.00     0.065 C 
BRANCH  27  28
HETATM   28  C   UNL     1      42.670 -11.209  -1.828  1.00  0.00    -0.017 C 
HETATM   29  C   UNL     1      43.599 -10.125  -1.274  1.00  0.00     0.010 C 
HETATM   30  C   UNL     1      42.437 -10.980  -3.322  1.00  0.00     0.010 C 
ENDBRANCH  27  28
ENDBRANCH  25  27
ENDBRANCH   1  21
TORSDOF 3
ENDMDL
MODEL 2
REMARK VINA RESULT:      -8.3      1.932      8.868
REMARK  3 active torsions:
REMARK  status: ('A' for Active; 'I' for Inactive)
REMARK    1  A    between atoms: C_2  and  C_3 
REMARK    2  A    between atoms: C_3  and  C_4 
REMARK    3  A    between atoms: C_8  and  C_9 
REMARK       I    between atoms: C_9  and  N_10 
ROOT
HETATM    1  C   UNL     1      40.543 -15.218   2.669  1.00  0.00     0.271 C 
HETATM    2  N   UNL     1      40.813 -14.889   1.334  1.00  0.00    -0.347 N 
HETATM    3  C   UNL     1      41.750 -15.602   0.468  1.00  0.00     0.128 C 
HETATM    4  C   UNL     1      41.266 -15.695  -0.973  1.00  0.00     0.055 C 
HETATM    5  C   UNL     1      40.830 -14.339  -1.546  1.00  0.00     0.100 C 
HETATM    6  N   UNL     1      42.030 -13.473  -1.704  1.00  0.00    -0.273 NA
HETATM    7  C   UNL     1      41.876 -12.382  -2.576  1.00  0.00     0.036 A 
HETATM    8  C   UNL     1      40.951 -12.414  -3.635  1.00  0.00     0.056 A 
HETATM    9  N   UNL     1      40.118 -13.527  -3.793  1.00  0.00    -0.324 N 
HETATM   10  C   UNL     1      40.113 -14.576  -2.908  1.00  0.00     0.245 C 
HETATM   11  O   UNL     1      39.461 -15.589  -3.167  1.00  0.00    -0.271 OA
HETATM   12  C   UNL     1      42.759 -11.301  -2.497  1.00  0.00     0.026 A 
HETATM   13  C   UNL     1      42.674 -10.243  -3.407  1.00  0.00     0.002 A 
HETATM   14  C   UNL     1      41.727 -10.273  -4.431  1.00  0.00     0.002 A 
HETATM   15  C   UNL     1      40.870 -11.367  -4.554  1.00  0.00     0.031 A 
HETATM   16  C   UNL     1      39.808 -13.689  -0.596  1.00  0.00     0.055 C 
HETATM   17  C   UNL     1      40.311 -13.612   0.839  1.00  0.00     0.128 C 
HETATM   18  O   UNL     1      39.628 -14.669   3.283  1.00  0.00    -0.266 OA
HETATM   19  H   UNL     1      42.477 -13.204  -0.833  1.00  0.00     0.129 HD
HETATM   20  H   UNL     1      39.565 -13.639  -4.630  1.00  0.00     0.169 HD
ENDROOT
BRANCH   1  21
HETATM   21  C   UNL     1      41.333 -16.227   3.330  1.00  0.00     0.119 A 
HETATM   22  N   UNL     1      40.759 -17.151   4.162  1.00  0.00    -0.273 N 
HETATM   23  N   UNL     1      41.622 -18.047   4.671  1.00  0.00    -0.179 NA
HETATM   24  H   UNL     1      39.774 -17.229   4.397  1.00  0.00     0.189 HD
HETATM   25  C   UNL     1      42.810 -17.640   4.214  1.00  0.00     0.057 A 
HETATM   26  C   UNL     1      42.688 -16.481   3.414  1.00  0.00     0.065 A 
BRANCH  25  27
HETATM   27  C   UNL     1      44.061 -18.385   4.552  1.00  0.00     0.065 C 
BRANCH  27  28
HETATM   28  C   UNL     1      44.109 -19.790   3.921  1.00  0.00    -0.017 C 
HETATM   29  C   UNL     1      45.262 -20.626   4.482  1.00  0.00     0.010 C 
HETATM   30  C   UNL     1      44.240 -19.679   2.401  1.00  0.00     0.010 C 
ENDBRANCH  27  28
ENDBRANCH  25  27
ENDBRANCH   1  21
TORSDOF 3
ENDMDL
MODEL 3
REMARK VINA RESULT:      -8.1      2.840      4.019
REMARK  3 active torsions:
REMARK  status: ('A' for Active; 'I' for Inactive)
REMARK    1  A    between atoms: C_2  and  C_3 
REMARK    2  A    between atoms: C_3  and  C_4 
REMARK    3  A    between atoms: C_8  and  C_9 
REMARK       I    between atoms: C_9  and  N_10 
ROOT
HETATM    1  C   UNL     1      41.529 -13.768   0.598  1.00  0.00     0.271 C 
HETATM    2  N   UNL     1      41.761 -14.873   1.428  1.00  0.00    -0.347 N 
HETATM    3  C   UNL     1      40.949 -16.089   1.452  1.00  0.00     0.128 C 
HETATM    4  C   UNL     1      41.780 -17.347   1.667  1.00  0.00     0.055 C 
HETATM    5  C   UNL     1      42.734 -17.238   2.864  1.00  0.00     0.100 C 
HETATM    6  N   UNL     1      41.934 -17.207   4.118  1.00  0.00    -0.273 NA
HETATM    7  C   UNL     1      42.640 -17.518   5.293  1.00  0.00     0.036 A 
HETATM    8  C   UNL     1      43.780 -18.341   5.266  1.00  0.00     0.056 A 
HETATM    9  N   UNL     1      44.265 -18.812   4.042  1.00  0.00    -0.324 N 
HETATM   10  C   UNL     1      43.712 -18.449   2.840  1.00  0.00     0.245 C 
HETATM   11  O   UNL     1      44.090 -18.999   1.804  1.00  0.00    -0.271 OA
HETATM   12  C   UNL     1      42.123 -17.137   6.535  1.00  0.00     0.026 A 
HETATM   13  C   UNL     1      42.768 -17.506   7.718  1.00  0.00     0.002 A 
HETATM   14  C   UNL     1      43.918 -18.294   7.674  1.00  0.00     0.002 A 
HETATM   15  C   UNL     1      44.420 -18.723   6.446  1.00  0.00     0.031 A 
HETATM   16  C   UNL     1      43.581 -15.960   2.725  1.00  0.00     0.055 C 
HETATM   17  C   UNL     1      42.731 -14.715   2.506  1.00  0.00     0.128 C 
HETATM   18  O   UNL     1      42.346 -12.850   0.524  1.00  0.00    -0.266 OA
HETATM   19  H   UNL     1      41.352 -16.382   4.232  1.00  0.00     0.129 HD
HETATM   20  H   UNL     1      44.979 -19.526   4.014  1.00  0.00     0.169 HD
ENDROOT
BRANCH   1  21
HETATM   21  C   UNL     1      40.326 -13.710  -0.195  1.00  0.00     0.119 A 
HETATM   22  N   UNL     1      39.087 -13.799   0.382  1.00  0.00    -0.273 N 
HETATM   23  N   UNL     1      38.066 -13.690  -0.485  1.00  0.00    -0.179 NA
HETATM   24  H   UNL     1      38.884 -13.911   1.371  1.00  0.00     0.189 HD
HETATM   25  C   UNL     1      38.667 -13.606  -1.676  1.00  0.00     0.057 A 
HETATM   26  C   UNL     1      40.073 -13.664  -1.552  1.00  0.00     0.065 A 
BRANCH  25  27
HETATM   27  C   UNL     1      37.869 -13.464  -2.932  1.00  0.00     0.065 C 
BRANCH  27  28
HETATM   28  C   UNL     1      37.365 -14.815  -3.476  1.00  0.00    -0.017 C 
HETATM   29  C   UNL     1      38.495 -15.627  -4.116  1.00  0.00     0.010 C 
HETATM   30  C   UNL     1      36.248 -14.587  -4.496  1.00  0.00     0.010 C 
ENDBRANCH  27  28
ENDBRANCH  25  27
ENDBRANCH   1  21
TORSDOF 3
ENDMDL
MODEL 4
REMARK VINA RESULT:      -8.0      6.512      8.753
REMARK  3 active torsions:
REMARK  status: ('A' for Active; 'I' for Inactive)
REMARK    1  A    between atoms: C_2  and  C_3 
REMARK    2  A    between atoms: C_3  and  C_4 
REMARK    3  A    between atoms: C_8  and  C_9 
REMARK       I    between atoms: C_9  and  N_10 
ROOT
HETATM    1  C   UNL     1      45.023 -12.496   8.456  1.00  0.00     0.271 C 
HETATM    2  N   UNL     1      44.409 -13.208   7.416  1.00  0.00    -0.347 N 
HETATM    3  C   UNL     1      42.966 -13.299   7.199  1.00  0.00     0.128 C 
HETATM    4  C   UNL     1      42.591 -13.294   5.723  1.00  0.00     0.055 C 
HETATM    5  C   UNL     1      43.388 -14.316   4.900  1.00  0.00     0.100 C 
HETATM    6  N   UNL     1      42.969 -15.688   5.297  1.00  0.00    -0.273 NA
HETATM    7  C   UNL     1      43.286 -16.705   4.380  1.00  0.00     0.036 A 
HETATM    8  C   UNL     1      43.424 -16.436   3.007  1.00  0.00     0.056 A 
HETATM    9  N   UNL     1      43.307 -15.122   2.543  1.00  0.00    -0.324 N 
HETATM   10  C   UNL     1      43.129 -14.055   3.388  1.00  0.00     0.245 C 
HETATM   11  O   UNL     1      42.896 -12.939   2.919  1.00  0.00    -0.271 OA
HETATM   12  C   UNL     1      43.316 -18.037   4.804  1.00  0.00     0.026 A 
HETATM   13  C   UNL     1      43.549 -19.070   3.892  1.00  0.00     0.002 A 
HETATM   14  C   UNL     1      43.720 -18.784   2.537  1.00  0.00     0.002 A 
HETATM   15  C   UNL     1      43.646 -17.465   2.090  1.00  0.00     0.031 A 
HETATM   16  C   UNL     1      44.893 -14.110   5.152  1.00  0.00     0.055 C 
HETATM   17  C   UNL     1      45.244 -14.113   6.633  1.00  0.00     0.128 C 
HETATM   18  O   UNL     1      46.243 -12.338   8.479  1.00  0.00    -0.266 OA
HETATM   19  H   UNL     1      43.208 -15.947   6.249  1.00  0.00     0.129 HD
HETATM   20  H   UNL     1      43.245 -14.930   1.554  1.00  0.00     0.169 HD
ENDROOT
BRANCH   1  21
HETATM   21  C   UNL     1      44.215 -11.924   9.504  1.00  0.00     0.119 A 
HETATM   22  N   UNL     1      43.914 -12.631  10.638  1.00  0.00    -0.273 N 
HETATM   23  N   UNL     1      43.184 -11.948  11.536  1.00  0.00    -0.179 NA
HETATM   24  H   UNL     1      44.203 -13.580  10.858  1.00  0.00     0.189 HD
HETATM   25  C   UNL     1      42.938 -10.784  10.928  1.00  0.00     0.057 A 
HETATM   26  C   UNL     1      43.517 -10.740   9.640  1.00  0.00     0.065 A 
BRANCH  25  27
HETATM   27  C   UNL     1      42.144  -9.714  11.606  1.00  0.00     0.065 C 
BRANCH  27  28
HETATM   28  C   UNL     1      43.018  -8.764  12.448  1.00  0.00    -0.017 C 
HETATM   29  C   UNL     1      43.174  -9.262  13.888  1.00  0.00     0.010 C 
HETATM   30  C   UNL     1      42.418  -7.358  12.447  1.00  0.00     0.010 C 
ENDBRANCH  27  28
ENDBRANCH  25  27
ENDBRANCH   1  21
TORSDOF 3
ENDMDL
MODEL 5
REMARK VINA RESULT:      -7.9      2.640      8.545
REMARK  3 active torsions:
REMARK  status: ('A' for Active; 'I' for Inactive)
REMARK    1  A    between atoms: C_2  and  C_3 
REMARK    2  A    between atoms: C_3  and  C_4 
REMARK    3  A    between atoms: C_8  and  C_9 
REMARK       I    between atoms: C_9  and  N_10 
ROOT
HETATM    1  C   UNL     1      43.207 -14.565   4.479  1.00  0.00     0.271 C 
HETATM    2  N   UNL     1      42.291 -14.667   3.423  1.00  0.00    -0.347 N 
HETATM    3  C   UNL     1      41.271 -15.706   3.294  1.00  0.00     0.128 C 
HETATM    4  C   UNL     1      39.968 -15.182   2.706  1.00  0.00     0.055 C 
HETATM    5  C   UNL     1      40.174 -14.380   1.413  1.00  0.00     0.100 C 
HETATM    6  N   UNL     1      40.622 -15.305   0.337  1.00  0.00    -0.273 NA
HETATM    7  C   UNL     1      40.463 -14.827  -0.975  1.00  0.00     0.036 A 
HETATM    8  C   UNL     1      39.470 -13.884  -1.296  1.00  0.00     0.056 A 
HETATM    9  N   UNL     1      38.661 -13.359  -0.283  1.00  0.00    -0.324 N 
HETATM   10  C   UNL     1      38.838 -13.674   1.041  1.00  0.00     0.245 C 
HETATM   11  O   UNL     1      38.014 -13.292   1.874  1.00  0.00    -0.271 OA
HETATM   12  C   UNL     1      41.195 -15.404  -2.017  1.00  0.00     0.026 A 
HETATM   13  C   UNL     1      40.993 -14.998  -3.339  1.00  0.00     0.002 A 
HETATM   14  C   UNL     1      40.028 -14.036  -3.638  1.00  0.00     0.002 A 
HETATM   15  C   UNL     1      39.256 -13.485  -2.616  1.00  0.00     0.031 A 
HETATM   16  C   UNL     1      41.223 -13.280   1.659  1.00  0.00     0.055 C 
HETATM   17  C   UNL     1      42.515 -13.825   2.252  1.00  0.00     0.128 C 
HETATM   18  O   UNL     1      43.929 -13.576   4.596  1.00  0.00    -0.266 OA
HETATM   19  H   UNL     1      41.539 -15.716   0.483  1.00  0.00     0.129 HD
HETATM   20  H   UNL     1      37.847 -12.807  -0.511  1.00  0.00     0.169 HD
ENDROOT
BRANCH   1  21
HETATM   21  C   UNL     1      43.294 -15.625   5.453  1.00  0.00     0.119 A 
HETATM   22  N   UNL     1      42.575 -15.583   6.618  1.00  0.00    -0.273 N 
HETATM   23  N   UNL     1      42.735 -16.662   7.404  1.00  0.00    -0.179 NA
HETATM   24  H   UNL     1      41.939 -14.849   6.914  1.00  0.00     0.189 HD
HETATM   25  C   UNL     1      43.651 -17.392   6.760  1.00  0.00     0.057 A 
HETATM   26  C   UNL     1      44.067 -16.764   5.565  1.00  0.00     0.065 A 
BRANCH  25  27
HETATM   27  C   UNL     1      44.115 -18.702   7.309  1.00  0.00     0.065 C 
BRANCH  27  28
HETATM   28  C   UNL     1      43.708 -19.898   6.425  1.00  0.00    -0.017 C 
HETATM   29  C   UNL     1      43.524 -21.176   7.248  1.00  0.00     0.010 C 
HETATM   30  C   UNL     1      44.756 -20.127   5.336  1.00  0.00     0.010 C 
ENDBRANCH  27  28
ENDBRANCH  25  27
ENDBRANCH   1  21
TORSDOF 3
ENDMDL
MODEL 6
REMARK VINA RESULT:      -7.6      6.274      8.435
REMARK  3 active torsions:
REMARK  status: ('A' for Active; 'I' for Inactive)
REMARK    1  A    between atoms: C_2  and  C_3 
REMARK    2  A    between atoms: C_3  and  C_4 
REMARK    3  A    between atoms: C_8  and  C_9 
REMARK       I    between atoms: C_9  and  N_10 
ROOT
HETATM    1  C   UNL     1      44.902 -12.455   8.450  1.00  0.00     0.271 C 
HETATM    2  N   UNL     1      44.321 -13.184   7.403  1.00  0.00    -0.347 N 
HETATM    3  C   UNL     1      42.888 -13.251   7.121  1.00  0.00     0.128 C 
HETATM    4  C   UNL     1      42.583 -13.284   5.629  1.00  0.00     0.055 C 
HETATM    5  C   UNL     1      43.394 -14.346   4.875  1.00  0.00     0.100 C 
HETATM    6  N   UNL     1      42.926 -15.696   5.291  1.00  0.00    -0.273 NA
HETATM    7  C   UNL     1      43.263 -16.747   4.420  1.00  0.00     0.036 A 
HETATM    8  C   UNL     1      43.472 -16.523   3.048  1.00  0.00     0.056 A 
HETATM    9  N   UNL     1      43.406 -15.221   2.541  1.00  0.00    -0.324 N 
HETATM   10  C   UNL     1      43.212 -14.125   3.345  1.00  0.00     0.245 C 
HETATM   11  O   UNL     1      43.027 -13.019   2.834  1.00  0.00    -0.271 OA
HETATM   12  C   UNL     1      43.243 -18.065   4.884  1.00  0.00     0.026 A 
HETATM   13  C   UNL     1      43.496 -19.130   4.014  1.00  0.00     0.002 A 
HETATM   14  C   UNL     1      43.736 -18.889   2.661  1.00  0.00     0.002 A 
HETATM   15  C   UNL     1      43.712 -17.583   2.173  1.00  0.00     0.031 A 
HETATM   16  C   UNL     1      44.890 -14.165   5.192  1.00  0.00     0.055 C 
HETATM   17  C   UNL     1      45.171 -14.130   6.687  1.00  0.00     0.128 C 
HETATM   18  O   UNL     1      46.123 -12.322   8.526  1.00  0.00    -0.266 OA
HETATM   19  H   UNL     1      43.115 -15.931   6.261  1.00  0.00     0.129 HD
HETATM   20  H   UNL     1      43.395 -15.058   1.545  1.00  0.00     0.169 HD
ENDROOT
BRANCH   1  21
HETATM   21  C   UNL     1      44.058 -11.835   9.442  1.00  0.00     0.119 A 
HETATM   22  N   UNL     1      43.806 -12.442  10.643  1.00  0.00    -0.273 N 
HETATM   23  N   UNL     1      43.034 -11.721  11.474  1.00  0.00    -0.179 NA
HETATM   24  H   UNL     1      44.159 -13.342  10.956  1.00  0.00     0.189 HD
HETATM   25  C   UNL     1      42.710 -10.643  10.753  1.00  0.00     0.057 A 
HETATM   26  C   UNL     1      43.283 -10.691   9.462  1.00  0.00     0.065 A 
BRANCH  25  27
HETATM   27  C   UNL     1      41.847  -9.565  11.326  1.00  0.00     0.065 C 
BRANCH  27  28
HETATM   28  C   UNL     1      40.376  -9.997  11.480  1.00  0.00    -0.017 C 
HETATM   29  C   UNL     1      39.719 -10.275  10.125  1.00  0.00     0.010 C 
HETATM   30  C   UNL     1      39.588  -8.920  12.227  1.00  0.00     0.010 C 
ENDBRANCH  27  28
ENDBRANCH  25  27
ENDBRANCH   1  21
TORSDOF 3
ENDMDL
MODEL 7
REMARK VINA RESULT:      -7.5      5.908      7.818
REMARK  3 active torsions:
REMARK  status: ('A' for Active; 'I' for Inactive)
REMARK    1  A    between atoms: C_2  and  C_3 
REMARK    2  A    between atoms: C_3  and  C_4 
REMARK    3  A    between atoms: C_8  and  C_9 
REMARK       I    between atoms: C_9  and  N_10 
ROOT
HETATM    1  C   UNL     1      41.290 -11.173   5.984  1.00  0.00     0.271 C 
HETATM    2  N   UNL     1      41.183 -12.455   5.428  1.00  0.00    -0.347 N 
HETATM    3  C   UNL     1      40.311 -13.516   5.928  1.00  0.00     0.128 C 
HETATM    4  C   UNL     1      39.706 -14.356   4.811  1.00  0.00     0.055 C 
HETATM    5  C   UNL     1      40.752 -14.861   3.808  1.00  0.00     0.100 C 
HETATM    6  N   UNL     1      41.620 -15.864   4.480  1.00  0.00    -0.273 NA
HETATM    7  C   UNL     1      42.345 -16.708   3.621  1.00  0.00     0.036 A 
HETATM    8  C   UNL     1      41.883 -17.008   2.327  1.00  0.00     0.056 A 
HETATM    9  N   UNL     1      40.711 -16.408   1.854  1.00  0.00    -0.324 N 
HETATM   10  C   UNL     1      40.016 -15.473   2.580  1.00  0.00     0.245 C 
HETATM   11  O   UNL     1      38.920 -15.079   2.176  1.00  0.00    -0.271 OA
HETATM   12  C   UNL     1      43.466 -17.391   4.102  1.00  0.00     0.026 A 
HETATM   13  C   UNL     1      44.152 -18.297   3.287  1.00  0.00     0.002 A 
HETATM   14  C   UNL     1      43.702 -18.556   1.993  1.00  0.00     0.002 A 
HETATM   15  C   UNL     1      42.557 -17.920   1.514  1.00  0.00     0.031 A 
HETATM   16  C   UNL     1      41.585 -13.671   3.299  1.00  0.00     0.055 C 
HETATM   17  C   UNL     1      42.176 -12.843   4.431  1.00  0.00     0.128 C 
HETATM   18  O   UNL     1      41.927 -10.288   5.413  1.00  0.00    -0.266 OA
HETATM   19  H   UNL     1      42.201 -15.493   5.226  1.00  0.00     0.129 HD
HETATM   20  H   UNL     1      40.280 -16.727   0.998  1.00  0.00     0.169 HD
ENDROOT
BRANCH   1  21
HETATM   21  C   UNL     1      40.630 -10.878   7.232  1.00  0.00     0.119 A 
HETATM   22  N   UNL     1      39.290 -10.601   7.282  1.00  0.00    -0.273 N 
HETATM   23  N   UNL     1      38.817 -10.386   8.521  1.00  0.00    -0.179 NA
HETATM   24  H   UNL     1      38.646 -10.571   6.497  1.00  0.00     0.189 HD
HETATM   25  C   UNL     1      39.907 -10.448   9.293  1.00  0.00     0.057 A 
HETATM   26  C   UNL     1      41.068 -10.703   8.530  1.00  0.00     0.065 A 
BRANCH  25  27
HETATM   27  C   UNL     1      39.812 -10.264  10.774  1.00  0.00     0.065 C 
BRANCH  27  28
HETATM   28  C   UNL     1      40.893 -11.049  11.543  1.00  0.00    -0.017 C 
HETATM   29  C   UNL     1      40.298 -11.839  12.712  1.00  0.00     0.010 C 
HETATM   30  C   UNL     1      41.970 -10.093  12.058  1.00  0.00     0.010 C 
ENDBRANCH  27  28
ENDBRANCH  25  27
ENDBRANCH   1  21
TORSDOF 3
ENDMDL
MODEL 8
REMARK VINA RESULT:      -7.5      2.862      4.029
REMARK  3 active torsions:
REMARK  status: ('A' for Active; 'I' for Inactive)
REMARK    1  A    between atoms: C_2  and  C_3 
REMARK    2  A    between atoms: C_3  and  C_4 
REMARK    3  A    between atoms: C_8  and  C_9 
REMARK       I    between atoms: C_9  and  N_10 
ROOT
HETATM    1  C   UNL     1      41.308 -13.612   1.230  1.00  0.00     0.271 C 
HETATM    2  N   UNL     1      41.489 -14.727   2.060  1.00  0.00    -0.347 N 
HETATM    3  C   UNL     1      40.461 -15.723   2.363  1.00  0.00     0.128 C 
HETATM    4  C   UNL     1      41.023 -17.135   2.467  1.00  0.00     0.055 C 
HETATM    5  C   UNL     1      42.241 -17.228   3.395  1.00  0.00     0.100 C 
HETATM    6  N   UNL     1      41.799 -16.992   4.797  1.00  0.00    -0.273 NA
HETATM    7  C   UNL     1      42.686 -17.437   5.792  1.00  0.00     0.036 A 
HETATM    8  C   UNL     1      43.576 -18.501   5.559  1.00  0.00     0.056 A 
HETATM    9  N   UNL     1      43.630 -19.092   4.292  1.00  0.00    -0.324 N 
HETATM   10  C   UNL     1      42.893 -18.631   3.230  1.00  0.00     0.245 C 
HETATM   11  O   UNL     1      42.875 -19.271   2.177  1.00  0.00    -0.271 OA
HETATM   12  C   UNL     1      42.586 -16.927   7.090  1.00  0.00     0.026 A 
HETATM   13  C   UNL     1      43.404 -17.414   8.113  1.00  0.00     0.002 A 
HETATM   14  C   UNL     1      44.307 -18.446   7.857  1.00  0.00     0.002 A 
HETATM   15  C   UNL     1      44.386 -19.000   6.579  1.00  0.00     0.031 A 
HETATM   16  C   UNL     1      43.287 -16.181   2.970  1.00  0.00     0.055 C 
HETATM   17  C   UNL     1      42.703 -14.779   2.867  1.00  0.00     0.128 C 
HETATM   18  O   UNL     1      42.263 -12.909   0.901  1.00  0.00    -0.266 OA
HETATM   19  H   UNL     1      41.459 -16.054   4.984  1.00  0.00     0.129 HD
HETATM   20  H   UNL     1      44.141 -19.951   4.149  1.00  0.00     0.169 HD
ENDROOT
BRANCH   1  21
HETATM   21  C   UNL     1      39.990 -13.293   0.740  1.00  0.00     0.119 A 
HETATM   22  N   UNL     1      39.571 -13.704  -0.497  1.00  0.00    -0.273 N 
HETATM   23  N   UNL     1      38.305 -13.359  -0.792  1.00  0.00    -0.179 NA
HETATM   24  H   UNL     1      40.104 -14.245  -1.171  1.00  0.00     0.189 HD
HETATM   25  C   UNL     1      37.919 -12.632   0.260  1.00  0.00     0.057 A 
HETATM   26  C   UNL     1      38.950 -12.520   1.219  1.00  0.00     0.065 A 
BRANCH  25  27
HETATM   27  C   UNL     1      36.543 -12.052   0.331  1.00  0.00     0.065 C 
BRANCH  27  28
HETATM   28  C   UNL     1      36.240 -11.089  -0.833  1.00  0.00    -0.017 C 
HETATM   29  C   UNL     1      37.170  -9.873  -0.821  1.00  0.00     0.010 C 
HETATM   30  C   UNL     1      34.783 -10.629  -0.768  1.00  0.00     0.010 C 
ENDBRANCH  27  28
ENDBRANCH  25  27
ENDBRANCH   1  21
TORSDOF 3
ENDMDL
MODEL 9
REMARK VINA RESULT:      -7.4      2.846      9.641
REMARK  3 active torsions:
REMARK  status: ('A' for Active; 'I' for Inactive)
REMARK    1  A    between atoms: C_2  and  C_3 
REMARK    2  A    between atoms: C_3  and  C_4 
REMARK    3  A    between atoms: C_8  and  C_9 
REMARK       I    between atoms: C_9  and  N_10 
ROOT
HETATM    1  C   UNL     1      40.399 -15.516   1.519  1.00  0.00     0.271 C 
HETATM    2  N   UNL     1      40.172 -14.885   0.288  1.00  0.00    -0.347 N 
HETATM    3  C   UNL     1      41.035 -15.001  -0.886  1.00  0.00     0.128 C 
HETATM    4  C   UNL     1      40.252 -15.038  -2.192  1.00  0.00     0.055 C 
HETATM    5  C   UNL     1      39.229 -13.900  -2.308  1.00  0.00     0.100 C 
HETATM    6  N   UNL     1      39.955 -12.609  -2.448  1.00  0.00    -0.273 NA
HETATM    7  C   UNL     1      39.199 -11.544  -2.967  1.00  0.00     0.036 A 
HETATM    8  C   UNL     1      38.101 -11.770  -3.816  1.00  0.00     0.056 A 
HETATM    9  N   UNL     1      37.708 -13.081  -4.105  1.00  0.00    -0.324 N 
HETATM   10  C   UNL     1      38.310 -14.175  -3.535  1.00  0.00     0.245 C 
HETATM   11  O   UNL     1      38.016 -15.306  -3.926  1.00  0.00    -0.271 OA
HETATM   12  C   UNL     1      39.628 -10.228  -2.770  1.00  0.00     0.026 A 
HETATM   13  C   UNL     1      38.935  -9.159  -3.346  1.00  0.00     0.002 A 
HETATM   14  C   UNL     1      37.826  -9.398  -4.157  1.00  0.00     0.002 A 
HETATM   15  C   UNL     1      37.413 -10.707  -4.403  1.00  0.00     0.031 A 
HETATM   16  C   UNL     1      38.334 -13.890  -1.056  1.00  0.00     0.055 C 
HETATM   17  C   UNL     1      39.137 -13.858   0.237  1.00  0.00     0.128 C 
HETATM   18  O   UNL     1      39.547 -15.496   2.406  1.00  0.00    -0.266 OA
HETATM   19  H   UNL     1      40.491 -12.332  -1.632  1.00  0.00     0.129 HD
HETATM   20  H   UNL     1      37.029 -13.265  -4.830  1.00  0.00     0.169 HD
ENDROOT
BRANCH   1  21
HETATM   21  C   UNL     1      41.641 -16.213   1.745  1.00  0.00     0.119 A 
HETATM   22  N   UNL     1      42.722 -15.582   2.301  1.00  0.00    -0.273 N 
HETATM   23  N   UNL     1      43.791 -16.376   2.482  1.00  0.00    -0.179 NA
HETATM   24  H   UNL     1      42.773 -14.612   2.599  1.00  0.00     0.189 HD
HETATM   25  C   UNL     1      43.415 -17.543   1.952  1.00  0.00     0.057 A 
HETATM   26  C   UNL     1      42.101 -17.478   1.435  1.00  0.00     0.065 A 
BRANCH  25  27
HETATM   27  C   UNL     1      44.334 -18.722   1.955  1.00  0.00     0.065 C 
BRANCH  27  28
HETATM   28  C   UNL     1      43.768 -19.919   2.745  1.00  0.00    -0.017 C 
HETATM   29  C   UNL     1      44.672 -20.303   3.920  1.00  0.00     0.010 C 
HETATM   30  C   UNL     1      43.583 -21.120   1.818  1.00  0.00     0.010 C 
ENDBRANCH  27  28
ENDBRANCH  25  27
ENDBRANCH   1  21
TORSDOF 3
ENDMDL
MODEL 10
REMARK VINA RESULT:      -7.3      2.804      8.975
REMARK  3 active torsions:
REMARK  status: ('A' for Active; 'I' for Inactive)
REMARK    1  A    between atoms: C_2  and  C_3 
REMARK    2  A    between atoms: C_3  and  C_4 
REMARK    3  A    between atoms: C_8  and  C_9 
REMARK       I    between atoms: C_9  and  N_10 
ROOT
HETATM    1  C   UNL     1      41.331 -17.140   1.949  1.00  0.00     0.271 C 
HETATM    2  N   UNL     1      41.285 -15.746   2.089  1.00  0.00    -0.347 N 
HETATM    3  C   UNL     1      42.196 -14.955   2.915  1.00  0.00     0.128 C 
HETATM    4  C   UNL     1      42.551 -13.615   2.283  1.00  0.00     0.055 C 
HETATM    5  C   UNL     1      41.319 -12.826   1.822  1.00  0.00     0.100 C 
HETATM    6  N   UNL     1      40.554 -12.382   3.018  1.00  0.00    -0.273 NA
HETATM    7  C   UNL     1      39.652 -11.326   2.801  1.00  0.00     0.036 A 
HETATM    8  C   UNL     1      39.854 -10.390   1.771  1.00  0.00     0.056 A 
HETATM    9  N   UNL     1      40.938 -10.541   0.902  1.00  0.00    -0.324 N 
HETATM   10  C   UNL     1      41.790 -11.615   0.964  1.00  0.00     0.245 C 
HETATM   11  O   UNL     1      42.805 -11.629   0.265  1.00  0.00    -0.271 OA
HETATM   12  C   UNL     1      38.616 -11.101   3.712  1.00  0.00     0.026 A 
HETATM   13  C   UNL     1      37.757 -10.009   3.558  1.00  0.00     0.002 A 
HETATM   14  C   UNL     1      37.949  -9.108   2.510  1.00  0.00     0.002 A 
HETATM   15  C   UNL     1      39.007  -9.291   1.621  1.00  0.00     0.031 A 
HETATM   16  C   UNL     1      40.450 -13.719   0.919  1.00  0.00     0.055 C 
HETATM   17  C   UNL     1      40.111 -15.054   1.568  1.00  0.00     0.128 C 
HETATM   18  O   UNL     1      40.632 -17.715   1.116  1.00  0.00    -0.266 OA
HETATM   19  H   UNL     1      40.137 -13.133   3.559  1.00  0.00     0.129 HD
HETATM   20  H   UNL     1      41.190  -9.801   0.262  1.00  0.00     0.169 HD
ENDROOT
BRANCH   1  21
HETATM   21  C   UNL     1      42.222 -17.911   2.780  1.00  0.00     0.119 A 
HETATM   22  N   UNL     1      42.087 -17.932   4.143  1.00  0.00    -0.273 N 
HETATM   23  N   UNL     1      42.969 -18.727   4.773  1.00  0.00    -0.179 NA
HETATM   24  H   UNL     1      41.391 -17.437   4.693  1.00  0.00     0.189 HD
HETATM   25  C   UNL     1      43.753 -19.176   3.787  1.00  0.00     0.057 A 
HETATM   26  C   UNL     1      43.358 -18.657   2.534  1.00  0.00     0.065 A 
BRANCH  25  27
HETATM   27  C   UNL     1      44.881 -20.116   4.069  1.00  0.00     0.065 C 
BRANCH  27  28
HETATM   28  C   UNL     1      44.433 -21.589   4.120  1.00  0.00    -0.017 C 
HETATM   29  C   UNL     1      45.255 -22.399   5.126  1.00  0.00     0.010 C 
HETATM   30  C   UNL     1      44.544 -22.220   2.731  1.00  0.00     0.010 C 
ENDBRANCH  27  28
ENDBRANCH  25  27
ENDBRANCH   1  21
TORSDOF 3
ENDMDL
