MODEL 1
REMARK VINA RESULT:      -7.3      0.000      0.000
REMARK  3 active torsions:
REMARK  status: ('A' for Active; 'I' for Inactive)
REMARK       I    between atoms: C_2  and  N_3 
REMARK    1  A    between atoms: N_3  and  C_4 
REMARK    2  A    between atoms: C_6  and  N_7 
REMARK       I    between atoms: N_7  and  C_8 
REMARK    3  A    between atoms: C_8  and  C_9 
ROOT
HETATM    1  C   UNL     1      41.031 -15.208  -0.032  1.00  0.00     0.036 A 
HETATM    2  C   UNL     1      41.752 -16.362   0.299  1.00  0.00     0.059 A 
HETATM    3  C   UNL     1      41.453 -17.081   1.465  1.00  0.00     0.037 A 
HETATM    4  C   UNL     1      40.424 -16.633   2.301  1.00  0.00     0.029 A 
HETATM    5  C   UNL     1      39.715 -15.476   1.991  1.00  0.00     0.004 A 
HETATM    6  C   UNL     1      40.019 -14.766   0.830  1.00  0.00     0.029 A 
ENDROOT
BRANCH   3   7
HETATM    7  N   UNL     1      42.115 -18.261   1.853  1.00  0.00    -0.322 N 
HETATM    8  C   UNL     1      43.234 -18.396   2.651  1.00  0.00     0.274 C 
HETATM    9  O   UNL     1      43.831 -17.515   3.254  1.00  0.00    -0.266 OA
HETATM   10  H   UNL     1      41.742 -19.145   1.515  1.00  0.00     0.169 HD
BRANCH   8  11
HETATM   11  C   UNL     1      43.704 -19.816   2.759  1.00  0.00     0.126 A 
HETATM   12  N   UNL     1      43.604 -20.570   1.624  1.00  0.00    -0.255 NA
HETATM   13  C   UNL     1      44.049 -21.842   1.703  1.00  0.00     0.119 A 
HETATM   14  C   UNL     1      44.580 -22.398   2.853  1.00  0.00     0.043 A 
HETATM   15  C   UNL     1      44.656 -21.599   3.987  1.00  0.00     0.037 A 
HETATM   16 CL   UNL     1      45.309 -22.249   5.441  1.00  0.00    -0.084 Cl
HETATM   17  C   UNL     1      44.217 -20.285   3.958  1.00  0.00     0.061 A 
ENDBRANCH   8  11
ENDBRANCH   3   7
BRANCH   1  18
HETATM   18  N   UNL     1      41.250 -14.439  -1.196  1.00  0.00    -0.327 N 
HETATM   19  C   UNL     1      41.038 -14.813  -2.510  1.00  0.00     0.218 C 
HETATM   20  C   UNL     1      41.398 -13.721  -3.488  1.00  0.00     0.117 C 
HETATM   21  O   UNL     1      40.573 -15.871  -2.914  1.00  0.00    -0.274 OA
HETATM   22  H   UNL     1      41.555 -13.488  -1.041  1.00  0.00     0.169 HD
ENDBRANCH   1  18
TORSDOF 3
ENDMDL
MODEL 2
REMARK VINA RESULT:      -7.3      1.467      1.787
REMARK  3 active torsions:
REMARK  status: ('A' for Active; 'I' for Inactive)
REMARK       I    between atoms: C_2  and  N_3 
REMARK    1  A    between atoms: N_3  and  C_4 
REMARK    2  A    between atoms: C_6  and  N_7 
REMARK       I    between atoms: N_7  and  C_8 
REMARK    3  A    between atoms: C_8  and  C_9 
ROOT
HETATM    1  C   UNL     1      40.697 -14.687  -0.090  1.00  0.00     0.036 A 
HETATM    2  C   UNL     1      41.555 -15.660   0.437  1.00  0.00     0.059 A 
HETATM    3  C   UNL     1      41.220 -16.346   1.613  1.00  0.00     0.037 A 
HETATM    4  C   UNL     1      40.016 -16.048   2.260  1.00  0.00     0.029 A 
HETATM    5  C   UNL     1      39.166 -15.068   1.755  1.00  0.00     0.004 A 
HETATM    6  C   UNL     1      39.507 -14.389   0.587  1.00  0.00     0.029 A 
ENDROOT
BRANCH   3   7
HETATM    7  N   UNL     1      42.016 -17.352   2.190  1.00  0.00    -0.322 N 
HETATM    8  C   UNL     1      43.011 -17.222   3.141  1.00  0.00     0.274 C 
HETATM    9  O   UNL     1      43.344 -16.207   3.737  1.00  0.00    -0.266 OA
HETATM   10  H   UNL     1      41.862 -18.310   1.885  1.00  0.00     0.169 HD
BRANCH   8  11
HETATM   11  C   UNL     1      43.705 -18.518   3.437  1.00  0.00     0.126 A 
HETATM   12  N   UNL     1      44.277 -18.623   4.673  1.00  0.00    -0.255 NA
HETATM   13  C   UNL     1      44.883 -19.796   4.960  1.00  0.00     0.119 A 
HETATM   14  C   UNL     1      44.951 -20.859   4.078  1.00  0.00     0.043 A 
HETATM   15  C   UNL     1      44.362 -20.706   2.828  1.00  0.00     0.037 A 
HETATM   16 CL   UNL     1      44.424 -22.002   1.697  1.00  0.00    -0.084 Cl
HETATM   17  C   UNL     1      43.725 -19.524   2.486  1.00  0.00     0.061 A 
ENDBRANCH   8  11
ENDBRANCH   3   7
BRANCH   1  18
HETATM   18  N   UNL     1      40.945 -13.967  -1.279  1.00  0.00    -0.327 N 
HETATM   19  C   UNL     1      41.032 -14.463  -2.567  1.00  0.00     0.218 C 
HETATM   20  C   UNL     1      41.320 -13.385  -3.584  1.00  0.00     0.117 C 
HETATM   21  O   UNL     1      40.863 -15.620  -2.928  1.00  0.00    -0.274 OA
HETATM   22  H   UNL     1      41.021 -12.963  -1.176  1.00  0.00     0.169 HD
ENDBRANCH   1  18
TORSDOF 3
ENDMDL
MODEL 3
REMARK VINA RESULT:      -7.1      6.930      8.634
REMARK  3 active torsions:
REMARK  status: ('A' for Active; 'I' for Inactive)
REMARK       I    between atoms: C_2  and  N_3 
REMARK    1  A    between atoms: N_3  and  C_4 
REMARK    2  A    between atoms: C_6  and  N_7 
REMARK       I    between atoms: N_7  and  C_8 
REMARK    3  A    between atoms: C_8  and  C_9 
ROOT
HETATM    1  C   UNL     1      43.102 -17.055   4.664  1.00  0.00     0.036 A 
HETATM    2  C   UNL     1      43.083 -15.909   5.469  1.00  0.00     0.059 A 
HETATM    3  C   UNL     1      43.922 -15.806   6.587  1.00  0.00     0.037 A 
HETATM    4  C   UNL     1      44.783 -16.865   6.896  1.00  0.00     0.029 A 
HETATM    5  C   UNL     1      44.796 -18.017   6.114  1.00  0.00     0.004 A 
HETATM    6  C   UNL     1      43.957 -18.111   5.005  1.00  0.00     0.029 A 
ENDROOT
BRANCH   3   7
HETATM    7  N   UNL     1      43.978 -14.680   7.429  1.00  0.00    -0.322 N 
HETATM    8  C   UNL     1      44.895 -13.646   7.422  1.00  0.00     0.274 C 
HETATM    9  O   UNL     1      45.802 -13.459   6.623  1.00  0.00    -0.266 OA
HETATM   10  H   UNL     1      43.263 -14.590   8.146  1.00  0.00     0.169 HD
BRANCH   8  11
HETATM   11  C   UNL     1      44.682 -12.672   8.542  1.00  0.00     0.126 A 
HETATM   12  N   UNL     1      45.599 -12.710   9.554  1.00  0.00    -0.255 NA
HETATM   13  C   UNL     1      45.431 -11.819  10.555  1.00  0.00     0.119 A 
HETATM   14  C   UNL     1      44.397 -10.902  10.598  1.00  0.00     0.043 A 
HETATM   15  C   UNL     1      43.482 -10.902   9.552  1.00  0.00     0.037 A 
HETATM   16 CL   UNL     1      42.177  -9.779   9.565  1.00  0.00    -0.084 Cl
HETATM   17  C   UNL     1      43.611 -11.794   8.499  1.00  0.00     0.061 A 
ENDBRANCH   8  11
ENDBRANCH   3   7
BRANCH   1  18
HETATM   18  N   UNL     1      42.309 -17.230   3.510  1.00  0.00    -0.327 N 
HETATM   19  C   UNL     1      42.671 -17.012   2.193  1.00  0.00     0.218 C 
HETATM   20  C   UNL     1      41.545 -17.301   1.229  1.00  0.00     0.117 C 
HETATM   21  O   UNL     1      43.767 -16.669   1.773  1.00  0.00    -0.274 OA
HETATM   22  H   UNL     1      41.382 -17.603   3.668  1.00  0.00     0.169 HD
ENDBRANCH   1  18
TORSDOF 3
ENDMDL
MODEL 4
REMARK VINA RESULT:      -7.0      4.103      5.380
REMARK  3 active torsions:
REMARK  status: ('A' for Active; 'I' for Inactive)
REMARK       I    between atoms: C_2  and  N_3 
REMARK    1  A    between atoms: N_3  and  C_4 
REMARK    2  A    between atoms: C_6  and  N_7 
REMARK       I    between atoms: N_7  and  C_8 
REMARK    3  A    between atoms: C_8  and  C_9 
ROOT
HETATM    1  C   UNL     1      41.631 -13.222   5.346  1.00  0.00     0.036 A 
HETATM    2  C   UNL     1      42.078 -14.549   5.291  1.00  0.00     0.059 A 
HETATM    3  C   UNL     1      42.700 -15.046   4.138  1.00  0.00     0.037 A 
HETATM    4  C   UNL     1      42.870 -14.203   3.034  1.00  0.00     0.029 A 
HETATM    5  C   UNL     1      42.411 -12.889   3.070  1.00  0.00     0.004 A 
HETATM    6  C   UNL     1      41.792 -12.403   4.221  1.00  0.00     0.029 A 
ENDROOT
BRANCH   3   7
HETATM    7  N   UNL     1      43.197 -16.356   4.015  1.00  0.00    -0.322 N 
HETATM    8  C   UNL     1      42.577 -17.464   3.468  1.00  0.00     0.274 C 
HETATM    9  O   UNL     1      41.493 -17.507   2.901  1.00  0.00    -0.266 OA
HETATM   10  H   UNL     1      44.133 -16.542   4.368  1.00  0.00     0.169 HD
BRANCH   8  11
HETATM   11  C   UNL     1      43.391 -18.715   3.607  1.00  0.00     0.126 A 
HETATM   12  N   UNL     1      44.016 -18.894   4.808  1.00  0.00    -0.255 NA
HETATM   13  C   UNL     1      44.731 -20.031   4.953  1.00  0.00     0.119 A 
HETATM   14  C   UNL     1      44.856 -20.988   3.963  1.00  0.00     0.043 A 
HETATM   15  C   UNL     1      44.211 -20.763   2.753  1.00  0.00     0.037 A 
HETATM   16 CL   UNL     1      44.341 -21.926   1.492  1.00  0.00    -0.084 Cl
HETATM   17  C   UNL     1      43.461 -19.614   2.555  1.00  0.00     0.061 A 
ENDBRANCH   8  11
ENDBRANCH   3   7
BRANCH   1  18
HETATM   18  N   UNL     1      41.017 -12.635   6.473  1.00  0.00    -0.327 N 
HETATM   19  C   UNL     1      39.685 -12.305   6.635  1.00  0.00     0.218 C 
HETATM   20  C   UNL     1      39.403 -11.681   7.982  1.00  0.00     0.117 C 
HETATM   21  O   UNL     1      38.770 -12.503   5.846  1.00  0.00    -0.274 OA
HETATM   22  H   UNL     1      41.620 -12.482   7.271  1.00  0.00     0.169 HD
ENDBRANCH   1  18
TORSDOF 3
ENDMDL
MODEL 5
REMARK VINA RESULT:      -6.9      3.614      7.970
REMARK  3 active torsions:
REMARK  status: ('A' for Active; 'I' for Inactive)
REMARK       I    between atoms: C_2  and  N_3 
REMARK    1  A    between atoms: N_3  and  C_4 
REMARK    2  A    between atoms: C_6  and  N_7 
REMARK       I    between atoms: N_7  and  C_8 
REMARK    3  A    between atoms: C_8  and  C_9 
ROOT
HETATM    1  C   UNL     1      43.767 -19.035   4.566  1.00  0.00     0.036 A 
HETATM    2  C   UNL     1      43.309 -17.941   3.822  1.00  0.00     0.059 A 
HETATM    3  C   UNL     1      43.348 -17.964   2.421  1.00  0.00     0.037 A 
HETATM    4  C   UNL     1      43.853 -19.094   1.768  1.00  0.00     0.029 A 
HETATM    5  C   UNL     1      44.330 -20.179   2.499  1.00  0.00     0.004 A 
HETATM    6  C   UNL     1      44.289 -20.147   3.892  1.00  0.00     0.029 A 
ENDROOT
BRANCH   3   7
HETATM    7  N   UNL     1      42.884 -16.917   1.604  1.00  0.00    -0.322 N 
HETATM    8  C   UNL     1      41.582 -16.605   1.260  1.00  0.00     0.274 C 
HETATM    9  O   UNL     1      40.557 -17.133   1.669  1.00  0.00    -0.266 OA
HETATM   10  H   UNL     1      43.577 -16.292   1.198  1.00  0.00     0.169 HD
BRANCH   8  11
HETATM   11  C   UNL     1      41.493 -15.470   0.285  1.00  0.00     0.126 A 
HETATM   12  N   UNL     1      41.826 -14.236   0.767  1.00  0.00    -0.255 NA
HETATM   13  C   UNL     1      41.774 -13.210  -0.110  1.00  0.00     0.119 A 
HETATM   14  C   UNL     1      41.404 -13.354  -1.434  1.00  0.00     0.043 A 
HETATM   15  C   UNL     1      41.066 -14.625  -1.883  1.00  0.00     0.037 A 
HETATM   16 CL   UNL     1      40.597 -14.850  -3.523  1.00  0.00    -0.084 Cl
HETATM   17  C   UNL     1      41.106 -15.712  -1.023  1.00  0.00     0.061 A 
ENDBRANCH   8  11
ENDBRANCH   3   7
BRANCH   1  18
HETATM   18  N   UNL     1      43.742 -19.105   5.976  1.00  0.00    -0.327 N 
HETATM   19  C   UNL     1      44.624 -18.523   6.868  1.00  0.00     0.218 C 
HETATM   20  C   UNL     1      44.279 -18.829   8.306  1.00  0.00     0.117 C 
HETATM   21  O   UNL     1      45.571 -17.793   6.605  1.00  0.00    -0.274 OA
HETATM   22  H   UNL     1      42.959 -19.603   6.377  1.00  0.00     0.169 HD
ENDBRANCH   1  18
TORSDOF 3
ENDMDL
MODEL 6
REMARK VINA RESULT:      -6.8      4.682      7.976
REMARK  3 active torsions:
REMARK  status: ('A' for Active; 'I' for Inactive)
REMARK       I    between atoms: C_2  and  N_3 
REMARK    1  A    between atoms: N_3  and  C_4 
REMARK    2  A    between atoms: C_6  and  N_7 
REMARK       I    between atoms: N_7  and  C_8 
REMARK    3  A    between atoms: C_8  and  C_9 
ROOT
HETATM    1  C   UNL     1      44.151 -19.000   4.674  1.00  0.00     0.036 A 
HETATM    2  C   UNL     1      43.200 -17.986   4.501  1.00  0.00     0.059 A 
HETATM    3  C   UNL     1      43.200 -16.858   5.332  1.00  0.00     0.037 A 
HETATM    4  C   UNL     1      44.160 -16.752   6.345  1.00  0.00     0.029 A 
HETATM    5  C   UNL     1      45.096 -17.764   6.539  1.00  0.00     0.004 A 
HETATM    6  C   UNL     1      45.089 -18.884   5.708  1.00  0.00     0.029 A 
ENDROOT
BRANCH   3   7
HETATM    7  N   UNL     1      42.295 -15.787   5.206  1.00  0.00    -0.322 N 
HETATM    8  C   UNL     1      40.996 -15.700   5.668  1.00  0.00     0.274 C 
HETATM    9  O   UNL     1      40.394 -16.512   6.358  1.00  0.00    -0.266 OA
HETATM   10  H   UNL     1      42.612 -14.956   4.712  1.00  0.00     0.169 HD
BRANCH   8  11
HETATM   11  C   UNL     1      40.313 -14.432   5.251  1.00  0.00     0.126 A 
HETATM   12  N   UNL     1      39.995 -13.563   6.255  1.00  0.00    -0.255 NA
HETATM   13  C   UNL     1      39.404 -12.406   5.888  1.00  0.00     0.119 A 
HETATM   14  C   UNL     1      39.111 -12.078   4.577  1.00  0.00     0.043 A 
HETATM   15  C   UNL     1      39.445 -12.993   3.586  1.00  0.00     0.037 A 
HETATM   16 CL   UNL     1      39.098 -12.627   1.941  1.00  0.00    -0.084 Cl
HETATM   17  C   UNL     1      40.057 -14.194   3.910  1.00  0.00     0.061 A 
ENDBRANCH   8  11
ENDBRANCH   3   7
BRANCH   1  18
HETATM   18  N   UNL     1      44.237 -20.156   3.869  1.00  0.00    -0.327 N 
HETATM   19  C   UNL     1      44.010 -20.259   2.509  1.00  0.00     0.218 C 
HETATM   20  C   UNL     1      44.191 -21.668   1.998  1.00  0.00     0.117 C 
HETATM   21  O   UNL     1      43.734 -19.354   1.733  1.00  0.00    -0.274 OA
HETATM   22  H   UNL     1      44.547 -20.996   4.339  1.00  0.00     0.169 HD
ENDBRANCH   1  18
TORSDOF 3
ENDMDL
MODEL 7
REMARK VINA RESULT:      -6.7      4.028      7.914
REMARK  3 active torsions:
REMARK  status: ('A' for Active; 'I' for Inactive)
REMARK       I    between atoms: C_2  and  N_3 
REMARK    1  A    between atoms: N_3  and  C_4 
REMARK    2  A    between atoms: C_6  and  N_7 
REMARK       I    between atoms: N_7  and  C_8 
REMARK    3  A    between atoms: C_8  and  C_9 
ROOT
HETATM    1  C   UNL     1      44.181 -18.817   5.645  1.00  0.00     0.036 A 
HETATM    2  C   UNL     1      43.410 -18.229   4.635  1.00  0.00     0.059 A 
HETATM    3  C   UNL     1      43.173 -16.847   4.630  1.00  0.00     0.037 A 
HETATM    4  C   UNL     1      43.716 -16.056   5.649  1.00  0.00     0.029 A 
HETATM    5  C   UNL     1      44.467 -16.634   6.669  1.00  0.00     0.004 A 
HETATM    6  C   UNL     1      44.696 -18.009   6.667  1.00  0.00     0.029 A 
ENDROOT
BRANCH   3   7
HETATM    7  N   UNL     1      42.431 -16.180   3.639  1.00  0.00    -0.322 N 
HETATM    8  C   UNL     1      41.186 -15.591   3.747  1.00  0.00     0.274 C 
HETATM    9  O   UNL     1      40.509 -15.458   4.758  1.00  0.00    -0.266 OA
HETATM   10  H   UNL     1      42.840 -16.108   2.710  1.00  0.00     0.169 HD
BRANCH   8  11
HETATM   11  C   UNL     1      40.676 -15.061   2.440  1.00  0.00     0.126 A 
HETATM   12  N   UNL     1      41.611 -14.876   1.462  1.00  0.00    -0.255 NA
HETATM   13  C   UNL     1      41.159 -14.424   0.272  1.00  0.00     0.119 A 
HETATM   14  C   UNL     1      39.829 -14.145   0.015  1.00  0.00     0.043 A 
HETATM   15  C   UNL     1      38.912 -14.340   1.040  1.00  0.00     0.037 A 
HETATM   16 CL   UNL     1      37.246 -14.004   0.765  1.00  0.00    -0.084 Cl
HETATM   17  C   UNL     1      39.324 -14.806   2.279  1.00  0.00     0.061 A 
ENDBRANCH   8  11
ENDBRANCH   3   7
BRANCH   1  18
HETATM   18  N   UNL     1      44.487 -20.194   5.714  1.00  0.00    -0.327 N 
HETATM   19  C   UNL     1      44.936 -21.013   4.694  1.00  0.00     0.218 C 
HETATM   20  C   UNL     1      45.146 -22.438   5.147  1.00  0.00     0.117 C 
HETATM   21  O   UNL     1      45.200 -20.688   3.544  1.00  0.00    -0.274 OA
HETATM   22  H   UNL     1      44.410 -20.615   6.630  1.00  0.00     0.169 HD
ENDBRANCH   1  18
TORSDOF 3
ENDMDL
MODEL 8
REMARK VINA RESULT:      -6.7      2.020      2.572
REMARK  3 active torsions:
REMARK  status: ('A' for Active; 'I' for Inactive)
REMARK       I    between atoms: C_2  and  N_3 
REMARK    1  A    between atoms: N_3  and  C_4 
REMARK    2  A    between atoms: C_6  and  N_7 
REMARK       I    between atoms: N_7  and  C_8 
REMARK    3  A    between atoms: C_8  and  C_9 
ROOT
HETATM    1  C   UNL     1      40.314 -14.615  -0.919  1.00  0.00     0.036 A 
HETATM    2  C   UNL     1      40.907 -15.656  -0.193  1.00  0.00     0.059 A 
HETATM    3  C   UNL     1      41.806 -15.380   0.846  1.00  0.00     0.037 A 
HETATM    4  C   UNL     1      42.110 -14.050   1.154  1.00  0.00     0.029 A 
HETATM    5  C   UNL     1      41.541 -13.008   0.426  1.00  0.00     0.004 A 
HETATM    6  C   UNL     1      40.649 -13.291  -0.608  1.00  0.00     0.029 A 
ENDROOT
BRANCH   3   7
HETATM    7  N   UNL     1      42.423 -16.368   1.636  1.00  0.00    -0.322 N 
HETATM    8  C   UNL     1      41.944 -16.978   2.779  1.00  0.00     0.274 C 
HETATM    9  O   UNL     1      40.842 -16.840   3.293  1.00  0.00    -0.266 OA
HETATM   10  H   UNL     1      43.344 -16.694   1.351  1.00  0.00     0.169 HD
BRANCH   8  11
HETATM   11  C   UNL     1      42.937 -17.916   3.398  1.00  0.00     0.126 A 
HETATM   12  N   UNL     1      43.164 -19.082   2.723  1.00  0.00    -0.255 NA
HETATM   13  C   UNL     1      44.076 -19.922   3.258  1.00  0.00     0.119 A 
HETATM   14  C   UNL     1      44.764 -19.660   4.429  1.00  0.00     0.043 A 
HETATM   15  C   UNL     1      44.498 -18.466   5.088  1.00  0.00     0.037 A 
HETATM   16 CL   UNL     1      45.329 -18.100   6.550  1.00  0.00    -0.084 Cl
HETATM   17  C   UNL     1      43.573 -17.568   4.579  1.00  0.00     0.061 A 
ENDBRANCH   8  11
ENDBRANCH   3   7
BRANCH   1  18
HETATM   18  N   UNL     1      39.383 -14.803  -1.963  1.00  0.00    -0.327 N 
HETATM   19  C   UNL     1      39.643 -15.131  -3.281  1.00  0.00     0.218 C 
HETATM   20  C   UNL     1      38.386 -15.237  -4.110  1.00  0.00     0.117 C 
HETATM   21  O   UNL     1      40.733 -15.369  -3.784  1.00  0.00    -0.274 OA
HETATM   22  H   UNL     1      38.409 -14.732  -1.700  1.00  0.00     0.169 HD
ENDBRANCH   1  18
TORSDOF 3
ENDMDL
MODEL 9
REMARK VINA RESULT:      -6.5      4.632      7.802
REMARK  3 active torsions:
REMARK  status: ('A' for Active; 'I' for Inactive)
REMARK       I    between atoms: C_2  and  N_3 
REMARK    1  A    between atoms: N_3  and  C_4 
REMARK    2  A    between atoms: C_6  and  N_7 
REMARK       I    between atoms: N_7  and  C_8 
REMARK    3  A    between atoms: C_8  and  C_9 
ROOT
HETATM    1  C   UNL     1      44.185 -19.153   4.495  1.00  0.00     0.036 A 
HETATM    2  C   UNL     1      43.239 -18.136   4.315  1.00  0.00     0.059 A 
HETATM    3  C   UNL     1      43.216 -17.023   5.166  1.00  0.00     0.037 A 
HETATM    4  C   UNL     1      44.150 -16.936   6.205  1.00  0.00     0.029 A 
HETATM    5  C   UNL     1      45.081 -17.951   6.405  1.00  0.00     0.004 A 
HETATM    6  C   UNL     1      45.096 -19.056   5.554  1.00  0.00     0.029 A 
ENDROOT
BRANCH   3   7
HETATM    7  N   UNL     1      42.315 -15.951   5.035  1.00  0.00    -0.322 N 
HETATM    8  C   UNL     1      42.486 -14.762   4.352  1.00  0.00     0.274 C 
HETATM    9  O   UNL     1      43.433 -14.435   3.649  1.00  0.00    -0.266 OA
HETATM   10  H   UNL     1      41.411 -16.034   5.495  1.00  0.00     0.169 HD
BRANCH   8  11
HETATM   11  C   UNL     1      41.332 -13.820   4.525  1.00  0.00     0.126 A 
HETATM   12  N   UNL     1      40.702 -13.425   3.379  1.00  0.00    -0.255 NA
HETATM   13  C   UNL     1      39.645 -12.597   3.526  1.00  0.00     0.119 A 
HETATM   14  C   UNL     1      39.193 -12.142   4.751  1.00  0.00     0.043 A 
HETATM   15  C   UNL     1      39.867 -12.562   5.891  1.00  0.00     0.037 A 
HETATM   16 CL   UNL     1      39.341 -12.019   7.437  1.00  0.00    -0.084 Cl
HETATM   17  C   UNL     1      40.956 -13.415   5.795  1.00  0.00     0.061 A 
ENDBRANCH   8  11
ENDBRANCH   3   7
BRANCH   1  18
HETATM   18  N   UNL     1      44.293 -20.295   3.671  1.00  0.00    -0.327 N 
HETATM   19  C   UNL     1      43.963 -20.407   2.333  1.00  0.00     0.218 C 
HETATM   20  C   UNL     1      44.209 -21.795   1.791  1.00  0.00     0.117 C 
HETATM   21  O   UNL     1      43.557 -19.521   1.592  1.00  0.00    -0.274 OA
HETATM   22  H   UNL     1      44.704 -21.111   4.104  1.00  0.00     0.169 HD
ENDBRANCH   1  18
TORSDOF 3
ENDMDL
MODEL 10
REMARK VINA RESULT:      -6.4      2.433      2.953
REMARK  3 active torsions:
REMARK  status: ('A' for Active; 'I' for Inactive)
REMARK       I    between atoms: C_2  and  N_3 
REMARK    1  A    between atoms: N_3  and  C_4 
REMARK    2  A    between atoms: C_6  and  N_7 
REMARK       I    between atoms: N_7  and  C_8 
REMARK    3  A    between atoms: C_8  and  C_9 
ROOT
HETATM    1  C   UNL     1      41.234 -13.098  -0.230  1.00  0.00     0.036 A 
HETATM    2  C   UNL     1      41.970 -14.214   0.187  1.00  0.00     0.059 A 
HETATM    3  C   UNL     1      41.596 -14.928   1.334  1.00  0.00     0.037 A 
HETATM    4  C   UNL     1      40.476 -14.514   2.064  1.00  0.00     0.029 A 
HETATM    5  C   UNL     1      39.750 -13.393   1.669  1.00  0.00     0.004 A 
HETATM    6  C   UNL     1      40.130 -12.688   0.528  1.00  0.00     0.029 A 
ENDROOT
BRANCH   3   7
HETATM    7  N   UNL     1      42.267 -16.072   1.802  1.00  0.00    -0.322 N 
HETATM    8  C   UNL     1      41.866 -17.393   1.737  1.00  0.00     0.274 C 
HETATM    9  O   UNL     1      40.875 -17.844   1.180  1.00  0.00    -0.266 OA
HETATM   10  H   UNL     1      43.169 -15.939   2.254  1.00  0.00     0.169 HD
BRANCH   8  11
HETATM   11  C   UNL     1      42.811 -18.324   2.437  1.00  0.00     0.126 A 
HETATM   12  N   UNL     1      43.289 -17.899   3.643  1.00  0.00    -0.255 NA
HETATM   13  C   UNL     1      44.120 -18.741   4.294  1.00  0.00     0.119 A 
HETATM   14  C   UNL     1      44.499 -19.976   3.800  1.00  0.00     0.043 A 
HETATM   15  C   UNL     1      43.995 -20.367   2.565  1.00  0.00     0.037 A 
HETATM   16 CL   UNL     1      44.442 -21.895   1.911  1.00  0.00    -0.084 Cl
HETATM   17  C   UNL     1      43.136 -19.540   1.859  1.00  0.00     0.061 A 
ENDBRANCH   8  11
ENDBRANCH   3   7
BRANCH   1  18
HETATM   18  N   UNL     1      41.526 -12.337  -1.383  1.00  0.00    -0.327 N 
HETATM   19  C   UNL     1      42.554 -11.430  -1.560  1.00  0.00     0.218 C 
HETATM   20  C   UNL     1      42.541 -10.802  -2.933  1.00  0.00     0.117 C 
HETATM   21  O   UNL     1      43.439 -11.146  -0.763  1.00  0.00    -0.274 OA
HETATM   22  H   UNL     1      40.939 -12.516  -2.187  1.00  0.00     0.169 HD
ENDBRANCH   1  18
TORSDOF 3
ENDMDL
