MODEL 1
REMARK VINA RESULT:      -9.3      0.000      0.000
REMARK  4 active torsions:
REMARK  status: ('A' for Active; 'I' for Inactive)
REMARK    1  A    between atoms: C_6  and  C_7 
REMARK       I    between atoms: C_7  and  N_8 
REMARK    2  A    between atoms: N_8  and  N_9 
REMARK    3  A    between atoms: N_9  and  C_10 
REMARK    4  A    between atoms: C_21  and  C_22 
ROOT
HETATM    1  C   UNL     1      43.913 -11.726   9.719  1.00  0.00     0.124 A 
HETATM    2  N   UNL     1      43.152 -11.039   8.848  1.00  0.00    -0.223 NA
HETATM    3  C   UNL     1      42.486  -9.963   9.310  1.00  0.00     0.129 A 
HETATM    4 CL   UNL     1      41.536  -9.153   8.135  1.00  0.00    -0.062 Cl
HETATM    5  C   UNL     1      42.536  -9.509  10.610  1.00  0.00     0.067 A 
HETATM    6  C   UNL     1      43.338 -10.216  11.496  1.00  0.00     0.051 A 
HETATM    7  C   UNL     1      43.448  -9.796  12.860  1.00  0.00     0.099 C 
HETATM    8  N   UNL     1      43.534  -9.452  13.965  1.00  0.00    -0.191 NA
HETATM    9  C   UNL     1      44.042 -11.335  11.048  1.00  0.00     0.068 A 
ENDROOT
BRANCH   1  10
HETATM   10  N   UNL     1      44.635 -12.823   9.206  1.00  0.00    -0.186 NA
HETATM   11  H   UNL     1      45.527 -12.435   8.867  1.00  0.00     0.154 HD
BRANCH  10  12
HETATM   12  N   UNL     1      43.953 -13.504   8.177  1.00  0.00    -0.281 N 
HETATM   13  C   UNL     1      44.702 -14.011   7.134  1.00  0.00     0.271 C 
HETATM   14  O   UNL     1      45.890 -13.732   6.972  1.00  0.00    -0.266 OA
HETATM   15  H   UNL     1      43.033 -13.893   8.397  1.00  0.00     0.184 HD
BRANCH  13  16
HETATM   16  C   UNL     1      43.970 -14.937   6.224  1.00  0.00     0.102 A 
HETATM   17  C   UNL     1      42.939 -14.482   5.253  1.00  0.00     0.261 A 
HETATM   18  N   UNL     1      42.355 -15.453   4.479  1.00  0.00    -0.326 N 
HETATM   19  O   UNL     1      42.619 -13.300   5.147  1.00  0.00    -0.267 OA
HETATM   20  C   UNL     1      42.644 -16.803   4.548  1.00  0.00     0.019 A 
HETATM   21  H   UNL     1      41.657 -15.125   3.822  1.00  0.00     0.169 HD
HETATM   22  C   UNL     1      41.857 -17.663   3.595  1.00  0.00     0.069 C 
HETATM   23  C   UNL     1      43.573 -17.234   5.433  1.00  0.00    -0.003 A 
HETATM   24  C   UNL     1      44.242 -16.253   6.282  1.00  0.00     0.037 A 
BRANCH  23  25
HETATM   25  C   UNL     1      43.911 -18.666   5.539  1.00  0.00    -0.024 A 
HETATM   26  C   UNL     1      44.681 -19.284   4.546  1.00  0.00     0.012 A 
HETATM   27  C   UNL     1      45.003 -20.638   4.647  1.00  0.00     0.001 A 
HETATM   28  C   UNL     1      44.563 -21.379   5.744  1.00  0.00     0.000 A 
HETATM   29  C   UNL     1      43.803 -20.769   6.741  1.00  0.00     0.001 A 
HETATM   30  C   UNL     1      43.479 -19.414   6.642  1.00  0.00     0.012 A 
ENDBRANCH  23  25
ENDBRANCH  13  16
ENDBRANCH  10  12
ENDBRANCH   1  10
TORSDOF 4
ENDMDL
MODEL 2
REMARK VINA RESULT:      -9.1      3.686      5.409
REMARK  4 active torsions:
REMARK  status: ('A' for Active; 'I' for Inactive)
REMARK    1  A    between atoms: C_6  and  C_7 
REMARK       I    between atoms: C_7  and  N_8 
REMARK    2  A    between atoms: N_8  and  N_9 
REMARK    3  A    between atoms: N_9  and  C_10 
REMARK    4  A    between atoms: C_21  and  C_22 
ROOT
HETATM    1  C   UNL     1      42.018 -12.610   5.503  1.00  0.00     0.124 A 
HETATM    2  N   UNL     1      41.112 -11.650   5.763  1.00  0.00    -0.223 NA
HETATM    3  C   UNL     1      40.536 -11.031   4.714  1.00  0.00     0.129 A 
HETATM    4 CL   UNL     1      39.400  -9.818   5.137  1.00  0.00    -0.062 Cl
HETATM    5  C   UNL     1      40.800 -11.318   3.392  1.00  0.00     0.067 A 
HETATM    6  C   UNL     1      41.724 -12.322   3.136  1.00  0.00     0.051 A 
HETATM    7  C   UNL     1      42.041 -12.682   1.788  1.00  0.00     0.099 C 
HETATM    8  N   UNL     1      42.295 -12.970   0.693  1.00  0.00    -0.191 NA
HETATM    9  C   UNL     1      42.338 -12.983   4.201  1.00  0.00     0.068 A 
ENDROOT
BRANCH   1  10
HETATM   10  N   UNL     1      42.578 -13.273   6.613  1.00  0.00    -0.186 NA
HETATM   11  H   UNL     1      43.522 -12.875   6.728  1.00  0.00     0.154 HD
BRANCH  10  12
HETATM   12  N   UNL     1      42.634 -14.673   6.455  1.00  0.00    -0.281 N 
HETATM   13  C   UNL     1      43.852 -15.295   6.643  1.00  0.00     0.271 C 
HETATM   14  O   UNL     1      44.906 -14.671   6.753  1.00  0.00    -0.266 OA
HETATM   15  H   UNL     1      41.759 -15.195   6.554  1.00  0.00     0.184 HD
BRANCH  13  16
HETATM   16  C   UNL     1      43.793 -16.783   6.722  1.00  0.00     0.102 A 
HETATM   17  C   UNL     1      43.645 -17.528   8.001  1.00  0.00     0.261 A 
HETATM   18  N   UNL     1      43.602 -18.896   7.912  1.00  0.00    -0.326 N 
HETATM   19  O   UNL     1      43.570 -16.952   9.085  1.00  0.00    -0.267 OA
HETATM   20  C   UNL     1      43.697 -19.619   6.738  1.00  0.00     0.019 A 
HETATM   21  H   UNL     1      43.499 -19.386   8.794  1.00  0.00     0.169 HD
HETATM   22  C   UNL     1      43.630 -21.113   6.913  1.00  0.00     0.069 C 
HETATM   23  C   UNL     1      43.842 -18.956   5.567  1.00  0.00    -0.003 A 
HETATM   24  C   UNL     1      43.886 -17.497   5.586  1.00  0.00     0.037 A 
BRANCH  23  25
HETATM   25  C   UNL     1      43.948 -19.689   4.291  1.00  0.00    -0.024 A 
HETATM   26  C   UNL     1      44.709 -20.862   4.213  1.00  0.00     0.012 A 
HETATM   27  C   UNL     1      44.807 -21.557   3.006  1.00  0.00     0.001 A 
HETATM   28  C   UNL     1      44.141 -21.086   1.874  1.00  0.00     0.000 A 
HETATM   29  C   UNL     1      43.375 -19.924   1.947  1.00  0.00     0.001 A 
HETATM   30  C   UNL     1      43.274 -19.227   3.153  1.00  0.00     0.012 A 
ENDBRANCH  23  25
ENDBRANCH  13  16
ENDBRANCH  10  12
ENDBRANCH   1  10
TORSDOF 4
ENDMDL
MODEL 3
REMARK VINA RESULT:      -9.0      1.738      2.588
REMARK  4 active torsions:
REMARK  status: ('A' for Active; 'I' for Inactive)
REMARK    1  A    between atoms: C_6  and  C_7 
REMARK       I    between atoms: C_7  and  N_8 
REMARK    2  A    between atoms: N_8  and  N_9 
REMARK    3  A    between atoms: N_9  and  C_10 
REMARK    4  A    between atoms: C_21  and  C_22 
ROOT
HETATM    1  C   UNL     1      43.896 -11.999   8.707  1.00  0.00     0.124 A 
HETATM    2  N   UNL     1      43.057 -11.288   7.931  1.00  0.00    -0.223 NA
HETATM    3  C   UNL     1      42.218 -10.428   8.540  1.00  0.00     0.129 A 
HETATM    4 CL   UNL     1      41.182  -9.570   7.477  1.00  0.00    -0.062 Cl
HETATM    5  C   UNL     1      42.164 -10.215   9.900  1.00  0.00     0.067 A 
HETATM    6  C   UNL     1      43.046 -10.942  10.689  1.00  0.00     0.051 A 
HETATM    7  C   UNL     1      43.055 -10.766  12.109  1.00  0.00     0.099 C 
HETATM    8  N   UNL     1      43.058 -10.620  13.260  1.00  0.00    -0.191 NA
HETATM    9  C   UNL     1      43.929 -11.841  10.089  1.00  0.00     0.068 A 
ENDROOT
BRANCH   1  10
HETATM   10  N   UNL     1      44.794 -12.863   8.048  1.00  0.00    -0.186 NA
HETATM   11  H   UNL     1      44.874 -12.499   7.086  1.00  0.00     0.154 HD
BRANCH  10  12
HETATM   12  N   UNL     1      44.373 -14.208   8.048  1.00  0.00    -0.281 N 
HETATM   13  C   UNL     1      44.062 -14.787   6.834  1.00  0.00     0.271 C 
HETATM   14  O   UNL     1      43.956 -14.136   5.796  1.00  0.00    -0.266 OA
HETATM   15  H   UNL     1      44.638 -14.786   8.850  1.00  0.00     0.184 HD
BRANCH  13  16
HETATM   16  C   UNL     1      43.882 -16.267   6.869  1.00  0.00     0.102 A 
HETATM   17  C   UNL     1      43.655 -17.032   8.125  1.00  0.00     0.261 A 
HETATM   18  N   UNL     1      43.502 -18.389   7.996  1.00  0.00    -0.326 N 
HETATM   19  O   UNL     1      43.611 -16.483   9.224  1.00  0.00    -0.267 OA
HETATM   20  C   UNL     1      43.556 -19.085   6.802  1.00  0.00     0.019 A 
HETATM   21  H   UNL     1      43.346 -18.894   8.861  1.00  0.00     0.169 HD
HETATM   22  C   UNL     1      43.365 -20.572   6.933  1.00  0.00     0.069 C 
HETATM   23  C   UNL     1      43.771 -18.404   5.652  1.00  0.00    -0.003 A 
HETATM   24  C   UNL     1      43.933 -16.954   5.714  1.00  0.00     0.037 A 
BRANCH  23  25
HETATM   25  C   UNL     1      43.837 -19.107   4.357  1.00  0.00    -0.024 A 
HETATM   26  C   UNL     1      42.951 -18.768   3.326  1.00  0.00     0.012 A 
HETATM   27  C   UNL     1      43.014 -19.431   2.100  1.00  0.00     0.001 A 
HETATM   28  C   UNL     1      43.966 -20.430   1.895  1.00  0.00     0.000 A 
HETATM   29  C   UNL     1      44.856 -20.767   2.914  1.00  0.00     0.001 A 
HETATM   30  C   UNL     1      44.796 -20.105   4.142  1.00  0.00     0.012 A 
ENDBRANCH  23  25
ENDBRANCH  13  16
ENDBRANCH  10  12
ENDBRANCH   1  10
TORSDOF 4
ENDMDL
MODEL 4
REMARK VINA RESULT:      -8.9      1.400      2.326
REMARK  4 active torsions:
REMARK  status: ('A' for Active; 'I' for Inactive)
REMARK    1  A    between atoms: C_6  and  C_7 
REMARK       I    between atoms: C_7  and  N_8 
REMARK    2  A    between atoms: N_8  and  N_9 
REMARK    3  A    between atoms: N_9  and  C_10 
REMARK    4  A    between atoms: C_21  and  C_22 
ROOT
HETATM    1  C   UNL     1      43.855 -11.600   9.619  1.00  0.00     0.124 A 
HETATM    2  N   UNL     1      44.060 -11.248  10.901  1.00  0.00    -0.223 NA
HETATM    3  C   UNL     1      43.335 -10.225  11.394  1.00  0.00     0.129 A 
HETATM    4 CL   UNL     1      43.666  -9.840  13.032  1.00  0.00    -0.062 Cl
HETATM    5  C   UNL     1      42.389  -9.519  10.682  1.00  0.00     0.067 A 
HETATM    6  C   UNL     1      42.174  -9.902   9.364  1.00  0.00     0.051 A 
HETATM    7  C   UNL     1      41.200  -9.222   8.567  1.00  0.00     0.099 C 
HETATM    8  N   UNL     1      40.409  -8.667   7.924  1.00  0.00    -0.191 NA
HETATM    9  C   UNL     1      42.909 -10.959   8.824  1.00  0.00     0.068 A 
ENDROOT
BRANCH   1  10
HETATM   10  N   UNL     1      44.593 -12.698   9.134  1.00  0.00    -0.186 NA
HETATM   11  H   UNL     1      45.494 -12.310   8.818  1.00  0.00     0.154 HD
BRANCH  10  12
HETATM   12  N   UNL     1      43.943 -13.389   8.091  1.00  0.00    -0.281 N 
HETATM   13  C   UNL     1      44.722 -13.894   7.070  1.00  0.00     0.271 C 
HETATM   14  O   UNL     1      45.911 -13.608   6.937  1.00  0.00    -0.266 OA
HETATM   15  H   UNL     1      43.020 -13.783   8.289  1.00  0.00     0.184 HD
BRANCH  13  16
HETATM   16  C   UNL     1      44.020 -14.830   6.146  1.00  0.00     0.102 A 
HETATM   17  C   UNL     1      43.057 -14.381   5.105  1.00  0.00     0.261 A 
HETATM   18  N   UNL     1      42.494 -15.361   4.327  1.00  0.00    -0.326 N 
HETATM   19  O   UNL     1      42.773 -13.195   4.948  1.00  0.00    -0.267 OA
HETATM   20  C   UNL     1      42.745 -16.714   4.450  1.00  0.00     0.019 A 
HETATM   21  H   UNL     1      41.842 -15.036   3.622  1.00  0.00     0.169 HD
HETATM   22  C   UNL     1      41.992 -17.583   3.478  1.00  0.00     0.069 C 
HETATM   23  C   UNL     1      43.611 -17.140   5.398  1.00  0.00    -0.003 A 
HETATM   24  C   UNL     1      44.256 -16.150   6.257  1.00  0.00     0.037 A 
BRANCH  23  25
HETATM   25  C   UNL     1      43.908 -18.576   5.564  1.00  0.00    -0.024 A 
HETATM   26  C   UNL     1      43.483 -19.255   6.713  1.00  0.00     0.012 A 
HETATM   27  C   UNL     1      43.761 -20.614   6.868  1.00  0.00     0.001 A 
HETATM   28  C   UNL     1      44.459 -21.301   5.874  1.00  0.00     0.000 A 
HETATM   29  C   UNL     1      44.877 -20.633   4.724  1.00  0.00     0.001 A 
HETATM   30  C   UNL     1      44.600 -19.274   4.566  1.00  0.00     0.012 A 
ENDBRANCH  23  25
ENDBRANCH  13  16
ENDBRANCH  10  12
ENDBRANCH   1  10
TORSDOF 4
ENDMDL
MODEL 5
REMARK VINA RESULT:      -8.9      6.742      9.554
REMARK  4 active torsions:
REMARK  status: ('A' for Active; 'I' for Inactive)
REMARK    1  A    between atoms: C_6  and  C_7 
REMARK       I    between atoms: C_7  and  N_8 
REMARK    2  A    between atoms: N_8  and  N_9 
REMARK    3  A    between atoms: N_9  and  C_10 
REMARK    4  A    between atoms: C_21  and  C_22 
ROOT
HETATM    1  C   UNL     1      42.485 -12.555  -2.622  1.00  0.00     0.124 A 
HETATM    2  N   UNL     1      42.769 -11.859  -1.507  1.00  0.00    -0.223 NA
HETATM    3  C   UNL     1      42.914 -10.524  -1.620  1.00  0.00     0.129 A 
HETATM    4 CL   UNL     1      43.282  -9.719  -0.152  1.00  0.00    -0.062 Cl
HETATM    5  C   UNL     1      42.782  -9.818  -2.797  1.00  0.00     0.067 A 
HETATM    6  C   UNL     1      42.471 -10.546  -3.938  1.00  0.00     0.051 A 
HETATM    7  C   UNL     1      42.307  -9.879  -5.194  1.00  0.00     0.099 C 
HETATM    8  N   UNL     1      42.176  -9.334  -6.210  1.00  0.00    -0.191 NA
HETATM    9  C   UNL     1      42.314 -11.929  -3.854  1.00  0.00     0.068 A 
ENDROOT
BRANCH   1  10
HETATM   10  N   UNL     1      42.297 -13.944  -2.475  1.00  0.00    -0.186 NA
HETATM   11  H   UNL     1      41.534 -14.191  -3.122  1.00  0.00     0.154 HD
BRANCH  10  12
HETATM   12  N   UNL     1      41.985 -14.326  -1.154  1.00  0.00    -0.281 N 
HETATM   13  C   UNL     1      41.325 -15.524  -0.968  1.00  0.00     0.271 C 
HETATM   14  O   UNL     1      40.838 -16.165  -1.898  1.00  0.00    -0.266 OA
HETATM   15  H   UNL     1      42.539 -13.911  -0.400  1.00  0.00     0.184 HD
BRANCH  13  16
HETATM   16  C   UNL     1      41.260 -15.994   0.445  1.00  0.00     0.102 A 
HETATM   17  C   UNL     1      40.354 -15.399   1.464  1.00  0.00     0.261 A 
HETATM   18  N   UNL     1      40.404 -15.944   2.722  1.00  0.00    -0.326 N 
HETATM   19  O   UNL     1      39.601 -14.464   1.199  1.00  0.00    -0.267 OA
HETATM   20  C   UNL     1      41.234 -16.981   3.106  1.00  0.00     0.019 A 
HETATM   21  H   UNL     1      39.779 -15.527   3.402  1.00  0.00     0.169 HD
HETATM   22  C   UNL     1      41.102 -17.389   4.549  1.00  0.00     0.069 C 
HETATM   23  C   UNL     1      42.071 -17.527   2.193  1.00  0.00    -0.003 A 
HETATM   24  C   UNL     1      42.063 -17.003   0.830  1.00  0.00     0.037 A 
BRANCH  23  25
HETATM   25  C   UNL     1      42.973 -18.635   2.560  1.00  0.00    -0.024 A 
HETATM   26  C   UNL     1      42.992 -19.810   1.799  1.00  0.00     0.012 A 
HETATM   27  C   UNL     1      43.847 -20.857   2.145  1.00  0.00     0.001 A 
HETATM   28  C   UNL     1      44.691 -20.733   3.248  1.00  0.00     0.000 A 
HETATM   29  C   UNL     1      44.684 -19.563   4.006  1.00  0.00     0.001 A 
HETATM   30  C   UNL     1      43.830 -18.513   3.662  1.00  0.00     0.012 A 
ENDBRANCH  23  25
ENDBRANCH  13  16
ENDBRANCH  10  12
ENDBRANCH   1  10
TORSDOF 4
ENDMDL
MODEL 6
REMARK VINA RESULT:      -8.9      2.182      3.405
REMARK  4 active torsions:
REMARK  status: ('A' for Active; 'I' for Inactive)
REMARK    1  A    between atoms: C_6  and  C_7 
REMARK       I    between atoms: C_7  and  N_8 
REMARK    2  A    between atoms: N_8  and  N_9 
REMARK    3  A    between atoms: N_9  and  C_10 
REMARK    4  A    between atoms: C_21  and  C_22 
ROOT
HETATM    1  C   UNL     1      43.842 -12.118   8.563  1.00  0.00     0.124 A 
HETATM    2  N   UNL     1      44.040 -12.147   9.893  1.00  0.00    -0.223 NA
HETATM    3  C   UNL     1      43.226 -11.402  10.665  1.00  0.00     0.129 A 
HETATM    4 CL   UNL     1      43.555 -11.493  12.345  1.00  0.00    -0.062 Cl
HETATM    5  C   UNL     1      42.196 -10.619  10.191  1.00  0.00     0.067 A 
HETATM    6  C   UNL     1      41.990 -10.610   8.817  1.00  0.00     0.051 A 
HETATM    7  C   UNL     1      40.932  -9.829   8.253  1.00  0.00     0.099 C 
HETATM    8  N   UNL     1      40.072  -9.194   7.801  1.00  0.00    -0.191 NA
HETATM    9  C   UNL     1      42.816 -11.372   7.990  1.00  0.00     0.068 A 
ENDROOT
BRANCH   1  10
HETATM   10  N   UNL     1      44.677 -12.937   7.776  1.00  0.00    -0.186 NA
HETATM   11  H   UNL     1      44.588 -12.581   6.813  1.00  0.00     0.154 HD
BRANCH  10  12
HETATM   12  N   UNL     1      44.342 -14.305   7.846  1.00  0.00    -0.281 N 
HETATM   13  C   UNL     1      43.852 -14.907   6.705  1.00  0.00     0.271 C 
HETATM   14  O   UNL     1      43.523 -14.269   5.706  1.00  0.00    -0.266 OA
HETATM   15  H   UNL     1      44.780 -14.861   8.585  1.00  0.00     0.184 HD
BRANCH  13  16
HETATM   16  C   UNL     1      43.767 -16.395   6.765  1.00  0.00     0.102 A 
HETATM   17  C   UNL     1      43.636 -17.154   8.037  1.00  0.00     0.261 A 
HETATM   18  N   UNL     1      43.564 -18.520   7.931  1.00  0.00    -0.326 N 
HETATM   19  O   UNL     1      43.599 -16.593   9.130  1.00  0.00    -0.267 OA
HETATM   20  C   UNL     1      43.617 -19.228   6.745  1.00  0.00     0.019 A 
HETATM   21  H   UNL     1      43.473 -19.021   8.808  1.00  0.00     0.169 HD
HETATM   22  C   UNL     1      43.525 -20.722   6.900  1.00  0.00     0.069 C 
HETATM   23  C   UNL     1      43.745 -18.552   5.579  1.00  0.00    -0.003 A 
HETATM   24  C   UNL     1      43.818 -17.094   5.617  1.00  0.00     0.037 A 
BRANCH  23  25
HETATM   25  C   UNL     1      43.805 -19.268   4.291  1.00  0.00    -0.024 A 
HETATM   26  C   UNL     1      42.995 -18.864   3.222  1.00  0.00     0.012 A 
HETATM   27  C   UNL     1      43.055 -19.540   2.002  1.00  0.00     0.001 A 
HETATM   28  C   UNL     1      43.927 -20.617   1.843  1.00  0.00     0.000 A 
HETATM   29  C   UNL     1      44.742 -21.019   2.900  1.00  0.00     0.001 A 
HETATM   30  C   UNL     1      44.685 -20.345   4.121  1.00  0.00     0.012 A 
ENDBRANCH  23  25
ENDBRANCH  13  16
ENDBRANCH  10  12
ENDBRANCH   1  10
TORSDOF 4
ENDMDL
MODEL 7
REMARK VINA RESULT:      -8.9      4.954      8.007
REMARK  4 active torsions:
REMARK  status: ('A' for Active; 'I' for Inactive)
REMARK    1  A    between atoms: C_6  and  C_7 
REMARK       I    between atoms: C_7  and  N_8 
REMARK    2  A    between atoms: N_8  and  N_9 
REMARK    3  A    between atoms: N_9  and  C_10 
REMARK    4  A    between atoms: C_21  and  C_22 
ROOT
HETATM    1  C   UNL     1      41.754 -12.907   0.602  1.00  0.00     0.124 A 
HETATM    2  N   UNL     1      42.455 -11.810   0.262  1.00  0.00    -0.223 NA
HETATM    3  C   UNL     1      42.817 -11.672  -1.028  1.00  0.00     0.129 A 
HETATM    4 CL   UNL     1      43.712 -10.250  -1.370  1.00  0.00    -0.062 Cl
HETATM    5  C   UNL     1      42.512 -12.570  -2.028  1.00  0.00     0.067 A 
HETATM    6  C   UNL     1      41.774 -13.690  -1.669  1.00  0.00     0.051 A 
HETATM    7  C   UNL     1      41.411 -14.660  -2.656  1.00  0.00     0.099 C 
HETATM    8  N   UNL     1      41.120 -15.444  -3.460  1.00  0.00    -0.191 NA
HETATM    9  C   UNL     1      41.383 -13.862  -0.340  1.00  0.00     0.068 A 
ENDROOT
BRANCH   1  10
HETATM   10  N   UNL     1      41.350 -13.012   1.948  1.00  0.00    -0.186 NA
HETATM   11  H   UNL     1      41.772 -12.204   2.429  1.00  0.00     0.154 HD
BRANCH  10  12
HETATM   12  N   UNL     1      41.740 -14.225   2.553  1.00  0.00    -0.281 N 
HETATM   13  C   UNL     1      42.923 -14.238   3.265  1.00  0.00     0.271 C 
HETATM   14  O   UNL     1      43.728 -13.308   3.234  1.00  0.00    -0.266 OA
HETATM   15  H   UNL     1      41.009 -14.916   2.740  1.00  0.00     0.184 HD
BRANCH  13  16
HETATM   16  C   UNL     1      43.146 -15.458   4.092  1.00  0.00     0.102 A 
HETATM   17  C   UNL     1      43.184 -15.442   5.579  1.00  0.00     0.261 A 
HETATM   18  N   UNL     1      43.393 -16.647   6.200  1.00  0.00    -0.326 N 
HETATM   19  O   UNL     1      43.040 -14.404   6.223  1.00  0.00    -0.267 OA
HETATM   20  C   UNL     1      43.582 -17.852   5.551  1.00  0.00     0.019 A 
HETATM   21  H   UNL     1      43.414 -16.616   7.214  1.00  0.00     0.169 HD
HETATM   22  C   UNL     1      43.801 -19.029   6.464  1.00  0.00     0.069 C 
HETATM   23  C   UNL     1      43.560 -17.883   4.198  1.00  0.00    -0.003 A 
HETATM   24  C   UNL     1      43.331 -16.637   3.471  1.00  0.00     0.037 A 
BRANCH  23  25
HETATM   25  C   UNL     1      43.757 -19.148   3.466  1.00  0.00    -0.024 A 
HETATM   26  C   UNL     1      44.682 -20.093   3.928  1.00  0.00     0.012 A 
HETATM   27  C   UNL     1      44.866 -21.292   3.237  1.00  0.00     0.001 A 
HETATM   28  C   UNL     1      44.124 -21.554   2.085  1.00  0.00     0.000 A 
HETATM   29  C   UNL     1      43.196 -20.621   1.624  1.00  0.00     0.001 A 
HETATM   30  C   UNL     1      43.010 -19.421   2.313  1.00  0.00     0.012 A 
ENDBRANCH  23  25
ENDBRANCH  13  16
ENDBRANCH  10  12
ENDBRANCH   1  10
TORSDOF 4
ENDMDL
MODEL 8
REMARK VINA RESULT:      -8.9      7.089      9.123
REMARK  4 active torsions:
REMARK  status: ('A' for Active; 'I' for Inactive)
REMARK    1  A    between atoms: C_6  and  C_7 
REMARK       I    between atoms: C_7  and  N_8 
REMARK    2  A    between atoms: N_8  and  N_9 
REMARK    3  A    between atoms: N_9  and  C_10 
REMARK    4  A    between atoms: C_21  and  C_22 
ROOT
HETATM    1  C   UNL     1      42.447 -12.602  -2.690  1.00  0.00     0.124 A 
HETATM    2  N   UNL     1      42.194 -12.146  -3.930  1.00  0.00    -0.223 NA
HETATM    3  C   UNL     1      42.285 -10.819  -4.141  1.00  0.00     0.129 A 
HETATM    4 CL   UNL     1      41.940 -10.326  -5.746  1.00  0.00    -0.062 Cl
HETATM    5  C   UNL     1      42.630  -9.894  -3.179  1.00  0.00     0.067 A 
HETATM    6  C   UNL     1      42.905 -10.378  -1.907  1.00  0.00     0.051 A 
HETATM    7  C   UNL     1      43.281  -9.478  -0.859  1.00  0.00     0.099 C 
HETATM    8  N   UNL     1      43.584  -8.744  -0.014  1.00  0.00    -0.191 NA
HETATM    9  C   UNL     1      42.820 -11.749  -1.656  1.00  0.00     0.068 A 
ENDROOT
BRANCH   1  10
HETATM   10  N   UNL     1      42.386 -13.998  -2.500  1.00  0.00    -0.186 NA
HETATM   11  H   UNL     1      41.673 -14.337  -3.164  1.00  0.00     0.154 HD
BRANCH  10  12
HETATM   12  N   UNL     1      42.065 -14.366  -1.178  1.00  0.00    -0.281 N 
HETATM   13  C   UNL     1      41.341 -15.526  -0.989  1.00  0.00     0.271 C 
HETATM   14  O   UNL     1      40.811 -16.136  -1.917  1.00  0.00    -0.266 OA
HETATM   15  H   UNL     1      42.648 -13.985  -0.427  1.00  0.00     0.184 HD
BRANCH  13  16
HETATM   16  C   UNL     1      41.262 -15.996   0.423  1.00  0.00     0.102 A 
HETATM   17  C   UNL     1      40.342 -15.406   1.431  1.00  0.00     0.261 A 
HETATM   18  N   UNL     1      40.380 -15.950   2.690  1.00  0.00    -0.326 N 
HETATM   19  O   UNL     1      39.587 -14.475   1.158  1.00  0.00    -0.267 OA
HETATM   20  C   UNL     1      41.211 -16.982   3.084  1.00  0.00     0.019 A 
HETATM   21  H   UNL     1      39.745 -15.536   3.363  1.00  0.00     0.169 HD
HETATM   22  C   UNL     1      41.065 -17.391   4.525  1.00  0.00     0.069 C 
HETATM   23  C   UNL     1      42.061 -17.524   2.180  1.00  0.00    -0.003 A 
HETATM   24  C   UNL     1      42.066 -17.001   0.818  1.00  0.00     0.037 A 
BRANCH  23  25
HETATM   25  C   UNL     1      42.965 -18.628   2.558  1.00  0.00    -0.024 A 
HETATM   26  C   UNL     1      43.001 -19.802   1.795  1.00  0.00     0.012 A 
HETATM   27  C   UNL     1      43.858 -20.844   2.151  1.00  0.00     0.001 A 
HETATM   28  C   UNL     1      44.685 -20.717   3.266  1.00  0.00     0.000 A 
HETATM   29  C   UNL     1      44.660 -19.549   4.026  1.00  0.00     0.001 A 
HETATM   30  C   UNL     1      43.804 -18.504   3.672  1.00  0.00     0.012 A 
ENDBRANCH  23  25
ENDBRANCH  13  16
ENDBRANCH  10  12
ENDBRANCH   1  10
TORSDOF 4
ENDMDL
MODEL 9
REMARK VINA RESULT:      -8.7      3.826      5.058
REMARK  4 active torsions:
REMARK  status: ('A' for Active; 'I' for Inactive)
REMARK    1  A    between atoms: C_6  and  C_7 
REMARK       I    between atoms: C_7  and  N_8 
REMARK    2  A    between atoms: N_8  and  N_9 
REMARK    3  A    between atoms: N_9  and  C_10 
REMARK    4  A    between atoms: C_21  and  C_22 
ROOT
HETATM    1  C   UNL     1      41.716 -12.683   5.577  1.00  0.00     0.124 A 
HETATM    2  N   UNL     1      41.073 -13.495   4.718  1.00  0.00    -0.223 NA
HETATM    3  C   UNL     1      40.320 -12.923   3.758  1.00  0.00     0.129 A 
HETATM    4 CL   UNL     1      39.532 -14.030   2.713  1.00  0.00    -0.062 Cl
HETATM    5  C   UNL     1      40.169 -11.564   3.586  1.00  0.00     0.067 A 
HETATM    6  C   UNL     1      40.851 -10.736   4.469  1.00  0.00     0.051 A 
HETATM    7  C   UNL     1      40.750  -9.314   4.345  1.00  0.00     0.099 C 
HETATM    8  N   UNL     1      40.665  -8.161   4.241  1.00  0.00    -0.191 NA
HETATM    9  C   UNL     1      41.640 -11.298   5.474  1.00  0.00     0.068 A 
ENDROOT
BRANCH   1  10
HETATM   10  N   UNL     1      42.531 -13.301   6.547  1.00  0.00    -0.186 NA
HETATM   11  H   UNL     1      43.457 -12.859   6.453  1.00  0.00     0.154 HD
BRANCH  10  12
HETATM   12  N   UNL     1      42.617 -14.700   6.392  1.00  0.00    -0.281 N 
HETATM   13  C   UNL     1      43.824 -15.306   6.676  1.00  0.00     0.271 C 
HETATM   14  O   UNL     1      44.859 -14.669   6.869  1.00  0.00    -0.266 OA
HETATM   15  H   UNL     1      41.744 -15.233   6.421  1.00  0.00     0.184 HD
BRANCH  13  16
HETATM   16  C   UNL     1      43.779 -16.795   6.749  1.00  0.00     0.102 A 
HETATM   17  C   UNL     1      43.644 -17.546   8.025  1.00  0.00     0.261 A 
HETATM   18  N   UNL     1      43.612 -18.914   7.931  1.00  0.00    -0.326 N 
HETATM   19  O   UNL     1      43.570 -16.976   9.112  1.00  0.00    -0.267 OA
HETATM   20  C   UNL     1      43.708 -19.631   6.753  1.00  0.00     0.019 A 
HETATM   21  H   UNL     1      43.518 -19.410   8.810  1.00  0.00     0.169 HD
HETATM   22  C   UNL     1      43.655 -21.126   6.921  1.00  0.00     0.069 C 
HETATM   23  C   UNL     1      43.841 -18.962   5.584  1.00  0.00    -0.003 A 
HETATM   24  C   UNL     1      43.872 -17.503   5.609  1.00  0.00     0.037 A 
BRANCH  23  25
HETATM   25  C   UNL     1      43.947 -19.688   4.304  1.00  0.00    -0.024 A 
HETATM   26  C   UNL     1      43.262 -19.226   3.173  1.00  0.00     0.012 A 
HETATM   27  C   UNL     1      43.365 -19.911   1.961  1.00  0.00     0.001 A 
HETATM   28  C   UNL     1      44.156 -21.057   1.872  1.00  0.00     0.000 A 
HETATM   29  C   UNL     1      44.847 -21.518   2.992  1.00  0.00     0.001 A 
HETATM   30  C   UNL     1      44.746 -20.834   4.205  1.00  0.00     0.012 A 
ENDBRANCH  23  25
ENDBRANCH  13  16
ENDBRANCH  10  12
ENDBRANCH   1  10
TORSDOF 4
ENDMDL
MODEL 10
REMARK VINA RESULT:      -8.7      5.767      8.070
REMARK  4 active torsions:
REMARK  status: ('A' for Active; 'I' for Inactive)
REMARK    1  A    between atoms: C_6  and  C_7 
REMARK       I    between atoms: C_7  and  N_8 
REMARK    2  A    between atoms: N_8  and  N_9 
REMARK    3  A    between atoms: N_9  and  C_10 
REMARK    4  A    between atoms: C_21  and  C_22 
ROOT
HETATM    1  C   UNL     1      40.538 -13.931   0.370  1.00  0.00     0.124 A 
HETATM    2  N   UNL     1      40.343 -14.747  -0.682  1.00  0.00    -0.223 NA
HETATM    3  C   UNL     1      40.991 -14.458  -1.827  1.00  0.00     0.129 A 
HETATM    4 CL   UNL     1      40.680 -15.546  -3.116  1.00  0.00    -0.062 Cl
HETATM    5  C   UNL     1      41.847 -13.392  -1.997  1.00  0.00     0.067 A 
HETATM    6  C   UNL     1      42.053 -12.566  -0.899  1.00  0.00     0.051 A 
HETATM    7  C   UNL     1      42.937 -11.446  -0.998  1.00  0.00     0.099 C 
HETATM    8  N   UNL     1      43.655 -10.538  -1.083  1.00  0.00    -0.191 NA
HETATM    9  C   UNL     1      41.397 -12.838   0.302  1.00  0.00     0.068 A 
ENDROOT
BRANCH   1  10
HETATM   10  N   UNL     1      39.883 -14.273   1.571  1.00  0.00    -0.186 NA
HETATM   11  H   UNL     1      39.463 -13.398   1.917  1.00  0.00     0.154 HD
BRANCH  10  12
HETATM   12  N   UNL     1      40.746 -14.839   2.532  1.00  0.00    -0.281 N 
HETATM   13  C   UNL     1      40.780 -16.215   2.636  1.00  0.00     0.271 C 
HETATM   14  O   UNL     1      39.967 -16.945   2.071  1.00  0.00    -0.266 OA
HETATM   15  H   UNL     1      41.534 -14.270   2.852  1.00  0.00     0.184 HD
BRANCH  13  16
HETATM   16  C   UNL     1      41.890 -16.756   3.473  1.00  0.00     0.102 A 
HETATM   17  C   UNL     1      42.526 -15.991   4.579  1.00  0.00     0.261 A 
HETATM   18  N   UNL     1      43.532 -16.625   5.262  1.00  0.00    -0.326 N 
HETATM   19  O   UNL     1      42.175 -14.848   4.867  1.00  0.00    -0.267 OA
HETATM   20  C   UNL     1      43.997 -17.897   4.991  1.00  0.00     0.019 A 
HETATM   21  H   UNL     1      43.953 -16.089   6.014  1.00  0.00     0.169 HD
HETATM   22  C   UNL     1      45.118 -18.361   5.884  1.00  0.00     0.069 C 
HETATM   23  C   UNL     1      43.435 -18.603   3.982  1.00  0.00    -0.003 A 
HETATM   24  C   UNL     1      42.351 -17.993   3.218  1.00  0.00     0.037 A 
BRANCH  23  25
HETATM   25  C   UNL     1      43.901 -19.965   3.658  1.00  0.00    -0.024 A 
HETATM   26  C   UNL     1      43.893 -20.416   2.333  1.00  0.00     0.012 A 
HETATM   27  C   UNL     1      44.336 -21.704   2.026  1.00  0.00     0.001 A 
HETATM   28  C   UNL     1      44.796 -22.543   3.041  1.00  0.00     0.000 A 
HETATM   29  C   UNL     1      44.815 -22.097   4.362  1.00  0.00     0.001 A 
HETATM   30  C   UNL     1      44.372 -20.810   4.672  1.00  0.00     0.012 A 
ENDBRANCH  23  25
ENDBRANCH  13  16
ENDBRANCH  10  12
ENDBRANCH   1  10
TORSDOF 4
ENDMDL
