MODEL 1
REMARK VINA RESULT:      -7.8      0.000      0.000
REMARK  3 active torsions:
REMARK  status: ('A' for Active; 'I' for Inactive)
REMARK    1  A    between atoms: C_4  and  C_5 
REMARK    2  A    between atoms: C_5  and  N_6 
REMARK    3  A    between atoms: N_10  and  S_11 
ROOT
HETATM    1  N   UNL     1      44.184 -16.917   1.795  1.00  0.00    -0.063 N 
HETATM    2  H   UNL     1      44.918 -17.532   2.161  1.00  0.00     0.280 HD
HETATM    3  C   UNL     1      43.845 -15.495   2.971  1.00  0.00     0.267 C 
HETATM    4  C   UNL     1      42.052 -15.591   3.704  1.00  0.00     0.067 C 
HETATM    5  N   UNL     1      41.302 -14.268   3.668  1.00  0.00    -0.300 N 
HETATM    6  C   UNL     1      39.929 -14.289   4.252  1.00  0.00     0.136 C 
HETATM    7  C   UNL     1      39.962 -14.754   5.706  1.00  0.00     0.021 C 
HETATM    8  C   UNL     1      40.826 -15.989   5.935  1.00  0.00     0.004 C 
HETATM    9  C   UNL     1      42.186 -15.897   5.235  1.00  0.00     0.033 C 
HETATM   10  C   UNL     1      40.938 -16.971   2.966  1.00  0.00     0.035 C 
HETATM   11  C   UNL     1      41.295 -17.888   1.341  1.00  0.00     0.030 C 
HETATM   12  C   UNL     1      43.062 -17.808   0.619  1.00  0.00     0.235 C 
ENDROOT
BRANCH   5  13
HETATM   13  S   UNL     1      42.058 -12.742   3.622  1.00  0.00     0.225 S 
HETATM   14  C   UNL     1      40.762 -11.558   3.926  1.00  0.00     0.186 C 
HETATM   15  O   UNL     1      42.955 -12.634   4.748  1.00  0.00    -0.206 OA
HETATM   16  O   UNL     1      42.514 -12.544   2.266  1.00  0.00    -0.206 OA
ENDBRANCH   5  13
BRANCH   1  17
HETATM   17  C   UNL     1      43.004 -17.099   2.378  1.00  0.00     0.299 C 
BRANCH  17  18
HETATM   18  C   UNL     1      43.765 -18.530   3.395  1.00  0.00     0.079 A 
HETATM   19  O   UNL     1      43.925 -19.717   2.665  1.00  0.00    -0.318 OA
HETATM   20  C   UNL     1      44.447 -20.679   3.460  1.00  0.00     0.049 A 
HETATM   21  C   UNL     1      44.596 -22.023   2.867  1.00  0.00     0.076 C 
HETATM   22  C   UNL     1      44.716 -20.164   4.699  1.00  0.00     0.035 A 
HETATM   23  C   UNL     1      44.313 -18.804   4.661  1.00  0.00     0.037 A 
ENDBRANCH  17  18
ENDBRANCH   1  17
TORSDOF 3
ENDMDL
MODEL 2
REMARK VINA RESULT:      -7.3      2.686      4.313
REMARK  3 active torsions:
REMARK  status: ('A' for Active; 'I' for Inactive)
REMARK    1  A    between atoms: C_4  and  C_5 
REMARK    2  A    between atoms: C_5  and  N_6 
REMARK    3  A    between atoms: N_10  and  S_11 
ROOT
HETATM    1  N   UNL     1      41.901 -17.684   6.952  1.00  0.00    -0.063 N 
HETATM    2  H   UNL     1      41.824 -18.619   7.364  1.00  0.00     0.280 HD
HETATM    3  C   UNL     1      41.192 -17.652   5.215  1.00  0.00     0.267 C 
HETATM    4  C   UNL     1      42.564 -17.290   3.893  1.00  0.00     0.067 C 
HETATM    5  N   UNL     1      42.168 -16.237   2.869  1.00  0.00    -0.300 N 
HETATM    6  C   UNL     1      43.183 -15.952   1.813  1.00  0.00     0.136 C 
HETATM    7  C   UNL     1      43.545 -17.220   1.045  1.00  0.00     0.021 C 
HETATM    8  C   UNL     1      43.806 -18.426   1.942  1.00  0.00     0.004 C 
HETATM    9  C   UNL     1      42.745 -18.589   3.036  1.00  0.00     0.033 C 
HETATM   10  C   UNL     1      44.295 -16.860   4.606  1.00  0.00     0.035 C 
HETATM   11  C   UNL     1      44.619 -16.339   6.404  1.00  0.00     0.030 C 
HETATM   12  C   UNL     1      43.277 -16.703   7.714  1.00  0.00     0.235 C 
ENDROOT
BRANCH   5  13
HETATM   13  S   UNL     1      40.557 -15.859   2.462  1.00  0.00     0.225 S 
HETATM   14  C   UNL     1      40.660 -14.849   0.997  1.00  0.00     0.186 C 
HETATM   15  O   UNL     1      39.884 -17.069   2.054  1.00  0.00    -0.206 OA
HETATM   16  O   UNL     1      40.045 -15.025   3.525  1.00  0.00    -0.206 OA
ENDBRANCH   5  13
BRANCH   1  17
HETATM   17  C   UNL     1      42.891 -17.574   6.073  1.00  0.00     0.299 C 
BRANCH  17  18
HETATM   18  C   UNL     1      43.418 -19.364   6.494  1.00  0.00     0.079 A 
HETATM   19  O   UNL     1      44.025 -20.039   5.424  1.00  0.00    -0.318 OA
HETATM   20  C   UNL     1      44.346 -21.299   5.798  1.00  0.00     0.049 A 
HETATM   21  C   UNL     1      44.915 -22.177   4.756  1.00  0.00     0.076 C 
HETATM   22  C   UNL     1      44.040 -21.485   7.118  1.00  0.00     0.035 A 
HETATM   23  C   UNL     1      43.476 -20.265   7.573  1.00  0.00     0.037 A 
ENDBRANCH  17  18
ENDBRANCH   1  17
TORSDOF 3
ENDMDL
MODEL 3
REMARK VINA RESULT:      -7.2      2.317      3.741
REMARK  3 active torsions:
REMARK  status: ('A' for Active; 'I' for Inactive)
REMARK    1  A    between atoms: C_4  and  C_5 
REMARK    2  A    between atoms: C_5  and  N_6 
REMARK    3  A    between atoms: N_10  and  S_11 
ROOT
HETATM    1  N   UNL     1      42.016 -17.503   6.823  1.00  0.00    -0.063 N 
HETATM    2  H   UNL     1      42.151 -18.483   6.558  1.00  0.00     0.280 HD
HETATM    3  C   UNL     1      41.066 -16.569   5.503  1.00  0.00     0.267 C 
HETATM    4  C   UNL     1      42.155 -15.190   4.684  1.00  0.00     0.067 C 
HETATM    5  N   UNL     1      41.451 -13.847   4.554  1.00  0.00    -0.300 N 
HETATM    6  C   UNL     1      42.243 -12.765   3.899  1.00  0.00     0.136 C 
HETATM    7  C   UNL     1      42.686 -13.184   2.499  1.00  0.00     0.021 C 
HETATM    8  C   UNL     1      43.264 -14.593   2.435  1.00  0.00     0.004 C 
HETATM    9  C   UNL     1      42.414 -15.615   3.197  1.00  0.00     0.033 C 
HETATM   10  C   UNL     1      43.880 -14.925   5.485  1.00  0.00     0.035 C 
HETATM   11  C   UNL     1      44.376 -15.558   7.206  1.00  0.00     0.030 C 
HETATM   12  C   UNL     1      43.315 -16.926   8.014  1.00  0.00     0.235 C 
ENDROOT
BRANCH   5  13
HETATM   13  S   UNL     1      39.759 -13.657   4.497  1.00  0.00     0.225 S 
HETATM   14  C   UNL     1      39.484 -11.965   4.011  1.00  0.00     0.186 C 
HETATM   15  O   UNL     1      39.236 -14.462   3.418  1.00  0.00    -0.206 OA
HETATM   16  O   UNL     1      39.279 -13.800   5.853  1.00  0.00    -0.206 OA
ENDBRANCH   5  13
BRANCH   1  17
HETATM   17  C   UNL     1      42.837 -16.668   6.195  1.00  0.00     0.299 C 
BRANCH  17  18
HETATM   18  C   UNL     1      43.739 -18.177   5.441  1.00  0.00     0.079 A 
HETATM   19  O   UNL     1      43.354 -18.462   4.123  1.00  0.00    -0.318 OA
HETATM   20  C   UNL     1      44.021 -19.551   3.674  1.00  0.00     0.049 A 
HETATM   21  C   UNL     1      43.664 -20.041   2.328  1.00  0.00     0.076 C 
HETATM   22  C   UNL     1      44.906 -19.979   4.625  1.00  0.00     0.035 A 
HETATM   23  C   UNL     1      44.754 -19.106   5.733  1.00  0.00     0.037 A 
ENDBRANCH  17  18
ENDBRANCH   1  17
TORSDOF 3
ENDMDL
MODEL 4
REMARK VINA RESULT:      -7.2      2.851      4.456
REMARK  3 active torsions:
REMARK  status: ('A' for Active; 'I' for Inactive)
REMARK    1  A    between atoms: C_4  and  C_5 
REMARK    2  A    between atoms: C_5  and  N_6 
REMARK    3  A    between atoms: N_10  and  S_11 
ROOT
HETATM    1  N   UNL     1      41.227 -14.671   5.388  1.00  0.00    -0.063 N 
HETATM    2  H   UNL     1      41.234 -15.512   5.973  1.00  0.00     0.280 HD
HETATM    3  C   UNL     1      40.034 -14.857   3.952  1.00  0.00     0.267 C 
HETATM    4  C   UNL     1      40.965 -14.858   2.250  1.00  0.00     0.067 C 
HETATM    5  N   UNL     1      40.330 -13.956   1.202  1.00  0.00    -0.300 N 
HETATM    6  C   UNL     1      40.997 -13.952  -0.133  1.00  0.00     0.136 C 
HETATM    7  C   UNL     1      41.053 -15.361  -0.719  1.00  0.00     0.021 C 
HETATM    8  C   UNL     1      41.513 -16.421   0.275  1.00  0.00     0.004 C 
HETATM    9  C   UNL     1      40.821 -16.294   1.637  1.00  0.00     0.033 C 
HETATM   10  C   UNL     1      42.848 -14.491   2.345  1.00  0.00     0.035 C 
HETATM   11  C   UNL     1      43.718 -13.715   3.845  1.00  0.00     0.030 C 
HETATM   12  C   UNL     1      42.812 -13.720   5.528  1.00  0.00     0.235 C 
ENDROOT
BRANCH   5  13
HETATM   13  S   UNL     1      38.691 -13.491   1.208  1.00  0.00     0.225 S 
HETATM   14  C   UNL     1      38.395 -12.769  -0.394  1.00  0.00     0.186 C 
HETATM   15  O   UNL     1      37.871 -14.678   1.257  1.00  0.00    -0.206 OA
HETATM   16  O   UNL     1      38.562 -12.437   2.187  1.00  0.00    -0.206 OA
ENDBRANCH   5  13
BRANCH   1  17
HETATM   17  C   UNL     1      41.914 -14.808   4.259  1.00  0.00     0.299 C 
BRANCH  17  18
HETATM   18  C   UNL     1      42.406 -16.572   4.812  1.00  0.00     0.079 A 
HETATM   19  O   UNL     1      43.623 -16.624   5.508  1.00  0.00    -0.318 OA
HETATM   20  C   UNL     1      43.906 -17.905   5.844  1.00  0.00     0.049 A 
HETATM   21  C   UNL     1      45.204 -18.147   6.506  1.00  0.00     0.076 C 
HETATM   22  C   UNL     1      42.881 -18.724   5.458  1.00  0.00     0.035 A 
HETATM   23  C   UNL     1      41.920 -17.891   4.829  1.00  0.00     0.037 A 
ENDBRANCH  17  18
ENDBRANCH   1  17
TORSDOF 3
ENDMDL
MODEL 5
REMARK VINA RESULT:      -7.2      3.651      5.968
REMARK  3 active torsions:
REMARK  status: ('A' for Active; 'I' for Inactive)
REMARK    1  A    between atoms: C_4  and  C_5 
REMARK    2  A    between atoms: C_5  and  N_6 
REMARK    3  A    between atoms: N_10  and  S_11 
ROOT
HETATM    1  N   UNL     1      40.254 -12.493  -0.186  1.00  0.00    -0.063 N 
HETATM    2  H   UNL     1      40.488 -12.602  -1.177  1.00  0.00     0.280 HD
HETATM    3  C   UNL     1      41.639 -13.126   0.910  1.00  0.00     0.267 C 
HETATM    4  C   UNL     1      41.079 -14.668   1.944  1.00  0.00     0.067 C 
HETATM    5  N   UNL     1      41.462 -14.593   3.415  1.00  0.00    -0.300 N 
HETATM    6  C   UNL     1      41.078 -15.775   4.241  1.00  0.00     0.136 C 
HETATM    7  C   UNL     1      41.686 -17.057   3.677  1.00  0.00     0.021 C 
HETATM    8  C   UNL     1      41.533 -17.195   2.166  1.00  0.00     0.004 C 
HETATM    9  C   UNL     1      41.883 -15.906   1.416  1.00  0.00     0.033 C 
HETATM   10  C   UNL     1      39.219 -15.122   1.797  1.00  0.00     0.035 C 
HETATM   11  C   UNL     1      37.878 -13.958   1.119  1.00  0.00     0.030 C 
HETATM   12  C   UNL     1      38.421 -12.444   0.090  1.00  0.00     0.235 C 
ENDROOT
BRANCH   5  13
HETATM   13  S   UNL     1      42.753 -13.661   4.020  1.00  0.00     0.225 S 
HETATM   14  C   UNL     1      43.115 -14.335   5.629  1.00  0.00     0.186 C 
HETATM   15  O   UNL     1      43.927 -13.917   3.218  1.00  0.00    -0.206 OA
HETATM   16  O   UNL     1      42.244 -12.323   4.216  1.00  0.00    -0.206 OA
ENDBRANCH   5  13
BRANCH   1  17
HETATM   17  C   UNL     1      39.874 -13.626   0.395  1.00  0.00     0.299 C 
BRANCH  17  18
HETATM   18  C   UNL     1      40.085 -14.517  -1.284  1.00  0.00     0.079 A 
HETATM   19  O   UNL     1      38.941 -14.471  -2.094  1.00  0.00    -0.318 OA
HETATM   20  C   UNL     1      39.167 -15.140  -3.249  1.00  0.00     0.049 A 
HETATM   21  C   UNL     1      38.028 -15.264  -4.179  1.00  0.00     0.076 C 
HETATM   22  C   UNL     1      40.461 -15.583  -3.284  1.00  0.00     0.035 A 
HETATM   23  C   UNL     1      41.055 -15.176  -2.061  1.00  0.00     0.037 A 
ENDBRANCH  17  18
ENDBRANCH   1  17
TORSDOF 3
ENDMDL
MODEL 6
REMARK VINA RESULT:      -6.9      4.330      6.720
REMARK  3 active torsions:
REMARK  status: ('A' for Active; 'I' for Inactive)
REMARK    1  A    between atoms: C_4  and  C_5 
REMARK    2  A    between atoms: C_5  and  N_6 
REMARK    3  A    between atoms: N_10  and  S_11 
ROOT
HETATM    1  N   UNL     1      41.719 -14.639  -1.948  1.00  0.00    -0.063 N 
HETATM    2  H   UNL     1      40.904 -14.710  -2.565  1.00  0.00     0.280 HD
HETATM    3  C   UNL     1      41.617 -15.885  -0.550  1.00  0.00     0.267 C 
HETATM    4  C   UNL     1      41.450 -15.009   1.172  1.00  0.00     0.067 C 
HETATM    5  N   UNL     1      42.380 -15.568   2.239  1.00  0.00    -0.300 N 
HETATM    6  C   UNL     1      42.261 -14.944   3.589  1.00  0.00     0.136 C 
HETATM    7  C   UNL     1      40.835 -15.061   4.121  1.00  0.00     0.021 C 
HETATM    8  C   UNL     1      39.766 -14.694   3.098  1.00  0.00     0.004 C 
HETATM    9  C   UNL     1      40.019 -15.329   1.726  1.00  0.00     0.033 C 
HETATM   10  C   UNL     1      41.607 -13.095   1.137  1.00  0.00     0.035 C 
HETATM   11  C   UNL     1      42.334 -12.102  -0.311  1.00  0.00     0.030 C 
HETATM   12  C   UNL     1      42.491 -12.955  -2.013  1.00  0.00     0.235 C 
ENDROOT
BRANCH   5  13
HETATM   13  S   UNL     1      43.026 -17.144   2.212  1.00  0.00     0.225 S 
HETATM   14  C   UNL     1      43.510 -17.490   3.892  1.00  0.00     0.186 C 
HETATM   15  O   UNL     1      41.965 -18.077   1.914  1.00  0.00    -0.206 OA
HETATM   16  O   UNL     1      44.232 -17.086   1.418  1.00  0.00    -0.206 OA
ENDBRANCH   5  13
BRANCH   1  17
HETATM   17  C   UNL     1      41.465 -14.004  -0.809  1.00  0.00     0.299 C 
BRANCH  17  18
HETATM   18  C   UNL     1      39.732 -13.556  -1.484  1.00  0.00     0.079 A 
HETATM   19  O   UNL     1      39.167 -14.555  -2.291  1.00  0.00    -0.318 OA
HETATM   20  C   UNL     1      37.956 -14.152  -2.742  1.00  0.00     0.049 A 
HETATM   21  C   UNL     1      37.263 -15.055  -3.682  1.00  0.00     0.076 C 
HETATM   22  C   UNL     1      37.644 -12.931  -2.209  1.00  0.00     0.035 A 
HETATM   23  C   UNL     1      38.746 -12.558  -1.396  1.00  0.00     0.037 A 
ENDBRANCH  17  18
ENDBRANCH   1  17
TORSDOF 3
ENDMDL
MODEL 7
REMARK VINA RESULT:      -6.7      2.585      4.025
REMARK  3 active torsions:
REMARK  status: ('A' for Active; 'I' for Inactive)
REMARK    1  A    between atoms: C_4  and  C_5 
REMARK    2  A    between atoms: C_5  and  N_6 
REMARK    3  A    between atoms: N_10  and  S_11 
ROOT
HETATM    1  N   UNL     1      41.860 -16.833   6.903  1.00  0.00    -0.063 N 
HETATM    2  H   UNL     1      41.793 -17.759   6.470  1.00  0.00     0.280 HD
HETATM    3  C   UNL     1      40.684 -15.620   6.087  1.00  0.00     0.267 C 
HETATM    4  C   UNL     1      41.643 -14.199   5.181  1.00  0.00     0.067 C 
HETATM    5  N   UNL     1      41.097 -12.809   5.469  1.00  0.00    -0.300 N 
HETATM    6  C   UNL     1      41.786 -11.688   4.765  1.00  0.00     0.136 C 
HETATM    7  C   UNL     1      41.748 -11.887   3.252  1.00  0.00     0.021 C 
HETATM    8  C   UNL     1      42.110 -13.301   2.811  1.00  0.00     0.004 C 
HETATM    9  C   UNL     1      41.404 -14.378   3.642  1.00  0.00     0.033 C 
HETATM   10  C   UNL     1      43.546 -14.199   5.442  1.00  0.00     0.035 C 
HETATM   11  C   UNL     1      44.443 -15.154   6.817  1.00  0.00     0.030 C 
HETATM   12  C   UNL     1      43.509 -16.563   7.707  1.00  0.00     0.235 C 
ENDROOT
BRANCH   5  13
HETATM   13  S   UNL     1      39.497 -12.493   5.963  1.00  0.00     0.225 S 
HETATM   14  C   UNL     1      39.237 -10.757   5.657  1.00  0.00     0.186 C 
HETATM   15  O   UNL     1      38.592 -13.185   5.076  1.00  0.00    -0.206 OA
HETATM   16  O   UNL     1      39.458 -12.691   7.394  1.00  0.00    -0.206 OA
ENDBRANCH   5  13
BRANCH   1  17
HETATM   17  C   UNL     1      42.556 -15.962   6.180  1.00  0.00     0.299 C 
BRANCH  17  18
HETATM   18  C   UNL     1      42.876 -17.339   4.891  1.00  0.00     0.079 A 
HETATM   19  O   UNL     1      43.796 -18.307   5.319  1.00  0.00    -0.318 OA
HETATM   20  C   UNL     1      43.980 -19.228   4.345  1.00  0.00     0.049 A 
HETATM   21  C   UNL     1      44.992 -20.273   4.601  1.00  0.00     0.076 C 
HETATM   22  C   UNL     1      43.157 -18.957   3.286  1.00  0.00     0.035 A 
HETATM   23  C   UNL     1      42.439 -17.782   3.630  1.00  0.00     0.037 A 
ENDBRANCH  17  18
ENDBRANCH   1  17
TORSDOF 3
ENDMDL
MODEL 8
REMARK VINA RESULT:      -6.6      3.454      4.847
REMARK  3 active torsions:
REMARK  status: ('A' for Active; 'I' for Inactive)
REMARK    1  A    between atoms: C_4  and  C_5 
REMARK    2  A    between atoms: C_5  and  N_6 
REMARK    3  A    between atoms: N_10  and  S_11 
ROOT
HETATM    1  N   UNL     1      40.263 -16.116   3.353  1.00  0.00    -0.063 N 
HETATM    2  H   UNL     1      40.554 -17.096   3.288  1.00  0.00     0.280 HD
HETATM    3  C   UNL     1      39.520 -15.523   1.736  1.00  0.00     0.267 C 
HETATM    4  C   UNL     1      40.605 -14.138   0.920  1.00  0.00     0.067 C 
HETATM    5  N   UNL     1      39.807 -12.939   0.432  1.00  0.00    -0.300 N 
HETATM    6  C   UNL     1      40.600 -11.863  -0.232  1.00  0.00     0.136 C 
HETATM    7  C   UNL     1      41.371 -12.413  -1.428  1.00  0.00     0.021 C 
HETATM    8  C   UNL     1      42.096 -13.724  -1.141  1.00  0.00     0.004 C 
HETATM    9  C   UNL     1      41.217 -14.733  -0.395  1.00  0.00     0.033 C 
HETATM   10  C   UNL     1      42.084 -13.525   1.981  1.00  0.00     0.035 C 
HETATM   11  C   UNL     1      42.269 -13.829   3.848  1.00  0.00     0.030 C 
HETATM   12  C   UNL     1      41.211 -15.199   4.656  1.00  0.00     0.235 C 
ENDROOT
BRANCH   5  13
HETATM   13  S   UNL     1      38.154 -12.995   0.021  1.00  0.00     0.225 S 
HETATM   14  C   UNL     1      37.818 -11.456  -0.813  1.00  0.00     0.186 C 
HETATM   15  O   UNL     1      37.957 -14.026  -0.971  1.00  0.00    -0.206 OA
HETATM   16  O   UNL     1      37.416 -12.983   1.262  1.00  0.00    -0.206 OA
ENDBRANCH   5  13
BRANCH   1  17
HETATM   17  C   UNL     1      41.105 -15.275   2.763  1.00  0.00     0.299 C 
BRANCH  17  18
HETATM   18  C   UNL     1      42.242 -16.757   2.349  1.00  0.00     0.079 A 
HETATM   19  O   UNL     1      42.731 -17.425   3.481  1.00  0.00    -0.318 OA
HETATM   20  C   UNL     1      43.539 -18.442   3.101  1.00  0.00     0.049 A 
HETATM   21  C   UNL     1      44.212 -19.194   4.179  1.00  0.00     0.076 C 
HETATM   22  C   UNL     1      43.561 -18.535   1.736  1.00  0.00     0.035 A 
HETATM   23  C   UNL     1      42.727 -17.493   1.253  1.00  0.00     0.037 A 
ENDBRANCH  17  18
ENDBRANCH   1  17
TORSDOF 3
ENDMDL
MODEL 9
REMARK VINA RESULT:      -6.4      2.492      4.044
REMARK  3 active torsions:
REMARK  status: ('A' for Active; 'I' for Inactive)
REMARK    1  A    between atoms: C_4  and  C_5 
REMARK    2  A    between atoms: C_5  and  N_6 
REMARK    3  A    between atoms: N_10  and  S_11 
ROOT
HETATM    1  N   UNL     1      41.438 -15.737   5.361  1.00  0.00    -0.063 N 
HETATM    2  H   UNL     1      41.445 -16.759   5.294  1.00  0.00     0.280 HD
HETATM    3  C   UNL     1      40.314 -14.983   4.062  1.00  0.00     0.267 C 
HETATM    4  C   UNL     1      41.317 -13.924   2.783  1.00  0.00     0.067 C 
HETATM    5  N   UNL     1      40.700 -12.564   2.494  1.00  0.00    -0.300 N 
HETATM    6  C   UNL     1      41.423 -11.729   1.490  1.00  0.00     0.136 C 
HETATM    7  C   UNL     1      41.548 -12.464   0.158  1.00  0.00     0.021 C 
HETATM    8  C   UNL     1      41.997 -13.915   0.297  1.00  0.00     0.004 C 
HETATM    9  C   UNL     1      41.243 -14.663   1.402  1.00  0.00     0.033 C 
HETATM   10  C   UNL     1      43.181 -13.702   3.185  1.00  0.00     0.035 C 
HETATM   11  C   UNL     1      43.962 -14.034   4.885  1.00  0.00     0.030 C 
HETATM   12  C   UNL     1      42.985 -15.085   6.147  1.00  0.00     0.235 C 
ENDROOT
BRANCH   5  13
HETATM   13  S   UNL     1      39.049 -12.199   2.702  1.00  0.00     0.225 S 
HETATM   14  C   UNL     1      38.811 -10.609   1.932  1.00  0.00     0.186 C 
HETATM   15  O   UNL     1      38.266 -13.129   1.923  1.00  0.00    -0.206 OA
HETATM   16  O   UNL     1      38.837 -12.028   4.121  1.00  0.00    -0.206 OA
ENDBRANCH   5  13
BRANCH   1  17
HETATM   17  C   UNL     1      42.176 -15.142   4.431  1.00  0.00     0.299 C 
BRANCH  17  18
HETATM   18  C   UNL     1      42.700 -16.866   3.790  1.00  0.00     0.079 A 
HETATM   19  O   UNL     1      43.501 -17.583   4.692  1.00  0.00    -0.318 OA
HETATM   20  C   UNL     1      43.842 -18.777   4.155  1.00  0.00     0.049 A 
HETATM   21  C   UNL     1      44.763 -19.621   4.943  1.00  0.00     0.076 C 
HETATM   22  C   UNL     1      43.238 -18.930   2.937  1.00  0.00     0.035 A 
HETATM   23  C   UNL     1      42.496 -17.742   2.708  1.00  0.00     0.037 A 
ENDBRANCH  17  18
ENDBRANCH   1  17
TORSDOF 3
ENDMDL
MODEL 10
REMARK VINA RESULT:      -6.2      3.101      6.512
REMARK  3 active torsions:
REMARK  status: ('A' for Active; 'I' for Inactive)
REMARK    1  A    between atoms: C_4  and  C_5 
REMARK    2  A    between atoms: C_5  and  N_6 
REMARK    3  A    between atoms: N_10  and  S_11 
ROOT
HETATM    1  N   UNL     1      43.865 -17.434   6.898  1.00  0.00    -0.063 N 
HETATM    2  H   UNL     1      44.368 -16.593   7.196  1.00  0.00     0.280 HD
HETATM    3  C   UNL     1      44.659 -18.194   5.378  1.00  0.00     0.267 C 
HETATM    4  C   UNL     1      43.475 -18.118   3.844  1.00  0.00     0.067 C 
HETATM    5  N   UNL     1      43.384 -19.427   3.073  1.00  0.00    -0.300 N 
HETATM    6  C   UNL     1      42.508 -19.403   1.865  1.00  0.00     0.136 C 
HETATM    7  C   UNL     1      42.962 -18.326   0.882  1.00  0.00     0.021 C 
HETATM    8  C   UNL     1      43.263 -16.984   1.540  1.00  0.00     0.004 C 
HETATM    9  C   UNL     1      44.108 -17.124   2.810  1.00  0.00     0.033 C 
HETATM   10  C   UNL     1      41.703 -17.473   4.208  1.00  0.00     0.035 C 
HETATM   11  C   UNL     1      40.936 -17.354   5.942  1.00  0.00     0.030 C 
HETATM   12  C   UNL     1      42.098 -17.416   7.458  1.00  0.00     0.235 C 
ENDROOT
BRANCH   5  13
HETATM   13  S   UNL     1      44.594 -20.627   3.081  1.00  0.00     0.225 S 
HETATM   14  C   UNL     1      44.083 -21.827   1.867  1.00  0.00     0.186 C 
HETATM   15  O   UNL     1      45.818 -20.056   2.572  1.00  0.00    -0.206 OA
HETATM   16  O   UNL     1      44.535 -21.268   4.374  1.00  0.00    -0.206 OA
ENDBRANCH   5  13
BRANCH   1  17
HETATM   17  C   UNL     1      43.081 -17.235   5.844  1.00  0.00     0.299 C 
BRANCH  17  18
HETATM   18  C   UNL     1      43.290 -15.349   6.087  1.00  0.00     0.079 A 
HETATM   19  O   UNL     1      44.364 -15.005   6.922  1.00  0.00    -0.318 OA
HETATM   20  C   UNL     1      44.428 -13.660   7.056  1.00  0.00     0.049 A 
HETATM   21  C   UNL     1      45.453 -13.133   7.979  1.00  0.00     0.076 C 
HETATM   22  C   UNL     1      43.470 -13.068   6.280  1.00  0.00     0.035 A 
HETATM   23  C   UNL     1      42.762 -14.122   5.646  1.00  0.00     0.037 A 
ENDBRANCH  17  18
ENDBRANCH   1  17
TORSDOF 3
ENDMDL
