MODEL 1
REMARK VINA RESULT:      -8.8      0.000      0.000
REMARK  8 active torsions:
REMARK  status: ('A' for Active; 'I' for Inactive)
REMARK    1  A    between atoms: O_2  and  C_3 
REMARK    2  A    between atoms: C_5  and  O_6 
REMARK    3  A    between atoms: C_9  and  C_10 
REMARK    4  A    between atoms: C_10  and  N_11 
REMARK    5  A    between atoms: C_20  and  C_21 
REMARK    6  A    between atoms: C_21  and  N_22 
REMARK    7  A    between atoms: C_26  and  O_27 
REMARK    8  A    between atoms: C_26  and  C_28 
ROOT
HETATM    1  N   UNL     1      41.724 -16.995   1.448  1.00  0.00    -0.061 N 
HETATM    2  H   UNL     1      41.827 -18.001   1.275  1.00  0.00     0.280 HD
HETATM    3  C   UNL     1      40.433 -16.855   2.228  1.00  0.00     0.276 C 
HETATM    4  C   UNL     1      40.220 -15.473   2.787  1.00  0.00     0.002 A 
HETATM    5  C   UNL     1      39.999 -14.411   1.910  1.00  0.00     0.076 A 
HETATM    6  O   UNL     1      39.974 -14.631   0.561  1.00  0.00    -0.349 OA
HETATM    7  C   UNL     1      41.298 -14.879   0.058  1.00  0.00     0.203 C 
HETATM    8  C   UNL     1      41.644 -16.376   0.059  1.00  0.00     0.262 C 
HETATM    9  C   UNL     1      40.320 -15.199   4.163  1.00  0.00     0.020 A 
HETATM   10  C   UNL     1      40.200 -13.883   4.654  1.00  0.00    -0.032 A 
HETATM   11  C   UNL     1      39.924 -12.847   3.746  1.00  0.00     0.011 A 
HETATM   12  C   UNL     1      39.808 -13.116   2.380  1.00  0.00     0.038 A 
ENDROOT
BRANCH  10  13
HETATM   13  C   UNL     1      40.471 -13.587   6.111  1.00  0.00     0.273 C 
BRANCH  13  14
HETATM   14  N   UNL     1      40.326 -12.145   6.547  1.00  0.00    -0.067 N 
HETATM   15  H   UNL     1      39.848 -11.642   5.785  1.00  0.00     0.280 HD
HETATM   16  C   UNL     1      39.478 -11.992   7.788  1.00  0.00     0.238 C 
HETATM   17  C   UNL     1      39.389 -10.526   8.171  1.00  0.00     0.071 C 
HETATM   18  C   UNL     1      40.779  -9.922   8.462  1.00  0.00     0.089 C 
HETATM   19  C   UNL     1      41.604 -10.081   7.171  1.00  0.00     0.071 C 
HETATM   20  C   UNL     1      41.699 -11.522   6.697  1.00  0.00     0.238 C 
BRANCH  18  21
HETATM   21  O   UNL     1      40.581  -8.518   8.632  1.00  0.00    -0.385 OA
HETATM   22  H   UNL     1      39.790  -8.227   8.137  1.00  0.00     0.211 HD
ENDBRANCH  18  21
BRANCH  18  23
HETATM   23  C   UNL     1      41.401 -10.475   9.738  1.00  0.00    -0.006 A 
HETATM   24  C   UNL     1      40.661 -10.864  10.852  1.00  0.00     0.126 A 
HETATM   25  N   UNL     1      41.190 -11.278  12.023  1.00  0.00    -0.272 NA
HETATM   26  C   UNL     1      42.530 -11.408  12.086  1.00  0.00     0.116 A 
HETATM   27  C   UNL     1      43.364 -11.119  11.025  1.00  0.00     0.020 A 
HETATM   28  C   UNL     1      42.792 -10.652   9.843  1.00  0.00     0.013 A 
ENDBRANCH  18  23
ENDBRANCH  13  14
ENDBRANCH  10  13
BRANCH   1  29
HETATM   29  C   UNL     1      42.925 -16.587   2.265  1.00  0.00     0.274 C 
BRANCH  29  30
HETATM   30  C   UNL     1      43.510 -17.639   3.158  1.00  0.00    -0.027 A 
HETATM   31  C   UNL     1      43.501 -17.452   4.548  1.00  0.00     0.045 A 
HETATM   32  C   UNL     1      43.893 -18.474   5.415  1.00  0.00     0.071 A 
HETATM   33  C   UNL     1      44.337 -19.692   4.900  1.00  0.00     0.073 A 
HETATM   34  C   UNL     1      44.355 -19.894   3.518  1.00  0.00     0.071 A 
HETATM   35  C   UNL     1      43.940 -18.873   2.656  1.00  0.00     0.045 A 
BRANCH  32  36
HETATM   36  O   UNL     1      43.785 -18.152   6.740  1.00  0.00    -0.356 OA
HETATM   37  C   UNL     1      42.696 -17.309   7.108  1.00  0.00     0.210 C 
ENDBRANCH  32  36
BRANCH  34  38
HETATM   38  O   UNL     1      44.738 -21.039   2.876  1.00  0.00    -0.356 OA
HETATM   39  C   UNL     1      43.874 -21.526   1.852  1.00  0.00     0.210 C 
ENDBRANCH  34  38
ENDBRANCH  29  30
ENDBRANCH   1  29
TORSDOF 8
ENDMDL
MODEL 2
REMARK VINA RESULT:      -8.7      0.420      2.119
REMARK  8 active torsions:
REMARK  status: ('A' for Active; 'I' for Inactive)
REMARK    1  A    between atoms: O_2  and  C_3 
REMARK    2  A    between atoms: C_5  and  O_6 
REMARK    3  A    between atoms: C_9  and  C_10 
REMARK    4  A    between atoms: C_10  and  N_11 
REMARK    5  A    between atoms: C_20  and  C_21 
REMARK    6  A    between atoms: C_21  and  N_22 
REMARK    7  A    between atoms: C_26  and  O_27 
REMARK    8  A    between atoms: C_26  and  C_28 
ROOT
HETATM    1  N   UNL     1      41.745 -17.108   1.568  1.00  0.00    -0.061 N 
HETATM    2  H   UNL     1      41.823 -18.119   1.409  1.00  0.00     0.280 HD
HETATM    3  C   UNL     1      40.431 -16.919   2.299  1.00  0.00     0.276 C 
HETATM    4  C   UNL     1      40.242 -15.525   2.835  1.00  0.00     0.002 A 
HETATM    5  C   UNL     1      40.086 -14.467   1.940  1.00  0.00     0.076 A 
HETATM    6  O   UNL     1      40.103 -14.702   0.593  1.00  0.00    -0.349 OA
HETATM    7  C   UNL     1      41.435 -14.996   0.141  1.00  0.00     0.203 C 
HETATM    8  C   UNL     1      41.734 -16.503   0.169  1.00  0.00     0.262 C 
HETATM    9  C   UNL     1      40.301 -15.238   4.211  1.00  0.00     0.020 A 
HETATM   10  C   UNL     1      40.204 -13.913   4.683  1.00  0.00    -0.032 A 
HETATM   11  C   UNL     1      39.994 -12.881   3.755  1.00  0.00     0.011 A 
HETATM   12  C   UNL     1      39.918 -13.161   2.388  1.00  0.00     0.038 A 
ENDROOT
BRANCH  10  13
HETATM   13  C   UNL     1      40.432 -13.610   6.146  1.00  0.00     0.273 C 
BRANCH  13  14
HETATM   14  N   UNL     1      40.319 -12.158   6.560  1.00  0.00    -0.067 N 
HETATM   15  H   UNL     1      39.842 -11.659   5.796  1.00  0.00     0.280 HD
HETATM   16  C   UNL     1      39.487 -11.970   7.808  1.00  0.00     0.238 C 
HETATM   17  C   UNL     1      39.430 -10.497   8.169  1.00  0.00     0.071 C 
HETATM   18  C   UNL     1      40.833  -9.915   8.436  1.00  0.00     0.089 C 
HETATM   19  C   UNL     1      41.642 -10.110   7.140  1.00  0.00     0.071 C 
HETATM   20  C   UNL     1      41.705 -11.559   6.687  1.00  0.00     0.238 C 
BRANCH  18  21
HETATM   21  O   UNL     1      40.663  -8.505   8.586  1.00  0.00    -0.385 OA
HETATM   22  H   UNL     1      41.206  -8.178   9.330  1.00  0.00     0.211 HD
ENDBRANCH  18  21
BRANCH  18  23
HETATM   23  C   UNL     1      41.459 -10.460   9.714  1.00  0.00    -0.006 A 
HETATM   24  C   UNL     1      40.719 -10.886  10.815  1.00  0.00     0.126 A 
HETATM   25  N   UNL     1      41.248 -11.294  11.988  1.00  0.00    -0.272 NA
HETATM   26  C   UNL     1      42.590 -11.378  12.066  1.00  0.00     0.116 A 
HETATM   27  C   UNL     1      43.427 -11.050  11.019  1.00  0.00     0.020 A 
HETATM   28  C   UNL     1      42.853 -10.590   9.835  1.00  0.00     0.013 A 
ENDBRANCH  18  23
ENDBRANCH  13  14
ENDBRANCH  10  13
BRANCH   1  29
HETATM   29  C   UNL     1      42.928 -16.728   2.423  1.00  0.00     0.274 C 
BRANCH  29  30
HETATM   30  C   UNL     1      43.472 -17.799   3.319  1.00  0.00    -0.027 A 
HETATM   31  C   UNL     1      43.769 -19.062   2.787  1.00  0.00     0.045 A 
HETATM   32  C   UNL     1      44.420 -20.032   3.554  1.00  0.00     0.071 A 
HETATM   33  C   UNL     1      44.750 -19.763   4.882  1.00  0.00     0.073 A 
HETATM   34  C   UNL     1      44.459 -18.511   5.429  1.00  0.00     0.071 A 
HETATM   35  C   UNL     1      43.827 -17.537   4.648  1.00  0.00     0.045 A 
BRANCH  32  36
HETATM   36  O   UNL     1      44.679 -21.193   2.879  1.00  0.00    -0.356 OA
HETATM   37  C   UNL     1      43.791 -21.529   1.815  1.00  0.00     0.210 C 
ENDBRANCH  32  36
BRANCH  34  38
HETATM   38  O   UNL     1      44.746 -18.100   6.700  1.00  0.00    -0.356 OA
HETATM   39  C   UNL     1      44.047 -18.744   7.762  1.00  0.00     0.210 C 
ENDBRANCH  34  38
ENDBRANCH  29  30
ENDBRANCH   1  29
TORSDOF 8
ENDMDL
MODEL 3
REMARK VINA RESULT:      -8.4      3.554      8.526
REMARK  8 active torsions:
REMARK  status: ('A' for Active; 'I' for Inactive)
REMARK    1  A    between atoms: O_2  and  C_3 
REMARK    2  A    between atoms: C_5  and  O_6 
REMARK    3  A    between atoms: C_9  and  C_10 
REMARK    4  A    between atoms: C_10  and  N_11 
REMARK    5  A    between atoms: C_20  and  C_21 
REMARK    6  A    between atoms: C_21  and  N_22 
REMARK    7  A    between atoms: C_26  and  O_27 
REMARK    8  A    between atoms: C_26  and  C_28 
ROOT
HETATM    1  N   UNL     1      39.504 -10.534   2.193  1.00  0.00    -0.061 N 
HETATM    2  H   UNL     1      39.214 -10.242   1.253  1.00  0.00     0.280 HD
HETATM    3  C   UNL     1      38.637 -11.731   2.525  1.00  0.00     0.276 C 
HETATM    4  C   UNL     1      39.070 -12.455   3.772  1.00  0.00     0.002 A 
HETATM    5  C   UNL     1      38.950 -11.817   5.006  1.00  0.00     0.076 A 
HETATM    6  O   UNL     1      38.440 -10.550   5.075  1.00  0.00    -0.349 OA
HETATM    7  C   UNL     1      39.387  -9.589   4.578  1.00  0.00     0.203 C 
HETATM    8  C   UNL     1      39.207  -9.327   3.074  1.00  0.00     0.262 C 
HETATM    9  C   UNL     1      39.674 -13.725   3.728  1.00  0.00     0.020 A 
HETATM   10  C   UNL     1      40.148 -14.347   4.901  1.00  0.00    -0.032 A 
HETATM   11  C   UNL     1      39.960 -13.696   6.132  1.00  0.00     0.011 A 
HETATM   12  C   UNL     1      39.347 -12.442   6.183  1.00  0.00     0.038 A 
ENDROOT
BRANCH  10  13
HETATM   13  C   UNL     1      40.936 -15.633   4.814  1.00  0.00     0.273 C 
BRANCH  13  14
HETATM   14  N   UNL     1      41.627 -15.915   3.497  1.00  0.00    -0.067 N 
HETATM   15  H   UNL     1      41.433 -15.118   2.874  1.00  0.00     0.280 HD
HETATM   16  C   UNL     1      43.128 -16.021   3.637  1.00  0.00     0.238 C 
HETATM   17  C   UNL     1      43.749 -16.316   2.283  1.00  0.00     0.071 C 
HETATM   18  C   UNL     1      43.228 -17.640   1.688  1.00  0.00     0.089 C 
HETATM   19  C   UNL     1      41.702 -17.486   1.546  1.00  0.00     0.071 C 
HETATM   20  C   UNL     1      41.012 -17.142   2.856  1.00  0.00     0.238 C 
BRANCH  18  21
HETATM   21  O   UNL     1      43.741 -17.714   0.357  1.00  0.00    -0.385 OA
HETATM   22  H   UNL     1      44.539 -17.157   0.273  1.00  0.00     0.211 HD
ENDBRANCH  18  21
BRANCH  18  23
HETATM   23  C   UNL     1      43.717 -18.861   2.457  1.00  0.00    -0.006 A 
HETATM   24  C   UNL     1      44.189 -18.809   3.768  1.00  0.00     0.126 A 
HETATM   25  N   UNL     1      44.705 -19.857   4.443  1.00  0.00    -0.272 NA
HETATM   26  C   UNL     1      44.679 -21.059   3.835  1.00  0.00     0.116 A 
HETATM   27  C   UNL     1      44.174 -21.249   2.565  1.00  0.00     0.020 A 
HETATM   28  C   UNL     1      43.688 -20.140   1.875  1.00  0.00     0.013 A 
ENDBRANCH  18  23
ENDBRANCH  13  14
ENDBRANCH  10  13
BRANCH   1  29
HETATM   29  C   UNL     1      40.963 -10.905   2.084  1.00  0.00     0.274 C 
BRANCH  29  30
HETATM   30  C   UNL     1      41.401 -11.496   0.778  1.00  0.00    -0.027 A 
HETATM   31  C   UNL     1      42.113 -10.707  -0.136  1.00  0.00     0.045 A 
HETATM   32  C   UNL     1      42.670 -11.265  -1.289  1.00  0.00     0.071 A 
HETATM   33  C   UNL     1      42.489 -12.621  -1.564  1.00  0.00     0.073 A 
HETATM   34  C   UNL     1      41.781 -13.421  -0.665  1.00  0.00     0.071 A 
HETATM   35  C   UNL     1      41.244 -12.860   0.499  1.00  0.00     0.045 A 
BRANCH  32  36
HETATM   36  O   UNL     1      43.371 -10.375  -2.055  1.00  0.00    -0.356 OA
HETATM   37  C   UNL     1      43.928  -9.249  -1.381  1.00  0.00     0.210 C 
ENDBRANCH  32  36
BRANCH  34  38
HETATM   38  O   UNL     1      41.549 -14.762  -0.790  1.00  0.00    -0.356 OA
HETATM   39  C   UNL     1      40.836 -15.191  -1.947  1.00  0.00     0.210 C 
ENDBRANCH  34  38
ENDBRANCH  29  30
ENDBRANCH   1  29
TORSDOF 8
ENDMDL
MODEL 4
REMARK VINA RESULT:      -8.3      2.869      8.457
REMARK  8 active torsions:
REMARK  status: ('A' for Active; 'I' for Inactive)
REMARK    1  A    between atoms: O_2  and  C_3 
REMARK    2  A    between atoms: C_5  and  O_6 
REMARK    3  A    between atoms: C_9  and  C_10 
REMARK    4  A    between atoms: C_10  and  N_11 
REMARK    5  A    between atoms: C_20  and  C_21 
REMARK    6  A    between atoms: C_21  and  N_22 
REMARK    7  A    between atoms: C_26  and  O_27 
REMARK    8  A    between atoms: C_26  and  C_28 
ROOT
HETATM    1  N   UNL     1      41.359  -9.245   7.658  1.00  0.00    -0.061 N 
HETATM    2  H   UNL     1      42.064  -8.605   8.041  1.00  0.00     0.280 HD
HETATM    3  C   UNL     1      41.747  -9.445   6.208  1.00  0.00     0.276 C 
HETATM    4  C   UNL     1      40.971 -10.541   5.528  1.00  0.00     0.002 A 
HETATM    5  C   UNL     1      39.603 -10.373   5.311  1.00  0.00     0.076 A 
HETATM    6  O   UNL     1      38.983  -9.222   5.711  1.00  0.00    -0.349 OA
HETATM    7  C   UNL     1      38.844  -9.186   7.142  1.00  0.00     0.203 C 
HETATM    8  C   UNL     1      40.040  -8.499   7.820  1.00  0.00     0.262 C 
HETATM    9  C   UNL     1      41.561 -11.769   5.177  1.00  0.00     0.020 A 
HETATM   10  C   UNL     1      40.795 -12.812   4.617  1.00  0.00    -0.032 A 
HETATM   11  C   UNL     1      39.431 -12.585   4.365  1.00  0.00     0.011 A 
HETATM   12  C   UNL     1      38.843 -11.362   4.696  1.00  0.00     0.038 A 
ENDROOT
BRANCH  10  13
HETATM   13  C   UNL     1      41.410 -14.174   4.399  1.00  0.00     0.273 C 
BRANCH  13  14
HETATM   14  N   UNL     1      41.745 -14.972   5.641  1.00  0.00    -0.067 N 
HETATM   15  H   UNL     1      41.388 -14.442   6.449  1.00  0.00     0.280 HD
HETATM   16  C   UNL     1      41.078 -16.328   5.662  1.00  0.00     0.238 C 
HETATM   17  C   UNL     1      41.469 -17.072   6.925  1.00  0.00     0.071 C 
HETATM   18  C   UNL     1      42.993 -17.287   7.018  1.00  0.00     0.089 C 
HETATM   19  C   UNL     1      43.634 -15.886   7.012  1.00  0.00     0.071 C 
HETATM   20  C   UNL     1      43.250 -15.060   5.795  1.00  0.00     0.238 C 
BRANCH  18  21
HETATM   21  O   UNL     1      43.246 -17.829   8.315  1.00  0.00    -0.385 OA
HETATM   22  H   UNL     1      44.180 -18.107   8.388  1.00  0.00     0.211 HD
ENDBRANCH  18  21
BRANCH  18  23
HETATM   23  C   UNL     1      43.510 -18.273   5.979  1.00  0.00    -0.006 A 
HETATM   24  C   UNL     1      43.889 -19.581   6.277  1.00  0.00     0.126 A 
HETATM   25  N   UNL     1      44.427 -20.448   5.393  1.00  0.00    -0.272 NA
HETATM   26  C   UNL     1      44.520 -20.047   4.110  1.00  0.00     0.116 A 
HETATM   27  C   UNL     1      44.112 -18.800   3.680  1.00  0.00     0.020 A 
HETATM   28  C   UNL     1      43.601 -17.911   4.624  1.00  0.00     0.013 A 
ENDBRANCH  18  23
ENDBRANCH  13  14
ENDBRANCH  10  13
BRANCH   1  29
HETATM   29  C   UNL     1      41.476 -10.521   8.456  1.00  0.00     0.274 C 
BRANCH  29  30
HETATM   30  C   UNL     1      42.714 -10.672   9.288  1.00  0.00    -0.027 A 
HETATM   31  C   UNL     1      42.759 -10.111  10.571  1.00  0.00     0.045 A 
HETATM   32  C   UNL     1      43.831 -10.363  11.431  1.00  0.00     0.071 A 
HETATM   33  C   UNL     1      44.896 -11.155  11.002  1.00  0.00     0.073 A 
HETATM   34  C   UNL     1      44.869 -11.720   9.725  1.00  0.00     0.071 A 
HETATM   35  C   UNL     1      43.781 -11.480   8.877  1.00  0.00     0.045 A 
BRANCH  32  36
HETATM   36  O   UNL     1      43.706  -9.781  12.662  1.00  0.00    -0.356 OA
HETATM   37  C   UNL     1      42.665 -10.276  13.502  1.00  0.00     0.210 C 
ENDBRANCH  32  36
BRANCH  34  38
HETATM   38  O   UNL     1      45.824 -12.534   9.183  1.00  0.00    -0.356 OA
HETATM   39  C   UNL     1      45.609 -12.982   7.847  1.00  0.00     0.210 C 
ENDBRANCH  34  38
ENDBRANCH  29  30
ENDBRANCH   1  29
TORSDOF 8
ENDMDL
MODEL 5
REMARK VINA RESULT:      -8.3      3.738      8.168
REMARK  8 active torsions:
REMARK  status: ('A' for Active; 'I' for Inactive)
REMARK    1  A    between atoms: O_2  and  C_3 
REMARK    2  A    between atoms: C_5  and  O_6 
REMARK    3  A    between atoms: C_9  and  C_10 
REMARK    4  A    between atoms: C_10  and  N_11 
REMARK    5  A    between atoms: C_20  and  C_21 
REMARK    6  A    between atoms: C_21  and  N_22 
REMARK    7  A    between atoms: C_26  and  O_27 
REMARK    8  A    between atoms: C_26  and  C_28 
ROOT
HETATM    1  N   UNL     1      42.982 -15.243   5.295  1.00  0.00    -0.061 N 
HETATM    2  H   UNL     1      43.840 -15.475   5.807  1.00  0.00     0.280 HD
HETATM    3  C   UNL     1      42.969 -13.731   5.202  1.00  0.00     0.276 C 
HETATM    4  C   UNL     1      41.907 -13.199   4.278  1.00  0.00     0.002 A 
HETATM    5  C   UNL     1      40.564 -13.354   4.623  1.00  0.00     0.076 A 
HETATM    6  O   UNL     1      40.225 -13.981   5.790  1.00  0.00    -0.349 OA
HETATM    7  C   UNL     1      40.450 -15.398   5.695  1.00  0.00     0.203 C 
HETATM    8  C   UNL     1      41.859 -15.791   6.167  1.00  0.00     0.262 C 
HETATM    9  C   UNL     1      42.218 -12.623   3.033  1.00  0.00     0.020 A 
HETATM   10  C   UNL     1      41.202 -12.208   2.147  1.00  0.00    -0.032 A 
HETATM   11  C   UNL     1      39.863 -12.332   2.553  1.00  0.00     0.011 A 
HETATM   12  C   UNL     1      39.548 -12.888   3.795  1.00  0.00     0.038 A 
ENDROOT
BRANCH  10  13
HETATM   13  C   UNL     1      41.552 -11.743   0.753  1.00  0.00     0.273 C 
BRANCH  13  14
HETATM   14  N   UNL     1      41.906 -12.821  -0.250  1.00  0.00    -0.067 N 
HETATM   15  H   UNL     1      42.851 -13.157  -0.017  1.00  0.00     0.280 HD
HETATM   16  C   UNL     1      40.976 -14.010  -0.181  1.00  0.00     0.238 C 
HETATM   17  C   UNL     1      41.382 -15.039  -1.220  1.00  0.00     0.071 C 
HETATM   18  C   UNL     1      41.323 -14.466  -2.651  1.00  0.00     0.089 C 
HETATM   19  C   UNL     1      42.294 -13.270  -2.685  1.00  0.00     0.071 C 
HETATM   20  C   UNL     1      41.978 -12.215  -1.637  1.00  0.00     0.238 C 
BRANCH  18  21
HETATM   21  O   UNL     1      41.891 -15.459  -3.507  1.00  0.00    -0.385 OA
HETATM   22  H   UNL     1      41.403 -15.492  -4.353  1.00  0.00     0.211 HD
ENDBRANCH  18  21
BRANCH  18  23
HETATM   23  C   UNL     1      39.897 -14.195  -3.114  1.00  0.00    -0.006 A 
HETATM   24  C   UNL     1      39.368 -12.916  -3.275  1.00  0.00     0.126 A 
HETATM   25  N   UNL     1      38.086 -12.649  -3.604  1.00  0.00    -0.272 NA
HETATM   26  C   UNL     1      37.286 -13.696  -3.882  1.00  0.00     0.116 A 
HETATM   27  C   UNL     1      37.715 -15.007  -3.825  1.00  0.00     0.020 A 
HETATM   28  C   UNL     1      39.032 -15.254  -3.440  1.00  0.00     0.013 A 
ENDBRANCH  18  23
ENDBRANCH  13  14
ENDBRANCH  10  13
BRANCH   1  29
HETATM   29  C   UNL     1      43.117 -15.892   3.939  1.00  0.00     0.274 C 
BRANCH  29  30
HETATM   30  C   UNL     1      43.569 -17.321   3.928  1.00  0.00    -0.027 A 
HETATM   31  C   UNL     1      43.971 -17.929   5.126  1.00  0.00     0.045 A 
HETATM   32  C   UNL     1      44.249 -19.297   5.182  1.00  0.00     0.071 A 
HETATM   33  C   UNL     1      44.163 -20.072   4.025  1.00  0.00     0.073 A 
HETATM   34  C   UNL     1      43.766 -19.482   2.823  1.00  0.00     0.071 A 
HETATM   35  C   UNL     1      43.469 -18.116   2.780  1.00  0.00     0.045 A 
BRANCH  32  36
HETATM   36  O   UNL     1      44.584 -19.747   6.429  1.00  0.00    -0.356 OA
HETATM   37  C   UNL     1      43.827 -19.230   7.521  1.00  0.00     0.210 C 
ENDBRANCH  32  36
BRANCH  34  38
HETATM   38  O   UNL     1      43.613 -20.120   1.624  1.00  0.00    -0.356 OA
HETATM   39  C   UNL     1      43.901 -21.516   1.592  1.00  0.00     0.210 C 
ENDBRANCH  34  38
ENDBRANCH  29  30
ENDBRANCH   1  29
TORSDOF 8
ENDMDL
MODEL 6
REMARK VINA RESULT:      -8.2      3.558      8.659
REMARK  8 active torsions:
REMARK  status: ('A' for Active; 'I' for Inactive)
REMARK    1  A    between atoms: O_2  and  C_3 
REMARK    2  A    between atoms: C_5  and  O_6 
REMARK    3  A    between atoms: C_9  and  C_10 
REMARK    4  A    between atoms: C_10  and  N_11 
REMARK    5  A    between atoms: C_20  and  C_21 
REMARK    6  A    between atoms: C_21  and  N_22 
REMARK    7  A    between atoms: C_26  and  O_27 
REMARK    8  A    between atoms: C_26  and  C_28 
ROOT
HETATM    1  N   UNL     1      39.674 -10.597   2.199  1.00  0.00    -0.061 N 
HETATM    2  H   UNL     1      39.414 -10.284   1.257  1.00  0.00     0.280 HD
HETATM    3  C   UNL     1      38.768 -11.775   2.493  1.00  0.00     0.276 C 
HETATM    4  C   UNL     1      39.154 -12.528   3.738  1.00  0.00     0.002 A 
HETATM    5  C   UNL     1      39.022 -11.905   4.979  1.00  0.00     0.076 A 
HETATM    6  O   UNL     1      38.544 -10.627   5.056  1.00  0.00    -0.349 OA
HETATM    7  C   UNL     1      39.527  -9.684   4.595  1.00  0.00     0.203 C 
HETATM    8  C   UNL     1      39.389  -9.395   3.092  1.00  0.00     0.262 C 
HETATM    9  C   UNL     1      39.724 -13.813   3.689  1.00  0.00     0.020 A 
HETATM   10  C   UNL     1      40.155 -14.465   4.863  1.00  0.00    -0.032 A 
HETATM   11  C   UNL     1      39.956 -13.828   6.098  1.00  0.00     0.011 A 
HETATM   12  C   UNL     1      39.375 -12.558   6.155  1.00  0.00     0.038 A 
ENDROOT
BRANCH  10  13
HETATM   13  C   UNL     1      40.910 -15.771   4.774  1.00  0.00     0.273 C 
BRANCH  13  14
HETATM   14  N   UNL     1      41.632 -16.047   3.472  1.00  0.00    -0.067 N 
HETATM   15  H   UNL     1      41.451 -15.248   2.848  1.00  0.00     0.280 HD
HETATM   16  C   UNL     1      43.130 -16.151   3.646  1.00  0.00     0.238 C 
HETATM   17  C   UNL     1      43.782 -16.441   2.307  1.00  0.00     0.071 C 
HETATM   18  C   UNL     1      43.277 -17.763   1.695  1.00  0.00     0.089 C 
HETATM   19  C   UNL     1      41.754 -17.611   1.518  1.00  0.00     0.071 C 
HETATM   20  C   UNL     1      41.034 -17.272   2.812  1.00  0.00     0.238 C 
BRANCH  18  21
HETATM   21  O   UNL     1      43.822 -17.832   0.376  1.00  0.00    -0.385 OA
HETATM   22  H   UNL     1      44.790 -17.703   0.405  1.00  0.00     0.211 HD
ENDBRANCH  18  21
BRANCH  18  23
HETATM   23  C   UNL     1      43.750 -18.986   2.471  1.00  0.00    -0.006 A 
HETATM   24  C   UNL     1      44.207 -18.936   3.787  1.00  0.00     0.126 A 
HETATM   25  N   UNL     1      44.708 -19.987   4.469  1.00  0.00    -0.272 NA
HETATM   26  C   UNL     1      44.682 -21.189   3.862  1.00  0.00     0.116 A 
HETATM   27  C   UNL     1      44.190 -21.377   2.586  1.00  0.00     0.020 A 
HETATM   28  C   UNL     1      43.719 -20.265   1.890  1.00  0.00     0.013 A 
ENDBRANCH  18  23
ENDBRANCH  13  14
ENDBRANCH  10  13
BRANCH   1  29
HETATM   29  C   UNL     1      41.125 -11.005   2.117  1.00  0.00     0.274 C 
BRANCH  29  30
HETATM   30  C   UNL     1      41.568 -11.625   0.827  1.00  0.00    -0.027 A 
HETATM   31  C   UNL     1      41.276 -12.971   0.568  1.00  0.00     0.045 A 
HETATM   32  C   UNL     1      41.535 -13.537  -0.683  1.00  0.00     0.071 A 
HETATM   33  C   UNL     1      42.127 -12.769  -1.686  1.00  0.00     0.073 A 
HETATM   34  C   UNL     1      42.427 -11.427  -1.444  1.00  0.00     0.071 A 
HETATM   35  C   UNL     1      42.145 -10.861  -0.196  1.00  0.00     0.045 A 
BRANCH  32  36
HETATM   36  O   UNL     1      41.153 -14.846  -0.792  1.00  0.00    -0.356 OA
HETATM   37  C   UNL     1      41.064 -15.380  -2.111  1.00  0.00     0.210 C 
ENDBRANCH  32  36
BRANCH  34  38
HETATM   38  O   UNL     1      42.981 -10.551  -2.336  1.00  0.00    -0.356 OA
HETATM   39  C   UNL     1      43.348  -9.266  -1.838  1.00  0.00     0.210 C 
ENDBRANCH  34  38
ENDBRANCH  29  30
ENDBRANCH   1  29
TORSDOF 8
ENDMDL
MODEL 7
REMARK VINA RESULT:      -8.1      2.423      8.960
REMARK  8 active torsions:
REMARK  status: ('A' for Active; 'I' for Inactive)
REMARK    1  A    between atoms: O_2  and  C_3 
REMARK    2  A    between atoms: C_5  and  O_6 
REMARK    3  A    between atoms: C_9  and  C_10 
REMARK    4  A    between atoms: C_10  and  N_11 
REMARK    5  A    between atoms: C_20  and  C_21 
REMARK    6  A    between atoms: C_21  and  N_22 
REMARK    7  A    between atoms: C_26  and  O_27 
REMARK    8  A    between atoms: C_26  and  C_28 
ROOT
HETATM    1  N   UNL     1      41.220  -9.296   7.881  1.00  0.00    -0.061 N 
HETATM    2  H   UNL     1      41.915  -8.617   8.211  1.00  0.00     0.280 HD
HETATM    3  C   UNL     1      41.644  -9.650   6.471  1.00  0.00     0.276 C 
HETATM    4  C   UNL     1      40.885 -10.814   5.893  1.00  0.00     0.002 A 
HETATM    5  C   UNL     1      39.523 -10.673   5.625  1.00  0.00     0.076 A 
HETATM    6  O   UNL     1      38.894  -9.487   5.884  1.00  0.00    -0.349 OA
HETATM    7  C   UNL     1      38.719  -9.297   7.298  1.00  0.00     0.203 C 
HETATM    8  C   UNL     1      39.898  -8.540   7.928  1.00  0.00     0.262 C 
HETATM    9  C   UNL     1      41.483 -12.071   5.692  1.00  0.00     0.020 A 
HETATM   10  C   UNL     1      40.730 -13.170   5.228  1.00  0.00    -0.032 A 
HETATM   11  C   UNL     1      39.374 -12.975   4.918  1.00  0.00     0.011 A 
HETATM   12  C   UNL     1      38.778 -11.724   5.101  1.00  0.00     0.038 A 
ENDROOT
BRANCH  10  13
HETATM   13  C   UNL     1      41.350 -14.547   5.173  1.00  0.00     0.273 C 
BRANCH  13  14
HETATM   14  N   UNL     1      41.791 -15.036   3.809  1.00  0.00    -0.067 N 
HETATM   15  H   UNL     1      41.493 -14.330   3.121  1.00  0.00     0.280 HD
HETATM   16  C   UNL     1      43.292 -15.170   3.695  1.00  0.00     0.238 C 
HETATM   17  C   UNL     1      43.657 -15.675   2.311  1.00  0.00     0.071 C 
HETATM   18  C   UNL     1      43.028 -17.053   2.017  1.00  0.00     0.089 C 
HETATM   19  C   UNL     1      41.502 -16.870   2.127  1.00  0.00     0.071 C 
HETATM   20  C   UNL     1      41.062 -16.321   3.474  1.00  0.00     0.238 C 
BRANCH  18  21
HETATM   21  O   UNL     1      43.293 -17.332   0.642  1.00  0.00    -0.385 OA
HETATM   22  H   UNL     1      44.173 -17.745   0.546  1.00  0.00     0.211 HD
ENDBRANCH  18  21
BRANCH  18  23
HETATM   23  C   UNL     1      43.639 -18.166   2.857  1.00  0.00    -0.006 A 
HETATM   24  C   UNL     1      43.934 -19.435   2.361  1.00  0.00     0.126 A 
HETATM   25  N   UNL     1      44.398 -20.464   3.102  1.00  0.00    -0.272 NA
HETATM   26  C   UNL     1      44.680 -20.218   4.396  1.00  0.00     0.116 A 
HETATM   27  C   UNL     1      44.496 -18.983   4.985  1.00  0.00     0.020 A 
HETATM   28  C   UNL     1      43.974 -17.952   4.205  1.00  0.00     0.013 A 
ENDBRANCH  18  23
ENDBRANCH  13  14
ENDBRANCH  10  13
BRANCH   1  29
HETATM   29  C   UNL     1      41.316 -10.479   8.814  1.00  0.00     0.274 C 
BRANCH  29  30
HETATM   30  C   UNL     1      42.628 -10.668   9.513  1.00  0.00    -0.027 A 
HETATM   31  C   UNL     1      42.819 -10.119  10.789  1.00  0.00     0.045 A 
HETATM   32  C   UNL     1      43.967 -10.405  11.532  1.00  0.00     0.071 A 
HETATM   33  C   UNL     1      44.962 -11.219  10.990  1.00  0.00     0.073 A 
HETATM   34  C   UNL     1      44.789 -11.772   9.719  1.00  0.00     0.071 A 
HETATM   35  C   UNL     1      43.627 -11.498   8.990  1.00  0.00     0.045 A 
BRANCH  32  36
HETATM   36  O   UNL     1      43.984  -9.832  12.773  1.00  0.00    -0.356 OA
HETATM   37  C   UNL     1      42.747  -9.798  13.481  1.00  0.00     0.210 C 
ENDBRANCH  32  36
BRANCH  34  38
HETATM   38  O   UNL     1      45.663 -12.604   9.076  1.00  0.00    -0.356 OA
HETATM   39  C   UNL     1      45.197 -13.236   7.886  1.00  0.00     0.210 C 
ENDBRANCH  34  38
ENDBRANCH  29  30
ENDBRANCH   1  29
TORSDOF 8
ENDMDL
MODEL 8
REMARK VINA RESULT:      -8.0      2.540      9.176
REMARK  8 active torsions:
REMARK  status: ('A' for Active; 'I' for Inactive)
REMARK    1  A    between atoms: O_2  and  C_3 
REMARK    2  A    between atoms: C_5  and  O_6 
REMARK    3  A    between atoms: C_9  and  C_10 
REMARK    4  A    between atoms: C_10  and  N_11 
REMARK    5  A    between atoms: C_20  and  C_21 
REMARK    6  A    between atoms: C_21  and  N_22 
REMARK    7  A    between atoms: C_26  and  O_27 
REMARK    8  A    between atoms: C_26  and  C_28 
ROOT
HETATM    1  N   UNL     1      42.605 -15.526   6.852  1.00  0.00    -0.061 N 
HETATM    2  H   UNL     1      42.168 -15.011   7.625  1.00  0.00     0.280 HD
HETATM    3  C   UNL     1      41.601 -16.592   6.465  1.00  0.00     0.276 C 
HETATM    4  C   UNL     1      41.952 -17.308   5.188  1.00  0.00     0.002 A 
HETATM    5  C   UNL     1      43.082 -18.126   5.154  1.00  0.00     0.076 A 
HETATM    6  O   UNL     1      43.854 -18.272   6.273  1.00  0.00    -0.349 OA
HETATM    7  C   UNL     1      44.621 -17.083   6.526  1.00  0.00     0.203 C 
HETATM    8  C   UNL     1      43.880 -16.105   7.452  1.00  0.00     0.262 C 
HETATM    9  C   UNL     1      41.227 -17.115   3.998  1.00  0.00     0.020 A 
HETATM   10  C   UNL     1      41.625 -17.731   2.794  1.00  0.00    -0.032 A 
HETATM   11  C   UNL     1      42.737 -18.589   2.812  1.00  0.00     0.011 A 
HETATM   12  C   UNL     1      43.452 -18.798   3.994  1.00  0.00     0.038 A 
ENDROOT
BRANCH  10  13
HETATM   13  C   UNL     1      40.932 -17.384   1.497  1.00  0.00     0.273 C 
BRANCH  13  14
HETATM   14  N   UNL     1      41.004 -15.937   1.058  1.00  0.00    -0.067 N 
HETATM   15  H   UNL     1      41.592 -15.439   1.742  1.00  0.00     0.280 HD
HETATM   16  C   UNL     1      41.651 -15.770  -0.297  1.00  0.00     0.238 C 
HETATM   17  C   UNL     1      41.676 -14.300  -0.675  1.00  0.00     0.071 C 
HETATM   18  C   UNL     1      40.257 -13.699  -0.744  1.00  0.00     0.089 C 
HETATM   19  C   UNL     1      39.639 -13.874   0.656  1.00  0.00     0.071 C 
HETATM   20  C   UNL     1      39.622 -15.319   1.126  1.00  0.00     0.238 C 
BRANCH  18  21
HETATM   21  O   UNL     1      40.422 -12.293  -0.929  1.00  0.00    -0.385 OA
HETATM   22  H   UNL     1      39.983 -11.804  -0.206  1.00  0.00     0.211 HD
ENDBRANCH  18  21
BRANCH  18  23
HETATM   23  C   UNL     1      39.447 -14.243  -1.915  1.00  0.00    -0.006 A 
HETATM   24  C   UNL     1      38.083 -14.014  -2.083  1.00  0.00     0.126 A 
HETATM   25  N   UNL     1      37.326 -14.551  -3.063  1.00  0.00    -0.272 NA
HETATM   26  C   UNL     1      37.956 -15.291  -3.997  1.00  0.00     0.116 A 
HETATM   27  C   UNL     1      39.315 -15.532  -3.976  1.00  0.00     0.020 A 
HETATM   28  C   UNL     1      40.063 -15.000  -2.927  1.00  0.00     0.013 A 
ENDBRANCH  18  23
ENDBRANCH  13  14
ENDBRANCH  10  13
BRANCH   1  29
HETATM   29  C   UNL     1      42.815 -14.520   5.747  1.00  0.00     0.274 C 
BRANCH  29  30
HETATM   30  C   UNL     1      41.876 -13.352   5.725  1.00  0.00    -0.027 A 
HETATM   31  C   UNL     1      42.170 -12.212   6.486  1.00  0.00     0.045 A 
HETATM   32  C   UNL     1      41.402 -11.050   6.370  1.00  0.00     0.071 A 
HETATM   33  C   UNL     1      40.302 -11.026   5.513  1.00  0.00     0.073 A 
HETATM   34  C   UNL     1      39.993 -12.154   4.750  1.00  0.00     0.071 A 
HETATM   35  C   UNL     1      40.779 -13.306   4.855  1.00  0.00     0.045 A 
BRANCH  32  36
HETATM   36  O   UNL     1      41.843 -10.012   7.143  1.00  0.00    -0.356 OA
HETATM   37  C   UNL     1      42.140 -10.309   8.506  1.00  0.00     0.210 C 
ENDBRANCH  32  36
BRANCH  34  38
HETATM   38  O   UNL     1      38.966 -12.265   3.854  1.00  0.00    -0.356 OA
HETATM   39  C   UNL     1      38.697 -11.130   3.034  1.00  0.00     0.210 C 
ENDBRANCH  34  38
ENDBRANCH  29  30
ENDBRANCH   1  29
TORSDOF 8
ENDMDL
MODEL 9
REMARK VINA RESULT:      -8.0      4.009      7.667
REMARK  8 active torsions:
REMARK  status: ('A' for Active; 'I' for Inactive)
REMARK    1  A    between atoms: O_2  and  C_3 
REMARK    2  A    between atoms: C_5  and  O_6 
REMARK    3  A    between atoms: C_9  and  C_10 
REMARK    4  A    between atoms: C_10  and  N_11 
REMARK    5  A    between atoms: C_20  and  C_21 
REMARK    6  A    between atoms: C_21  and  N_22 
REMARK    7  A    between atoms: C_26  and  O_27 
REMARK    8  A    between atoms: C_26  and  C_28 
ROOT
HETATM    1  N   UNL     1      42.157 -14.803   3.377  1.00  0.00    -0.061 N 
HETATM    2  H   UNL     1      43.144 -14.915   3.637  1.00  0.00     0.280 HD
HETATM    3  C   UNL     1      42.139 -13.689   2.351  1.00  0.00     0.276 C 
HETATM    4  C   UNL     1      40.808 -13.530   1.666  1.00  0.00     0.002 A 
HETATM    5  C   UNL     1      39.710 -13.090   2.406  1.00  0.00     0.076 A 
HETATM    6  O   UNL     1      39.850 -12.807   3.736  1.00  0.00    -0.349 OA
HETATM    7  C   UNL     1      39.991 -14.013   4.505  1.00  0.00     0.203 C 
HETATM    8  C   UNL     1      41.462 -14.420   4.677  1.00  0.00     0.262 C 
HETATM    9  C   UNL     1      40.611 -13.890   0.321  1.00  0.00     0.020 A 
HETATM   10  C   UNL     1      39.335 -13.812  -0.275  1.00  0.00    -0.032 A 
HETATM   11  C   UNL     1      38.265 -13.313   0.487  1.00  0.00     0.011 A 
HETATM   12  C   UNL     1      38.459 -12.938   1.819  1.00  0.00     0.038 A 
ENDROOT
BRANCH  10  13
HETATM   13  C   UNL     1      39.112 -14.355  -1.668  1.00  0.00     0.273 C 
BRANCH  13  14
HETATM   14  N   UNL     1      39.937 -13.735  -2.775  1.00  0.00    -0.067 N 
HETATM   15  H   UNL     1      39.658 -14.191  -3.656  1.00  0.00     0.280 HD
HETATM   16  C   UNL     1      39.682 -12.255  -2.935  1.00  0.00     0.238 C 
HETATM   17  C   UNL     1      40.551 -11.702  -4.050  1.00  0.00     0.071 C 
HETATM   18  C   UNL     1      42.053 -11.902  -3.762  1.00  0.00     0.089 C 
HETATM   19  C   UNL     1      42.275 -13.420  -3.622  1.00  0.00     0.071 C 
HETATM   20  C   UNL     1      41.402 -14.055  -2.553  1.00  0.00     0.238 C 
BRANCH  18  21
HETATM   21  O   UNL     1      42.747 -11.509  -4.946  1.00  0.00    -0.385 OA
HETATM   22  H   UNL     1      43.683 -11.315  -4.740  1.00  0.00     0.211 HD
ENDBRANCH  18  21
BRANCH  18  23
HETATM   23  C   UNL     1      42.547 -11.036  -2.610  1.00  0.00    -0.006 A 
HETATM   24  C   UNL     1      42.969 -11.548  -1.384  1.00  0.00     0.126 A 
HETATM   25  N   UNL     1      43.333 -10.801  -0.321  1.00  0.00    -0.272 NA
HETATM   26  C   UNL     1      43.374  -9.465  -0.487  1.00  0.00     0.116 A 
HETATM   27  C   UNL     1      43.045  -8.844  -1.675  1.00  0.00     0.020 A 
HETATM   28  C   UNL     1      42.632  -9.639  -2.743  1.00  0.00     0.013 A 
ENDBRANCH  18  23
ENDBRANCH  13  14
ENDBRANCH  10  13
BRANCH   1  29
HETATM   29  C   UNL     1      41.729 -16.124   2.785  1.00  0.00     0.274 C 
BRANCH  29  30
HETATM   30  C   UNL     1      42.646 -17.286   3.022  1.00  0.00    -0.027 A 
HETATM   31  C   UNL     1      43.461 -17.304   4.162  1.00  0.00     0.045 A 
HETATM   32  C   UNL     1      44.209 -18.436   4.495  1.00  0.00     0.071 A 
HETATM   33  C   UNL     1      44.181 -19.558   3.666  1.00  0.00     0.073 A 
HETATM   34  C   UNL     1      43.378 -19.555   2.524  1.00  0.00     0.071 A 
HETATM   35  C   UNL     1      42.614 -18.425   2.209  1.00  0.00     0.045 A 
BRANCH  32  36
HETATM   36  O   UNL     1      44.916 -18.314   5.660  1.00  0.00    -0.356 OA
HETATM   37  C   UNL     1      44.263 -18.741   6.853  1.00  0.00     0.210 C 
ENDBRANCH  32  36
BRANCH  34  38
HETATM   38  O   UNL     1      43.231 -20.586   1.638  1.00  0.00    -0.356 OA
HETATM   39  C   UNL     1      43.982 -21.770   1.894  1.00  0.00     0.210 C 
ENDBRANCH  34  38
ENDBRANCH  29  30
ENDBRANCH   1  29
TORSDOF 8
ENDMDL
MODEL 10
REMARK VINA RESULT:      -7.9      3.749      7.857
REMARK  8 active torsions:
REMARK  status: ('A' for Active; 'I' for Inactive)
REMARK    1  A    between atoms: O_2  and  C_3 
REMARK    2  A    between atoms: C_5  and  O_6 
REMARK    3  A    between atoms: C_9  and  C_10 
REMARK    4  A    between atoms: C_10  and  N_11 
REMARK    5  A    between atoms: C_20  and  C_21 
REMARK    6  A    between atoms: C_21  and  N_22 
REMARK    7  A    between atoms: C_26  and  O_27 
REMARK    8  A    between atoms: C_26  and  C_28 
ROOT
HETATM    1  N   UNL     1      43.315 -14.909   4.570  1.00  0.00    -0.061 N 
HETATM    2  H   UNL     1      44.196 -15.376   4.813  1.00  0.00     0.280 HD
HETATM    3  C   UNL     1      43.618 -14.111   3.319  1.00  0.00     0.276 C 
HETATM    4  C   UNL     1      42.390 -13.537   2.665  1.00  0.00     0.002 A 
HETATM    5  C   UNL     1      41.669 -12.541   3.325  1.00  0.00     0.076 A 
HETATM    6  O   UNL     1      42.082 -12.095   4.549  1.00  0.00    -0.349 OA
HETATM    7  C   UNL     1      41.819 -13.076   5.567  1.00  0.00     0.203 C 
HETATM    8  C   UNL     1      43.009 -14.026   5.774  1.00  0.00     0.262 C 
HETATM    9  C   UNL     1      41.892 -14.030   1.445  1.00  0.00     0.020 A 
HETATM   10  C   UNL     1      40.693 -13.534   0.894  1.00  0.00    -0.032 A 
HETATM   11  C   UNL     1      40.024 -12.494   1.561  1.00  0.00     0.011 A 
HETATM   12  C   UNL     1      40.522 -11.989   2.764  1.00  0.00     0.038 A 
ENDROOT
BRANCH  10  13
HETATM   13  C   UNL     1      40.091 -14.186  -0.330  1.00  0.00     0.273 C 
BRANCH  13  14
HETATM   14  N   UNL     1      40.618 -13.723  -1.671  1.00  0.00    -0.067 N 
HETATM   15  H   UNL     1      40.394 -14.457  -2.358  1.00  0.00     0.280 HD
HETATM   16  C   UNL     1      39.963 -12.447  -2.146  1.00  0.00     0.238 C 
HETATM   17  C   UNL     1      40.549 -12.038  -3.485  1.00  0.00     0.071 C 
HETATM   18  C   UNL     1      42.069 -11.792  -3.397  1.00  0.00     0.089 C 
HETATM   19  C   UNL     1      42.700 -13.116  -2.927  1.00  0.00     0.071 C 
HETATM   20  C   UNL     1      42.129 -13.616  -1.611  1.00  0.00     0.238 C 
BRANCH  18  21
HETATM   21  O   UNL     1      42.524 -11.592  -4.736  1.00  0.00    -0.385 OA
HETATM   22  H   UNL     1      43.254 -10.943  -4.750  1.00  0.00     0.211 HD
ENDBRANCH  18  21
BRANCH  18  23
HETATM   23  C   UNL     1      42.415 -10.550  -2.585  1.00  0.00    -0.006 A 
HETATM   24  C   UNL     1      41.868  -9.292  -2.828  1.00  0.00     0.126 A 
HETATM   25  N   UNL     1      42.218  -8.161  -2.179  1.00  0.00    -0.272 NA
HETATM   26  C   UNL     1      43.095  -8.276  -1.163  1.00  0.00     0.116 A 
HETATM   27  C   UNL     1      43.653  -9.480  -0.783  1.00  0.00     0.020 A 
HETATM   28  C   UNL     1      43.305 -10.623  -1.500  1.00  0.00     0.013 A 
ENDBRANCH  18  23
ENDBRANCH  13  14
ENDBRANCH  10  13
BRANCH   1  29
HETATM   29  C   UNL     1      42.316 -16.010   4.311  1.00  0.00     0.274 C 
BRANCH  29  30
HETATM   30  C   UNL     1      42.830 -17.413   4.427  1.00  0.00    -0.027 A 
HETATM   31  C   UNL     1      43.199 -18.114   3.270  1.00  0.00     0.045 A 
HETATM   32  C   UNL     1      43.826 -19.360   3.351  1.00  0.00     0.071 A 
HETATM   33  C   UNL     1      44.059 -19.942   4.598  1.00  0.00     0.073 A 
HETATM   34  C   UNL     1      43.696 -19.259   5.760  1.00  0.00     0.071 A 
HETATM   35  C   UNL     1      43.088 -18.001   5.671  1.00  0.00     0.045 A 
BRANCH  32  36
HETATM   36  O   UNL     1      44.163 -19.894   2.138  1.00  0.00    -0.356 OA
HETATM   37  C   UNL     1      44.043 -21.308   2.004  1.00  0.00     0.210 C 
ENDBRANCH  32  36
BRANCH  34  38
HETATM   38  O   UNL     1      43.886 -19.692   7.042  1.00  0.00    -0.356 OA
HETATM   39  C   UNL     1      43.610 -21.065   7.310  1.00  0.00     0.210 C 
ENDBRANCH  34  38
ENDBRANCH  29  30
ENDBRANCH   1  29
TORSDOF 8
ENDMDL
