MODEL 1
REMARK VINA RESULT:      -7.9      0.000      0.000
REMARK  3 active torsions:
REMARK  status: ('A' for Active; 'I' for Inactive)
REMARK    1  A    between atoms: C_2  and  C_3 
REMARK    2  A    between atoms: C_7  and  N_8 
REMARK       I    between atoms: N_8  and  C_9 
REMARK    3  A    between atoms: C_9  and  C_10 
ROOT
HETATM    1  N   UNL     1      41.881 -15.476  -0.345  1.00  0.00    -0.309 N 
HETATM    2  C   UNL     1      41.819 -16.436   0.641  1.00  0.00     0.234 C 
HETATM    3  O   UNL     1      40.909 -17.239   0.812  1.00  0.00    -0.272 OA
HETATM    4  H   UNL     1      42.582 -14.749  -0.297  1.00  0.00     0.170 HD
ENDROOT
BRANCH   2   5
HETATM    5  C   UNL     1      43.035 -16.392   1.550  1.00  0.00     0.138 C 
HETATM    6  C   UNL     1      43.377 -17.694   2.191  1.00  0.00    -0.008 A 
HETATM    7  C   UNL     1      43.663 -17.474   3.531  1.00  0.00     0.076 A 
HETATM    8  C   UNL     1      43.500 -18.964   1.646  1.00  0.00     0.030 A 
HETATM    9  C   UNL     1      44.078 -18.486   4.373  1.00  0.00     0.039 A 
HETATM   10  O   UNL     1      43.516 -16.170   3.922  1.00  0.00    -0.349 OA
HETATM   11  C   UNL     1      44.193 -19.772   3.843  1.00  0.00     0.022 A 
HETATM   12  C   UNL     1      43.903 -20.004   2.490  1.00  0.00     0.011 A 
HETATM   13 BR   UNL     1      44.072 -21.754   1.791  1.00  0.00    -0.051 Br
HETATM   14  C   UNL     1      42.793 -15.566   2.822  1.00  0.00     0.194 C 
ENDBRANCH   2   5
BRANCH   1  15
HETATM   15  C   UNL     1      40.960 -15.208  -1.329  1.00  0.00     0.158 A 
HETATM   16  N   UNL     1      41.181 -15.808  -2.503  1.00  0.00    -0.156 NA
HETATM   17  N   UNL     1      40.213 -15.350  -3.301  1.00  0.00    -0.280 N 
HETATM   18  C   UNL     1      39.338 -14.511  -2.677  1.00  0.00     0.037 A 
HETATM   19  H   UNL     1      40.202 -15.656  -4.269  1.00  0.00     0.189 HD
HETATM   20  C   UNL     1      39.773 -14.419  -1.362  1.00  0.00     0.010 A 
HETATM   21  C   UNL     1      39.099 -13.671  -0.273  1.00  0.00     0.054 C 
BRANCH  18  22
HETATM   22  C   UNL     1      38.187 -13.898  -3.397  1.00  0.00     0.055 C 
HETATM   23  C   UNL     1      37.174 -14.943  -3.837  1.00  0.00     0.011 C 
ENDBRANCH  18  22
ENDBRANCH   1  15
TORSDOF 3
ENDMDL
MODEL 2
REMARK VINA RESULT:      -7.8      1.407      1.913
REMARK  3 active torsions:
REMARK  status: ('A' for Active; 'I' for Inactive)
REMARK    1  A    between atoms: C_2  and  C_3 
REMARK    2  A    between atoms: C_7  and  N_8 
REMARK       I    between atoms: N_8  and  C_9 
REMARK    3  A    between atoms: C_9  and  C_10 
ROOT
HETATM    1  N   UNL     1      42.184 -15.756   1.605  1.00  0.00    -0.309 N 
HETATM    2  C   UNL     1      42.026 -16.574   2.701  1.00  0.00     0.234 C 
HETATM    3  O   UNL     1      40.974 -17.070   3.089  1.00  0.00    -0.272 OA
HETATM    4  H   UNL     1      43.052 -15.256   1.471  1.00  0.00     0.170 HD
ENDROOT
BRANCH   2   5
HETATM    5  C   UNL     1      43.339 -16.802   3.431  1.00  0.00     0.138 C 
HETATM    6  C   UNL     1      43.740 -18.233   3.554  1.00  0.00    -0.008 A 
HETATM    7  C   UNL     1      44.180 -18.466   4.850  1.00  0.00     0.076 A 
HETATM    8  C   UNL     1      43.787 -19.242   2.604  1.00  0.00     0.030 A 
HETATM    9  C   UNL     1      44.679 -19.690   5.251  1.00  0.00     0.039 A 
HETATM   10  O   UNL     1      44.092 -17.374   5.670  1.00  0.00    -0.349 OA
HETATM   11  C   UNL     1      44.720 -20.719   4.310  1.00  0.00     0.022 A 
HETATM   12  C   UNL     1      44.275 -20.492   2.998  1.00  0.00     0.011 A 
HETATM   13 BR   UNL     1      44.345 -21.901   1.737  1.00  0.00    -0.051 Br
HETATM   14  C   UNL     1      43.253 -16.457   4.925  1.00  0.00     0.194 C 
ENDBRANCH   2   5
BRANCH   1  15
HETATM   15  C   UNL     1      41.223 -15.321   0.725  1.00  0.00     0.158 A 
HETATM   16  N   UNL     1      41.347 -15.767  -0.529  1.00  0.00    -0.156 NA
HETATM   17  N   UNL     1      40.358 -15.167  -1.198  1.00  0.00    -0.280 N 
HETATM   18  C   UNL     1      39.564 -14.383  -0.415  1.00  0.00     0.037 A 
HETATM   19  H   UNL     1      40.276 -15.340  -2.195  1.00  0.00     0.189 HD
HETATM   20  C   UNL     1      40.077 -14.485   0.870  1.00  0.00     0.010 A 
HETATM   21  C   UNL     1      39.504 -13.862   2.089  1.00  0.00     0.054 C 
BRANCH  18  22
HETATM   22  C   UNL     1      38.405 -13.631  -0.975  1.00  0.00     0.055 C 
HETATM   23  C   UNL     1      37.987 -14.168  -2.334  1.00  0.00     0.011 C 
ENDBRANCH  18  22
ENDBRANCH   1  15
TORSDOF 3
ENDMDL
MODEL 3
REMARK VINA RESULT:      -7.5      2.817      3.651
REMARK  3 active torsions:
REMARK  status: ('A' for Active; 'I' for Inactive)
REMARK    1  A    between atoms: C_2  and  C_3 
REMARK    2  A    between atoms: C_7  and  N_8 
REMARK       I    between atoms: N_8  and  C_9 
REMARK    3  A    between atoms: C_9  and  C_10 
ROOT
HETATM    1  N   UNL     1      41.928 -16.974   1.205  1.00  0.00    -0.309 N 
HETATM    2  C   UNL     1      43.109 -17.631   1.467  1.00  0.00     0.234 C 
HETATM    3  O   UNL     1      44.199 -17.389   0.960  1.00  0.00    -0.272 OA
HETATM    4  H   UNL     1      41.053 -17.359   1.536  1.00  0.00     0.170 HD
ENDROOT
BRANCH   2   5
HETATM    5  C   UNL     1      42.922 -18.750   2.478  1.00  0.00     0.138 C 
HETATM    6  C   UNL     1      43.520 -18.482   3.817  1.00  0.00    -0.008 A 
HETATM    7  C   UNL     1      44.194 -19.617   4.244  1.00  0.00     0.076 A 
HETATM    8  C   UNL     1      43.432 -17.367   4.638  1.00  0.00     0.030 A 
HETATM    9  C   UNL     1      44.798 -19.695   5.483  1.00  0.00     0.039 A 
HETATM   10  O   UNL     1      44.181 -20.643   3.337  1.00  0.00    -0.349 OA
HETATM   11  C   UNL     1      44.730 -18.576   6.315  1.00  0.00     0.022 A 
HETATM   12  C   UNL     1      44.053 -17.423   5.890  1.00  0.00     0.011 A 
HETATM   13 BR   UNL     1      43.968 -15.920   7.036  1.00  0.00    -0.051 Br
HETATM   14  C   UNL     1      43.721 -20.011   2.117  1.00  0.00     0.194 C 
ENDBRANCH   2   5
BRANCH   1  15
HETATM   15  C   UNL     1      41.710 -15.930   0.340  1.00  0.00     0.158 A 
HETATM   16  N   UNL     1      41.346 -16.275  -0.899  1.00  0.00    -0.156 NA
HETATM   17  N   UNL     1      41.260 -15.116  -1.559  1.00  0.00    -0.280 N 
HETATM   18  C   UNL     1      41.506 -14.024  -0.782  1.00  0.00     0.037 A 
HETATM   19  H   UNL     1      41.021 -15.140  -2.545  1.00  0.00     0.189 HD
HETATM   20  C   UNL     1      41.771 -14.513   0.489  1.00  0.00     0.010 A 
HETATM   21  C   UNL     1      42.028 -13.696   1.701  1.00  0.00     0.054 C 
BRANCH  18  22
HETATM   22  C   UNL     1      41.455 -12.640  -1.333  1.00  0.00     0.055 C 
HETATM   23  C   UNL     1      42.846 -12.082  -1.588  1.00  0.00     0.011 C 
ENDBRANCH  18  22
ENDBRANCH   1  15
TORSDOF 3
ENDMDL
MODEL 4
REMARK VINA RESULT:      -7.3      3.084      4.013
REMARK  3 active torsions:
REMARK  status: ('A' for Active; 'I' for Inactive)
REMARK    1  A    between atoms: C_2  and  C_3 
REMARK    2  A    between atoms: C_7  and  N_8 
REMARK       I    between atoms: N_8  and  C_9 
REMARK    3  A    between atoms: C_9  and  C_10 
ROOT
HETATM    1  N   UNL     1      42.685 -16.122   3.748  1.00  0.00    -0.309 N 
HETATM    2  C   UNL     1      42.370 -17.229   4.503  1.00  0.00     0.234 C 
HETATM    3  O   UNL     1      41.247 -17.690   4.677  1.00  0.00    -0.272 OA
HETATM    4  H   UNL     1      43.610 -15.717   3.809  1.00  0.00     0.170 HD
ENDROOT
BRANCH   2   5
HETATM    5  C   UNL     1      43.601 -17.847   5.144  1.00  0.00     0.138 C 
HETATM    6  C   UNL     1      43.908 -19.233   4.689  1.00  0.00    -0.008 A 
HETATM    7  C   UNL     1      44.223 -20.010   5.795  1.00  0.00     0.076 A 
HETATM    8  C   UNL     1      43.978 -19.770   3.412  1.00  0.00     0.030 A 
HETATM    9  C   UNL     1      44.616 -21.328   5.684  1.00  0.00     0.039 A 
HETATM   10  O   UNL     1      44.128 -19.341   6.987  1.00  0.00    -0.349 OA
HETATM   11  C   UNL     1      44.678 -21.886   4.407  1.00  0.00     0.022 A 
HETATM   12  C   UNL     1      44.358 -21.109   3.283  1.00  0.00     0.011 A 
HETATM   13 BR   UNL     1      44.455 -21.885   1.560  1.00  0.00    -0.051 Br
HETATM   14  C   UNL     1      43.409 -18.132   6.640  1.00  0.00     0.194 C 
ENDBRANCH   2   5
BRANCH   1  15
HETATM   15  C   UNL     1      41.836 -15.304   3.043  1.00  0.00     0.158 A 
HETATM   16  N   UNL     1      41.663 -14.079   3.549  1.00  0.00    -0.156 NA
HETATM   17  N   UNL     1      40.763 -13.507   2.744  1.00  0.00    -0.280 N 
HETATM   18  C   UNL     1      40.379 -14.297   1.702  1.00  0.00     0.037 A 
HETATM   19  H   UNL     1      40.454 -12.564   2.961  1.00  0.00     0.189 HD
HETATM   20  C   UNL     1      41.092 -15.480   1.839  1.00  0.00     0.010 A 
HETATM   21  C   UNL     1      41.064 -16.627   0.899  1.00  0.00     0.054 C 
BRANCH  18  22
HETATM   22  C   UNL     1      39.385 -13.837   0.692  1.00  0.00     0.055 C 
HETATM   23  C   UNL     1      37.976 -14.292   1.038  1.00  0.00     0.011 C 
ENDBRANCH  18  22
ENDBRANCH   1  15
TORSDOF 3
ENDMDL
MODEL 5
REMARK VINA RESULT:      -7.2      5.035      7.376
REMARK  3 active torsions:
REMARK  status: ('A' for Active; 'I' for Inactive)
REMARK    1  A    between atoms: C_2  and  C_3 
REMARK    2  A    between atoms: C_7  and  N_8 
REMARK       I    between atoms: N_8  and  C_9 
REMARK    3  A    between atoms: C_9  and  C_10 
ROOT
HETATM    1  N   UNL     1      43.230 -17.421   4.996  1.00  0.00    -0.309 N 
HETATM    2  C   UNL     1      41.935 -17.116   5.350  1.00  0.00     0.234 C 
HETATM    3  O   UNL     1      40.961 -17.851   5.236  1.00  0.00    -0.272 OA
HETATM    4  H   UNL     1      43.929 -16.691   4.963  1.00  0.00     0.170 HD
ENDROOT
BRANCH   2   5
HETATM    5  C   UNL     1      41.818 -15.707   5.907  1.00  0.00     0.138 C 
HETATM    6  C   UNL     1      41.448 -14.671   4.900  1.00  0.00    -0.008 A 
HETATM    7  C   UNL     1      42.256 -13.557   5.083  1.00  0.00     0.076 A 
HETATM    8  C   UNL     1      40.445 -14.661   3.941  1.00  0.00     0.030 A 
HETATM    9  C   UNL     1      42.104 -12.405   4.338  1.00  0.00     0.039 A 
HETATM   10  O   UNL     1      43.187 -13.706   6.076  1.00  0.00    -0.349 OA
HETATM   11  C   UNL     1      41.109 -12.385   3.360  1.00  0.00     0.022 A 
HETATM   12  C   UNL     1      40.290 -13.508   3.166  1.00  0.00     0.011 A 
HETATM   13 BR   UNL     1      38.942 -13.455   1.839  1.00  0.00    -0.051 Br
HETATM   14  C   UNL     1      43.171 -15.130   6.345  1.00  0.00     0.194 C 
ENDBRANCH   2   5
BRANCH   1  15
HETATM   15  C   UNL     1      43.709 -18.586   4.447  1.00  0.00     0.158 A 
HETATM   16  N   UNL     1      44.189 -19.478   5.319  1.00  0.00    -0.156 NA
HETATM   17  N   UNL     1      44.648 -20.476   4.558  1.00  0.00    -0.280 N 
HETATM   18  C   UNL     1      44.439 -20.290   3.224  1.00  0.00     0.037 A 
HETATM   19  H   UNL     1      45.092 -21.266   5.017  1.00  0.00     0.189 HD
HETATM   20  C   UNL     1      43.787 -19.070   3.109  1.00  0.00     0.010 A 
HETATM   21  C   UNL     1      43.285 -18.467   1.849  1.00  0.00     0.054 C 
BRANCH  18  22
HETATM   22  C   UNL     1      44.876 -21.293   2.213  1.00  0.00     0.055 C 
HETATM   23  C   UNL     1      43.693 -21.957   1.527  1.00  0.00     0.011 C 
ENDBRANCH  18  22
ENDBRANCH   1  15
TORSDOF 3
ENDMDL
MODEL 6
REMARK VINA RESULT:      -7.2      3.442      7.316
REMARK  3 active torsions:
REMARK  status: ('A' for Active; 'I' for Inactive)
REMARK    1  A    between atoms: C_2  and  C_3 
REMARK    2  A    between atoms: C_7  and  N_8 
REMARK       I    between atoms: N_8  and  C_9 
REMARK    3  A    between atoms: C_9  and  C_10 
ROOT
HETATM    1  N   UNL     1      42.789 -16.169   3.275  1.00  0.00    -0.309 N 
HETATM    2  C   UNL     1      41.516 -16.045   2.764  1.00  0.00     0.234 C 
HETATM    3  O   UNL     1      40.693 -16.946   2.645  1.00  0.00    -0.272 OA
HETATM    4  H   UNL     1      43.451 -15.413   3.168  1.00  0.00     0.170 HD
ENDROOT
BRANCH   2   5
HETATM    5  C   UNL     1      41.220 -14.621   2.322  1.00  0.00     0.138 C 
HETATM    6  C   UNL     1      41.362 -14.385   0.856  1.00  0.00    -0.008 A 
HETATM    7  C   UNL     1      42.050 -13.196   0.658  1.00  0.00     0.076 A 
HETATM    8  C   UNL     1      40.876 -15.104  -0.225  1.00  0.00     0.030 A 
HETATM    9  C   UNL     1      42.279 -12.677  -0.601  1.00  0.00     0.039 A 
HETATM   10  O   UNL     1      42.452 -12.588   1.817  1.00  0.00    -0.349 OA
HETATM   11  C   UNL     1      41.808 -13.396  -1.700  1.00  0.00     0.022 A 
HETATM   12  C   UNL     1      41.114 -14.600  -1.508  1.00  0.00     0.011 A 
HETATM   13 BR   UNL     1      40.479 -15.555  -3.013  1.00  0.00    -0.051 Br
HETATM   14  C   UNL     1      42.270 -13.618   2.820  1.00  0.00     0.194 C 
ENDBRANCH   2   5
BRANCH   1  15
HETATM   15  C   UNL     1      43.406 -17.300   3.752  1.00  0.00     0.158 A 
HETATM   16  N   UNL     1      43.763 -17.261   5.040  1.00  0.00    -0.156 NA
HETATM   17  N   UNL     1      44.391 -18.422   5.249  1.00  0.00    -0.280 N 
HETATM   18  C   UNL     1      44.413 -19.238   4.157  1.00  0.00     0.037 A 
HETATM   19  H   UNL     1      44.780 -18.600   6.170  1.00  0.00     0.189 HD
HETATM   20  C   UNL     1      43.741 -18.551   3.156  1.00  0.00     0.010 A 
HETATM   21  C   UNL     1      43.445 -19.064   1.796  1.00  0.00     0.054 C 
BRANCH  18  22
HETATM   22  C   UNL     1      45.065 -20.577   4.190  1.00  0.00     0.055 C 
HETATM   23  C   UNL     1      44.652 -21.377   5.415  1.00  0.00     0.011 C 
ENDBRANCH  18  22
ENDBRANCH   1  15
TORSDOF 3
ENDMDL
MODEL 7
REMARK VINA RESULT:      -7.1      3.143      4.042
REMARK  3 active torsions:
REMARK  status: ('A' for Active; 'I' for Inactive)
REMARK    1  A    between atoms: C_2  and  C_3 
REMARK    2  A    between atoms: C_7  and  N_8 
REMARK       I    between atoms: N_8  and  C_9 
REMARK    3  A    between atoms: C_9  and  C_10 
ROOT
HETATM    1  N   UNL     1      42.242 -16.644   1.900  1.00  0.00    -0.309 N 
HETATM    2  C   UNL     1      43.336 -17.477   1.830  1.00  0.00     0.234 C 
HETATM    3  O   UNL     1      44.404 -17.224   1.286  1.00  0.00    -0.272 OA
HETATM    4  H   UNL     1      41.351 -17.007   2.212  1.00  0.00     0.170 HD
ENDROOT
BRANCH   2   5
HETATM    5  C   UNL     1      43.075 -18.812   2.509  1.00  0.00     0.138 C 
HETATM    6  C   UNL     1      43.434 -18.851   3.956  1.00  0.00    -0.008 A 
HETATM    7  C   UNL     1      44.114 -20.032   4.218  1.00  0.00     0.076 A 
HETATM    8  C   UNL     1      43.137 -17.969   4.984  1.00  0.00     0.030 A 
HETATM    9  C   UNL     1      44.520 -20.383   5.490  1.00  0.00     0.039 A 
HETATM   10  O   UNL     1      44.319 -20.811   3.111  1.00  0.00    -0.349 OA
HETATM   11  C   UNL     1      44.240 -19.499   6.533  1.00  0.00     0.022 A 
HETATM   12  C   UNL     1      43.556 -18.302   6.276  1.00  0.00     0.011 A 
HETATM   13 BR   UNL     1      43.181 -17.121   7.707  1.00  0.00    -0.051 Br
HETATM   14  C   UNL     1      44.011 -19.921   2.009  1.00  0.00     0.194 C 
ENDBRANCH   2   5
BRANCH   1  15
HETATM   15  C   UNL     1      42.104 -15.377   1.387  1.00  0.00     0.158 A 
HETATM   16  N   UNL     1      42.495 -14.384   2.191  1.00  0.00    -0.156 NA
HETATM   17  N   UNL     1      42.207 -13.270   1.513  1.00  0.00    -0.280 N 
HETATM   18  C   UNL     1      41.689 -13.501   0.273  1.00  0.00     0.037 A 
HETATM   19  H   UNL     1      42.397 -12.375   1.954  1.00  0.00     0.189 HD
HETATM   20  C   UNL     1      41.638 -14.880   0.134  1.00  0.00     0.010 A 
HETATM   21  C   UNL     1      41.209 -15.617  -1.080  1.00  0.00     0.054 C 
BRANCH  18  22
HETATM   22  C   UNL     1      41.307 -12.386  -0.639  1.00  0.00     0.055 C 
HETATM   23  C   UNL     1      42.457 -11.975  -1.543  1.00  0.00     0.011 C 
ENDBRANCH  18  22
ENDBRANCH   1  15
TORSDOF 3
ENDMDL
MODEL 8
REMARK VINA RESULT:      -7.1      4.166      7.292
REMARK  3 active torsions:
REMARK  status: ('A' for Active; 'I' for Inactive)
REMARK    1  A    between atoms: C_2  and  C_3 
REMARK    2  A    between atoms: C_7  and  N_8 
REMARK       I    between atoms: N_8  and  C_9 
REMARK    3  A    between atoms: C_9  and  C_10 
ROOT
HETATM    1  N   UNL     1      41.993 -16.728   3.912  1.00  0.00    -0.309 N 
HETATM    2  C   UNL     1      42.407 -15.415   3.901  1.00  0.00     0.234 C 
HETATM    3  O   UNL     1      43.435 -14.985   3.391  1.00  0.00    -0.272 OA
HETATM    4  H   UNL     1      41.226 -17.010   4.508  1.00  0.00     0.170 HD
ENDROOT
BRANCH   2   5
HETATM    5  C   UNL     1      41.432 -14.508   4.633  1.00  0.00     0.138 C 
HETATM    6  C   UNL     1      40.466 -13.795   3.748  1.00  0.00    -0.008 A 
HETATM    7  C   UNL     1      40.384 -12.469   4.150  1.00  0.00     0.076 A 
HETATM    8  C   UNL     1      39.666 -14.267   2.719  1.00  0.00     0.030 A 
HETATM    9  C   UNL     1      39.518 -11.571   3.558  1.00  0.00     0.039 A 
HETATM   10  O   UNL     1      41.218 -12.152   5.188  1.00  0.00    -0.349 OA
HETATM   11  C   UNL     1      38.717 -12.028   2.512  1.00  0.00     0.022 A 
HETATM   12  C   UNL     1      38.795 -13.366   2.098  1.00  0.00     0.011 A 
HETATM   13 BR   UNL     1      37.695 -13.966   0.680  1.00  0.00    -0.051 Br
HETATM   14  C   UNL     1      42.118 -13.285   5.259  1.00  0.00     0.194 C 
ENDBRANCH   2   5
BRANCH   1  15
HETATM   15  C   UNL     1      42.622 -17.822   3.370  1.00  0.00     0.158 A 
HETATM   16  N   UNL     1      42.203 -18.183   2.153  1.00  0.00    -0.156 NA
HETATM   17  N   UNL     1      42.901 -19.288   1.872  1.00  0.00    -0.280 N 
HETATM   18  C   UNL     1      43.796 -19.632   2.841  1.00  0.00     0.037 A 
HETATM   19  H   UNL     1      42.721 -19.760   0.991  1.00  0.00     0.189 HD
HETATM   20  C   UNL     1      43.672 -18.669   3.832  1.00  0.00     0.010 A 
HETATM   21  C   UNL     1      44.493 -18.578   5.065  1.00  0.00     0.054 C 
BRANCH  18  22
HETATM   22  C   UNL     1      44.671 -20.831   2.712  1.00  0.00     0.055 C 
HETATM   23  C   UNL     1      44.079 -21.863   1.766  1.00  0.00     0.011 C 
ENDBRANCH  18  22
ENDBRANCH   1  15
TORSDOF 3
ENDMDL
MODEL 9
REMARK VINA RESULT:      -6.9      3.661      4.290
REMARK  3 active torsions:
REMARK  status: ('A' for Active; 'I' for Inactive)
REMARK    1  A    between atoms: C_2  and  C_3 
REMARK    2  A    between atoms: C_7  and  N_8 
REMARK       I    between atoms: N_8  and  C_9 
REMARK    3  A    between atoms: C_9  and  C_10 
ROOT
HETATM    1  N   UNL     1      40.905 -16.585   2.632  1.00  0.00    -0.309 N 
HETATM    2  C   UNL     1      42.092 -17.039   2.104  1.00  0.00     0.234 C 
HETATM    3  O   UNL     1      42.815 -16.433   1.320  1.00  0.00    -0.272 OA
HETATM    4  H   UNL     1      40.296 -17.223   3.126  1.00  0.00     0.170 HD
ENDROOT
BRANCH   2   5
HETATM    5  C   UNL     1      42.431 -18.438   2.593  1.00  0.00     0.138 C 
HETATM    6  C   UNL     1      43.111 -18.483   3.918  1.00  0.00    -0.008 A 
HETATM    7  C   UNL     1      44.169 -19.379   3.850  1.00  0.00     0.076 A 
HETATM    8  C   UNL     1      42.802 -17.852   5.114  1.00  0.00     0.030 A 
HETATM    9  C   UNL     1      44.951 -19.683   4.946  1.00  0.00     0.039 A 
HETATM   10  O   UNL     1      44.343 -19.937   2.611  1.00  0.00    -0.349 OA
HETATM   11  C   UNL     1      44.660 -19.046   6.153  1.00  0.00     0.022 A 
HETATM   12  C   UNL     1      43.594 -18.138   6.231  1.00  0.00     0.011 A 
HETATM   13 BR   UNL     1      43.214 -17.291   7.880  1.00  0.00    -0.051 Br
HETATM   14  C   UNL     1      43.523 -19.111   1.749  1.00  0.00     0.194 C 
ENDBRANCH   2   5
BRANCH   1  15
HETATM   15  C   UNL     1      40.278 -15.383   2.405  1.00  0.00     0.158 A 
HETATM   16  N   UNL     1      39.055 -15.464   1.872  1.00  0.00    -0.156 NA
HETATM   17  N   UNL     1      38.686 -14.194   1.686  1.00  0.00    -0.280 N 
HETATM   18  C   UNL     1      39.604 -13.286   2.124  1.00  0.00     0.037 A 
HETATM   19  H   UNL     1      37.784 -14.012   1.256  1.00  0.00     0.189 HD
HETATM   20  C   UNL     1      40.655 -14.029   2.641  1.00  0.00     0.010 A 
HETATM   21  C   UNL     1      41.866 -13.481   3.302  1.00  0.00     0.054 C 
BRANCH  18  22
HETATM   22  C   UNL     1      39.375 -11.818   2.007  1.00  0.00     0.055 C 
HETATM   23  C   UNL     1      38.432 -11.306   3.083  1.00  0.00     0.011 C 
ENDBRANCH  18  22
ENDBRANCH   1  15
TORSDOF 3
ENDMDL
MODEL 10
REMARK VINA RESULT:      -6.7      4.840      5.678
REMARK  3 active torsions:
REMARK  status: ('A' for Active; 'I' for Inactive)
REMARK    1  A    between atoms: C_2  and  C_3 
REMARK    2  A    between atoms: C_7  and  N_8 
REMARK       I    between atoms: N_8  and  C_9 
REMARK    3  A    between atoms: C_9  and  C_10 
ROOT
HETATM    1  N   UNL     1      42.358 -14.639   5.661  1.00  0.00    -0.309 N 
HETATM    2  C   UNL     1      42.051 -15.849   6.241  1.00  0.00     0.234 C 
HETATM    3  O   UNL     1      40.925 -16.289   6.445  1.00  0.00    -0.272 OA
HETATM    4  H   UNL     1      43.306 -14.288   5.698  1.00  0.00     0.170 HD
ENDROOT
BRANCH   2   5
HETATM    5  C   UNL     1      43.299 -16.618   6.641  1.00  0.00     0.138 C 
HETATM    6  C   UNL     1      43.562 -17.840   5.828  1.00  0.00    -0.008 A 
HETATM    7  C   UNL     1      43.912 -18.879   6.679  1.00  0.00     0.076 A 
HETATM    8  C   UNL     1      43.566 -18.026   4.454  1.00  0.00     0.030 A 
HETATM    9  C   UNL     1      44.277 -20.125   6.211  1.00  0.00     0.039 A 
HETATM   10  O   UNL     1      43.881 -18.543   8.006  1.00  0.00    -0.349 OA
HETATM   11  C   UNL     1      44.273 -20.332   4.831  1.00  0.00     0.022 A 
HETATM   12  C   UNL     1      43.917 -19.288   3.963  1.00  0.00     0.011 A 
HETATM   13 BR   UNL     1      43.924 -19.589   2.095  1.00  0.00    -0.051 Br
HETATM   14  C   UNL     1      43.168 -17.282   8.019  1.00  0.00     0.194 C 
ENDBRANCH   2   5
BRANCH   1  15
HETATM   15  C   UNL     1      41.496 -13.677   5.194  1.00  0.00     0.158 A 
HETATM   16  N   UNL     1      41.622 -12.470   5.755  1.00  0.00    -0.156 NA
HETATM   17  N   UNL     1      40.653 -11.738   5.198  1.00  0.00    -0.280 N 
HETATM   18  C   UNL     1      39.930 -12.410   4.257  1.00  0.00     0.037 A 
HETATM   19  H   UNL     1      40.540 -10.776   5.502  1.00  0.00     0.189 HD
HETATM   20  C   UNL     1      40.478 -13.684   4.196  1.00  0.00     0.010 A 
HETATM   21  C   UNL     1      40.070 -14.763   3.263  1.00  0.00     0.054 C 
BRANCH  18  22
HETATM   22  C   UNL     1      38.806 -11.765   3.521  1.00  0.00     0.055 C 
HETATM   23  C   UNL     1      38.367 -10.469   4.182  1.00  0.00     0.011 C 
ENDBRANCH  18  22
ENDBRANCH   1  15
TORSDOF 3
ENDMDL
