MODEL 1
REMARK VINA RESULT:      -8.5      0.000      0.000
REMARK  3 active torsions:
REMARK  status: ('A' for Active; 'I' for Inactive)
REMARK    1  A    between atoms: C_5  and  N_6 
REMARK       I    between atoms: N_6  and  C_7 
REMARK    2  A    between atoms: C_7  and  C_8 
REMARK    3  A    between atoms: C_9  and  C_10 
ROOT
HETATM    1  C   UNL     1      40.948 -15.105   3.334  1.00  0.00     0.062 C 
HETATM    2  C   UNL     1      40.708 -14.852   4.830  1.00  0.00     0.199 C 
HETATM    3  N   UNL     1      40.048 -13.565   5.028  1.00  0.00    -0.092 N 
HETATM    4  C   UNL     1      39.966 -12.586   4.079  1.00  0.00     0.735 A 
HETATM    5  N   UNL     1      40.481 -12.820   2.855  1.00  0.00    -0.191 N 
HETATM    6  N   UNL     1      39.414 -13.186   6.147  1.00  0.00     0.012 NA
HETATM    7  N   UNL     1      38.997 -11.951   5.887  1.00  0.00     0.033 NA
HETATM    8  N   UNL     1      39.334 -11.564   4.602  1.00  0.00     0.030 NA
HETATM    9  C   UNL     1      40.900 -14.083   2.439  1.00  0.00     0.037 C 
HETATM   10  C   UNL     1      41.305 -14.181   0.989  1.00  0.00     0.070 C 
HETATM   11  H   UNL     1      40.388 -12.097   2.143  1.00  0.00     0.184 HD
ENDROOT
BRANCH   1  12
HETATM   12  C   UNL     1      41.217 -16.541   3.011  1.00  0.00     0.256 C 
HETATM   13  N   UNL     1      42.519 -16.938   3.230  1.00  0.00    -0.323 N 
HETATM   14  H   UNL     1      43.164 -16.257   3.608  1.00  0.00     0.169 HD
HETATM   15  O   UNL     1      40.329 -17.215   2.506  1.00  0.00    -0.267 OA
BRANCH  13  16
HETATM   16  C   UNL     1      43.063 -18.225   3.014  1.00  0.00     0.035 A 
HETATM   17  C   UNL     1      42.876 -18.966   1.847  1.00  0.00     0.030 A 
HETATM   18  C   UNL     1      43.442 -20.239   1.714  1.00  0.00     0.009 A 
HETATM   19  C   UNL     1      44.200 -20.795   2.747  1.00  0.00    -0.062 A 
HETATM   20  C   UNL     1      44.759 -22.180   2.609  1.00  0.00     0.048 C 
HETATM   21  C   UNL     1      44.380 -20.059   3.922  1.00  0.00     0.009 A 
HETATM   22  C   UNL     1      43.828 -18.780   4.047  1.00  0.00     0.030 A 
ENDBRANCH  13  16
ENDBRANCH   1  12
BRANCH   2  23
HETATM   23  C   UNL     1      41.986 -14.893   5.655  1.00  0.00    -0.011 A 
HETATM   24  C   UNL     1      42.940 -13.875   5.594  1.00  0.00     0.125 A 
HETATM   25  N   UNL     1      44.104 -13.878   6.280  1.00  0.00    -0.272 NA
HETATM   26  C   UNL     1      44.341 -14.947   7.070  1.00  0.00     0.116 A 
HETATM   27  C   UNL     1      43.464 -16.009   7.209  1.00  0.00     0.020 A 
HETATM   28  C   UNL     1      42.271 -15.978   6.492  1.00  0.00     0.012 A 
ENDBRANCH   2  23
TORSDOF 3
ENDMDL
MODEL 2
REMARK VINA RESULT:      -8.3      1.782      3.664
REMARK  3 active torsions:
REMARK  status: ('A' for Active; 'I' for Inactive)
REMARK    1  A    between atoms: C_5  and  N_6 
REMARK       I    between atoms: N_6  and  C_7 
REMARK    2  A    between atoms: C_7  and  C_8 
REMARK    3  A    between atoms: C_9  and  C_10 
ROOT
HETATM    1  C   UNL     1      41.509 -15.121   4.680  1.00  0.00     0.062 C 
HETATM    2  C   UNL     1      41.387 -13.785   3.931  1.00  0.00     0.199 C 
HETATM    3  N   UNL     1      40.772 -12.776   4.788  1.00  0.00    -0.092 N 
HETATM    4  C   UNL     1      40.097 -13.054   5.943  1.00  0.00     0.735 A 
HETATM    5  N   UNL     1      40.021 -14.333   6.364  1.00  0.00    -0.191 N 
HETATM    6  N   UNL     1      40.811 -11.453   4.575  1.00  0.00     0.012 NA
HETATM    7  N   UNL     1      40.108 -10.937   5.579  1.00  0.00     0.033 NA
HETATM    8  N   UNL     1      39.657 -11.923   6.439  1.00  0.00     0.030 NA
HETATM    9  C   UNL     1      40.776 -15.360   5.800  1.00  0.00     0.037 C 
HETATM   10  C   UNL     1      40.673 -16.693   6.499  1.00  0.00     0.070 C 
HETATM   11  H   UNL     1      39.543 -14.527   7.242  1.00  0.00     0.184 HD
ENDROOT
BRANCH   1  12
HETATM   12  C   UNL     1      42.488 -16.064   4.056  1.00  0.00     0.256 C 
HETATM   13  N   UNL     1      42.052 -17.370   3.984  1.00  0.00    -0.323 N 
HETATM   14  H   UNL     1      41.122 -17.577   4.322  1.00  0.00     0.169 HD
HETATM   15  O   UNL     1      43.599 -15.654   3.749  1.00  0.00    -0.267 OA
BRANCH  13  16
HETATM   16  C   UNL     1      42.757 -18.474   3.452  1.00  0.00     0.035 A 
HETATM   17  C   UNL     1      42.589 -18.956   2.154  1.00  0.00     0.030 A 
HETATM   18  C   UNL     1      43.319 -20.062   1.706  1.00  0.00     0.009 A 
HETATM   19  C   UNL     1      44.227 -20.709   2.548  1.00  0.00    -0.062 A 
HETATM   20  C   UNL     1      44.966 -21.922   2.068  1.00  0.00     0.048 C 
HETATM   21  C   UNL     1      44.389 -20.234   3.853  1.00  0.00     0.009 A 
HETATM   22  C   UNL     1      43.670 -19.119   4.295  1.00  0.00     0.030 A 
ENDBRANCH  13  16
ENDBRANCH   1  12
BRANCH   2  23
HETATM   23  C   UNL     1      40.594 -13.897   2.638  1.00  0.00    -0.011 A 
HETATM   24  C   UNL     1      41.045 -13.338   1.441  1.00  0.00     0.125 A 
HETATM   25  N   UNL     1      40.365 -13.381   0.273  1.00  0.00    -0.272 NA
HETATM   26  C   UNL     1      39.172 -14.011   0.289  1.00  0.00     0.116 A 
HETATM   27  C   UNL     1      38.631 -14.604   1.416  1.00  0.00     0.020 A 
HETATM   28  C   UNL     1      39.354 -14.547   2.605  1.00  0.00     0.012 A 
ENDBRANCH   2  23
TORSDOF 3
ENDMDL
MODEL 3
REMARK VINA RESULT:      -8.1      3.777      6.551
REMARK  3 active torsions:
REMARK  status: ('A' for Active; 'I' for Inactive)
REMARK    1  A    between atoms: C_5  and  N_6 
REMARK       I    between atoms: N_6  and  C_7 
REMARK    2  A    between atoms: C_7  and  C_8 
REMARK    3  A    between atoms: C_9  and  C_10 
ROOT
HETATM    1  C   UNL     1      41.273 -13.772   0.023  1.00  0.00     0.062 C 
HETATM    2  C   UNL     1      41.599 -13.864  -1.475  1.00  0.00     0.199 C 
HETATM    3  N   UNL     1      41.863 -12.536  -2.021  1.00  0.00    -0.092 N 
HETATM    4  C   UNL     1      41.537 -11.367  -1.395  1.00  0.00     0.735 A 
HETATM    5  N   UNL     1      40.976 -11.417  -0.169  1.00  0.00    -0.191 N 
HETATM    6  N   UNL     1      42.480 -12.288  -3.185  1.00  0.00     0.012 NA
HETATM    7  N   UNL     1      42.476 -10.962  -3.284  1.00  0.00     0.033 NA
HETATM    8  N   UNL     1      41.890 -10.375  -2.175  1.00  0.00     0.030 NA
HETATM    9  C   UNL     1      40.908 -12.588   0.584  1.00  0.00     0.037 C 
HETATM   10  C   UNL     1      40.386 -12.420   1.989  1.00  0.00     0.070 C 
HETATM   11  H   UNL     1      40.765 -10.540   0.303  1.00  0.00     0.184 HD
ENDROOT
BRANCH   1  12
HETATM   12  C   UNL     1      41.411 -15.076   0.742  1.00  0.00     0.256 C 
HETATM   13  N   UNL     1      42.714 -15.458   0.982  1.00  0.00    -0.323 N 
HETATM   14  H   UNL     1      43.452 -14.832   0.688  1.00  0.00     0.169 HD
HETATM   15  O   UNL     1      40.408 -15.737   0.977  1.00  0.00    -0.267 OA
BRANCH  13  16
HETATM   16  C   UNL     1      43.149 -16.634   1.635  1.00  0.00     0.035 A 
HETATM   17  C   UNL     1      43.469 -17.820   0.976  1.00  0.00     0.030 A 
HETATM   18  C   UNL     1      43.884 -18.945   1.696  1.00  0.00     0.009 A 
HETATM   19  C   UNL     1      43.982 -18.906   3.089  1.00  0.00    -0.062 A 
HETATM   20  C   UNL     1      44.381 -20.134   3.851  1.00  0.00     0.048 C 
HETATM   21  C   UNL     1      43.652 -17.721   3.753  1.00  0.00     0.009 A 
HETATM   22  C   UNL     1      43.253 -16.591   3.031  1.00  0.00     0.030 A 
ENDBRANCH  13  16
ENDBRANCH   1  12
BRANCH   2  23
HETATM   23  C   UNL     1      40.497 -14.530  -2.285  1.00  0.00    -0.011 A 
HETATM   24  C   UNL     1      40.738 -15.649  -3.085  1.00  0.00     0.125 A 
HETATM   25  N   UNL     1      39.803 -16.259  -3.847  1.00  0.00    -0.272 NA
HETATM   26  C   UNL     1      38.560 -15.733  -3.820  1.00  0.00     0.116 A 
HETATM   27  C   UNL     1      38.209 -14.631  -3.060  1.00  0.00     0.020 A 
HETATM   28  C   UNL     1      39.191 -14.024  -2.282  1.00  0.00     0.012 A 
ENDBRANCH   2  23
TORSDOF 3
ENDMDL
MODEL 4
REMARK VINA RESULT:      -8.0      2.604      5.434
REMARK  3 active torsions:
REMARK  status: ('A' for Active; 'I' for Inactive)
REMARK    1  A    between atoms: C_5  and  N_6 
REMARK       I    between atoms: N_6  and  C_7 
REMARK    2  A    between atoms: C_7  and  C_8 
REMARK    3  A    between atoms: C_9  and  C_10 
ROOT
HETATM    1  C   UNL     1      41.200 -14.278   1.538  1.00  0.00     0.062 C 
HETATM    2  C   UNL     1      41.787 -13.869   0.178  1.00  0.00     0.199 C 
HETATM    3  N   UNL     1      41.969 -12.423   0.117  1.00  0.00    -0.092 N 
HETATM    4  C   UNL     1      41.394 -11.536   0.983  1.00  0.00     0.735 A 
HETATM    5  N   UNL     1      40.642 -12.009   1.998  1.00  0.00    -0.191 N 
HETATM    6  N   UNL     1      42.739 -11.777  -0.770  1.00  0.00     0.012 NA
HETATM    7  N   UNL     1      42.583 -10.491  -0.469  1.00  0.00     0.033 NA
HETATM    8  N   UNL     1      41.746 -10.327   0.621  1.00  0.00     0.030 NA
HETATM    9  C   UNL     1      40.596 -13.360   2.339  1.00  0.00     0.037 C 
HETATM   10  C   UNL     1      39.824 -13.681   3.594  1.00  0.00     0.070 C 
HETATM   11  H   UNL     1      40.243 -11.343   2.657  1.00  0.00     0.184 HD
ENDROOT
BRANCH   1  12
HETATM   12  C   UNL     1      41.378 -15.730   1.849  1.00  0.00     0.256 C 
HETATM   13  N   UNL     1      42.661 -16.080   2.214  1.00  0.00    -0.323 N 
HETATM   14  H   UNL     1      43.354 -15.346   2.269  1.00  0.00     0.169 HD
HETATM   15  O   UNL     1      40.440 -16.496   1.677  1.00  0.00    -0.267 OA
BRANCH  13  16
HETATM   16  C   UNL     1      43.125 -17.370   2.560  1.00  0.00     0.035 A 
HETATM   17  C   UNL     1      43.431 -17.767   3.861  1.00  0.00     0.030 A 
HETATM   18  C   UNL     1      43.895 -19.061   4.119  1.00  0.00     0.009 A 
HETATM   19  C   UNL     1      44.065 -19.981   3.081  1.00  0.00    -0.062 A 
HETATM   20  C   UNL     1      44.609 -21.348   3.367  1.00  0.00     0.048 C 
HETATM   21  C   UNL     1      43.768 -19.581   1.774  1.00  0.00     0.009 A 
HETATM   22  C   UNL     1      43.289 -18.292   1.519  1.00  0.00     0.030 A 
ENDBRANCH  13  16
ENDBRANCH   1  12
BRANCH   2  23
HETATM   23  C   UNL     1      40.934 -14.319  -0.999  1.00  0.00    -0.011 A 
HETATM   24  C   UNL     1      39.670 -13.782  -1.246  1.00  0.00     0.125 A 
HETATM   25  N   UNL     1      38.860 -14.168  -2.257  1.00  0.00    -0.272 NA
HETATM   26  C   UNL     1      39.325 -15.141  -3.069  1.00  0.00     0.116 A 
HETATM   27  C   UNL     1      40.564 -15.739  -2.920  1.00  0.00     0.020 A 
HETATM   28  C   UNL     1      41.379 -15.320  -1.872  1.00  0.00     0.012 A 
ENDBRANCH   2  23
TORSDOF 3
ENDMDL
MODEL 5
REMARK VINA RESULT:      -7.7      2.532      6.692
REMARK  3 active torsions:
REMARK  status: ('A' for Active; 'I' for Inactive)
REMARK    1  A    between atoms: C_5  and  N_6 
REMARK       I    between atoms: N_6  and  C_7 
REMARK    2  A    between atoms: C_7  and  C_8 
REMARK    3  A    between atoms: C_9  and  C_10 
ROOT
HETATM    1  C   UNL     1      42.136 -15.638   5.286  1.00  0.00     0.062 C 
HETATM    2  C   UNL     1      42.229 -17.119   4.888  1.00  0.00     0.199 C 
HETATM    3  N   UNL     1      43.214 -17.807   5.715  1.00  0.00    -0.092 N 
HETATM    4  C   UNL     1      44.152 -17.176   6.483  1.00  0.00     0.735 A 
HETATM    5  N   UNL     1      44.157 -15.828   6.530  1.00  0.00    -0.191 N 
HETATM    6  N   UNL     1      43.312 -19.137   5.856  1.00  0.00     0.012 NA
HETATM    7  N   UNL     1      44.350 -19.307   6.669  1.00  0.00     0.033 NA
HETATM    8  N   UNL     1      44.883 -18.093   7.067  1.00  0.00     0.030 NA
HETATM    9  C   UNL     1      43.124 -15.050   6.011  1.00  0.00     0.037 C 
HETATM   10  C   UNL     1      43.229 -13.572   6.293  1.00  0.00     0.070 C 
HETATM   11  H   UNL     1      44.839 -15.367   7.130  1.00  0.00     0.184 HD
ENDROOT
BRANCH   1  12
HETATM   12  C   UNL     1      40.886 -14.971   4.806  1.00  0.00     0.256 C 
HETATM   13  N   UNL     1      40.924 -14.578   3.484  1.00  0.00    -0.323 N 
HETATM   14  H   UNL     1      41.756 -14.790   2.952  1.00  0.00     0.169 HD
HETATM   15  O   UNL     1      39.987 -14.743   5.603  1.00  0.00    -0.267 OA
BRANCH  13  16
HETATM   16  C   UNL     1      39.898 -13.926   2.762  1.00  0.00     0.035 A 
HETATM   17  C   UNL     1      39.554 -12.585   2.931  1.00  0.00     0.030 A 
HETATM   18  C   UNL     1      38.519 -12.016   2.182  1.00  0.00     0.009 A 
HETATM   19  C   UNL     1      37.805 -12.779   1.254  1.00  0.00    -0.062 A 
HETATM   20  C   UNL     1      36.666 -12.167   0.494  1.00  0.00     0.048 C 
HETATM   21  C   UNL     1      38.141 -14.125   1.090  1.00  0.00     0.009 A 
HETATM   22  C   UNL     1      39.188 -14.689   1.827  1.00  0.00     0.030 A 
ENDBRANCH  13  16
ENDBRANCH   1  12
BRANCH   2  23
HETATM   23  C   UNL     1      42.576 -17.321   3.420  1.00  0.00    -0.011 A 
HETATM   24  C   UNL     1      43.840 -17.022   2.910  1.00  0.00     0.125 A 
HETATM   25  N   UNL     1      44.191 -17.153   1.611  1.00  0.00    -0.272 NA
HETATM   26  C   UNL     1      43.238 -17.604   0.768  1.00  0.00     0.116 A 
HETATM   27  C   UNL     1      41.954 -17.935   1.166  1.00  0.00     0.020 A 
HETATM   28  C   UNL     1      41.622 -17.793   2.510  1.00  0.00     0.012 A 
ENDBRANCH   2  23
TORSDOF 3
ENDMDL
MODEL 6
REMARK VINA RESULT:      -7.6      2.539      5.703
REMARK  3 active torsions:
REMARK  status: ('A' for Active; 'I' for Inactive)
REMARK    1  A    between atoms: C_5  and  N_6 
REMARK       I    between atoms: N_6  and  C_7 
REMARK    2  A    between atoms: C_7  and  C_8 
REMARK    3  A    between atoms: C_9  and  C_10 
ROOT
HETATM    1  C   UNL     1      42.490 -15.934   4.108  1.00  0.00     0.062 C 
HETATM    2  C   UNL     1      42.398 -17.288   4.830  1.00  0.00     0.199 C 
HETATM    3  N   UNL     1      42.883 -17.167   6.201  1.00  0.00    -0.092 N 
HETATM    4  C   UNL     1      43.620 -16.116   6.668  1.00  0.00     0.735 A 
HETATM    5  N   UNL     1      43.891 -15.088   5.838  1.00  0.00    -0.191 N 
HETATM    6  N   UNL     1      42.648 -18.048   7.184  1.00  0.00     0.012 NA
HETATM    7  N   UNL     1      43.294 -17.550   8.234  1.00  0.00     0.033 NA
HETATM    8  N   UNL     1      43.905 -16.347   7.926  1.00  0.00     0.030 NA
HETATM    9  C   UNL     1      43.278 -14.939   4.595  1.00  0.00     0.037 C 
HETATM   10  C   UNL     1      43.590 -13.651   3.875  1.00  0.00     0.070 C 
HETATM   11  H   UNL     1      44.414 -14.295   6.204  1.00  0.00     0.184 HD
ENDROOT
BRANCH   1  12
HETATM   12  C   UNL     1      41.641 -15.858   2.879  1.00  0.00     0.256 C 
HETATM   13  N   UNL     1      42.284 -15.332   1.778  1.00  0.00    -0.323 N 
HETATM   14  H   UNL     1      43.256 -15.075   1.876  1.00  0.00     0.169 HD
HETATM   15  O   UNL     1      40.459 -16.164   2.950  1.00  0.00    -0.267 OA
BRANCH  13  16
HETATM   16  C   UNL     1      41.738 -15.137   0.488  1.00  0.00     0.035 A 
HETATM   17  C   UNL     1      41.392 -13.891  -0.033  1.00  0.00     0.030 A 
HETATM   18  C   UNL     1      40.848 -13.783  -1.317  1.00  0.00     0.009 A 
HETATM   19  C   UNL     1      40.635 -14.919  -2.102  1.00  0.00    -0.062 A 
HETATM   20  C   UNL     1      40.006 -14.792  -3.457  1.00  0.00     0.048 C 
HETATM   21  C   UNL     1      40.971 -16.170  -1.577  1.00  0.00     0.009 A 
HETATM   22  C   UNL     1      41.530 -16.276  -0.300  1.00  0.00     0.030 A 
ENDBRANCH  13  16
ENDBRANCH   1  12
BRANCH   2  23
HETATM   23  C   UNL     1      43.166 -18.394   4.121  1.00  0.00    -0.011 A 
HETATM   24  C   UNL     1      44.232 -19.061   4.726  1.00  0.00     0.125 A 
HETATM   25  N   UNL     1      44.966 -20.027   4.130  1.00  0.00    -0.272 NA
HETATM   26  C   UNL     1      44.628 -20.352   2.864  1.00  0.00     0.116 A 
HETATM   27  C   UNL     1      43.587 -19.760   2.170  1.00  0.00     0.020 A 
HETATM   28  C   UNL     1      42.846 -18.769   2.810  1.00  0.00     0.012 A 
ENDBRANCH   2  23
TORSDOF 3
ENDMDL
MODEL 7
REMARK VINA RESULT:      -7.5      2.600      4.960
REMARK  3 active torsions:
REMARK  status: ('A' for Active; 'I' for Inactive)
REMARK    1  A    between atoms: C_5  and  N_6 
REMARK       I    between atoms: N_6  and  C_7 
REMARK    2  A    between atoms: C_7  and  C_8 
REMARK    3  A    between atoms: C_9  and  C_10 
ROOT
HETATM    1  C   UNL     1      41.892 -12.840   2.620  1.00  0.00     0.062 C 
HETATM    2  C   UNL     1      41.940 -12.176   1.236  1.00  0.00     0.199 C 
HETATM    3  N   UNL     1      41.396 -10.824   1.301  1.00  0.00    -0.092 N 
HETATM    4  C   UNL     1      40.647 -10.343   2.338  1.00  0.00     0.735 A 
HETATM    5  N   UNL     1      40.422 -11.139   3.404  1.00  0.00    -0.191 N 
HETATM    6  N   UNL     1      41.580  -9.871   0.376  1.00  0.00     0.012 NA
HETATM    7  N   UNL     1      40.892  -8.829   0.833  1.00  0.00     0.033 NA
HETATM    8  N   UNL     1      40.304  -9.111   2.055  1.00  0.00     0.030 NA
HETATM    9  C   UNL     1      41.091 -12.345   3.601  1.00  0.00     0.037 C 
HETATM   10  C   UNL     1      40.821 -13.021   4.923  1.00  0.00     0.070 C 
HETATM   11  H   UNL     1      39.889 -10.761   4.185  1.00  0.00     0.184 HD
ENDROOT
BRANCH   1  12
HETATM   12  C   UNL     1      42.795 -14.026   2.742  1.00  0.00     0.256 C 
HETATM   13  N   UNL     1      42.192 -15.231   2.448  1.00  0.00    -0.323 N 
HETATM   14  H   UNL     1      41.225 -15.217   2.155  1.00  0.00     0.169 HD
HETATM   15  O   UNL     1      43.932 -13.870   3.166  1.00  0.00    -0.267 OA
BRANCH  13  16
HETATM   16  C   UNL     1      42.791 -16.511   2.479  1.00  0.00     0.035 A 
HETATM   17  C   UNL     1      43.355 -17.137   1.368  1.00  0.00     0.030 A 
HETATM   18  C   UNL     1      43.921 -18.412   1.479  1.00  0.00     0.009 A 
HETATM   19  C   UNL     1      43.929 -19.086   2.703  1.00  0.00    -0.062 A 
HETATM   20  C   UNL     1      44.495 -20.471   2.796  1.00  0.00     0.048 C 
HETATM   21  C   UNL     1      43.355 -18.465   3.816  1.00  0.00     0.009 A 
HETATM   22  C   UNL     1      42.804 -17.184   3.707  1.00  0.00     0.030 A 
ENDBRANCH  13  16
ENDBRANCH   1  12
BRANCH   2  23
HETATM   23  C   UNL     1      41.196 -12.966   0.169  1.00  0.00    -0.011 A 
HETATM   24  C   UNL     1      41.833 -13.448  -0.975  1.00  0.00     0.125 A 
HETATM   25  N   UNL     1      41.213 -14.127  -1.966  1.00  0.00    -0.272 NA
HETATM   26  C   UNL     1      39.888 -14.341  -1.819  1.00  0.00     0.116 A 
HETATM   27  C   UNL     1      39.158 -13.913  -0.724  1.00  0.00     0.020 A 
HETATM   28  C   UNL     1      39.823 -13.218   0.284  1.00  0.00     0.012 A 
ENDBRANCH   2  23
TORSDOF 3
ENDMDL
MODEL 8
REMARK VINA RESULT:      -7.4      2.511      6.008
REMARK  3 active torsions:
REMARK  status: ('A' for Active; 'I' for Inactive)
REMARK    1  A    between atoms: C_5  and  N_6 
REMARK       I    between atoms: N_6  and  C_7 
REMARK    2  A    between atoms: C_7  and  C_8 
REMARK    3  A    between atoms: C_9  and  C_10 
ROOT
HETATM    1  C   UNL     1      43.486 -17.590   3.193  1.00  0.00     0.062 C 
HETATM    2  C   UNL     1      43.712 -16.772   4.473  1.00  0.00     0.199 C 
HETATM    3  N   UNL     1      44.170 -17.637   5.556  1.00  0.00    -0.092 N 
HETATM    4  C   UNL     1      44.082 -19.000   5.542  1.00  0.00     0.735 A 
HETATM    5  N   UNL     1      43.586 -19.611   4.447  1.00  0.00    -0.191 N 
HETATM    6  N   UNL     1      44.758 -17.217   6.685  1.00  0.00     0.012 NA
HETATM    7  N   UNL     1      44.975 -18.331   7.378  1.00  0.00     0.033 NA
HETATM    8  N   UNL     1      44.558 -19.450   6.677  1.00  0.00     0.030 NA
HETATM    9  C   UNL     1      43.359 -18.942   3.245  1.00  0.00     0.037 C 
HETATM   10  C   UNL     1      42.949 -19.819   2.089  1.00  0.00     0.070 C 
HETATM   11  H   UNL     1      43.554 -20.629   4.433  1.00  0.00     0.184 HD
ENDROOT
BRANCH   1  12
HETATM   12  C   UNL     1      43.436 -16.753   1.954  1.00  0.00     0.256 C 
HETATM   13  N   UNL     1      42.184 -16.261   1.651  1.00  0.00    -0.323 N 
HETATM   14  H   UNL     1      41.426 -16.473   2.286  1.00  0.00     0.169 HD
HETATM   15  O   UNL     1      44.443 -16.641   1.268  1.00  0.00    -0.267 OA
BRANCH  13  16
HETATM   16  C   UNL     1      41.834 -15.448   0.549  1.00  0.00     0.035 A 
HETATM   17  C   UNL     1      41.909 -14.055   0.550  1.00  0.00     0.030 A 
HETATM   18  C   UNL     1      41.534 -13.322  -0.581  1.00  0.00     0.009 A 
HETATM   19  C   UNL     1      41.072 -13.967  -1.731  1.00  0.00    -0.062 A 
HETATM   20  C   UNL     1      40.628 -13.164  -2.917  1.00  0.00     0.048 C 
HETATM   21  C   UNL     1      40.986 -15.362  -1.731  1.00  0.00     0.009 A 
HETATM   22  C   UNL     1      41.376 -16.096  -0.605  1.00  0.00     0.030 A 
ENDBRANCH  13  16
ENDBRANCH   1  12
BRANCH   2  23
HETATM   23  C   UNL     1      42.471 -16.016   4.924  1.00  0.00    -0.011 A 
HETATM   24  C   UNL     1      42.370 -14.628   4.821  1.00  0.00     0.125 A 
HETATM   25  N   UNL     1      41.305 -13.906   5.235  1.00  0.00    -0.272 NA
HETATM   26  C   UNL     1      40.282 -14.594   5.784  1.00  0.00     0.116 A 
HETATM   27  C   UNL     1      40.273 -15.971   5.931  1.00  0.00     0.020 A 
HETATM   28  C   UNL     1      41.382 -16.689   5.493  1.00  0.00     0.012 A 
ENDBRANCH   2  23
TORSDOF 3
ENDMDL
MODEL 9
REMARK VINA RESULT:      -7.3      2.484      4.377
REMARK  3 active torsions:
REMARK  status: ('A' for Active; 'I' for Inactive)
REMARK    1  A    between atoms: C_5  and  N_6 
REMARK       I    between atoms: N_6  and  C_7 
REMARK    2  A    between atoms: C_7  and  C_8 
REMARK    3  A    between atoms: C_9  and  C_10 
ROOT
HETATM    1  C   UNL     1      41.579 -16.219   2.365  1.00  0.00     0.062 C 
HETATM    2  C   UNL     1      40.387 -15.251   2.418  1.00  0.00     0.199 C 
HETATM    3  N   UNL     1      40.014 -14.828   1.072  1.00  0.00    -0.092 N 
HETATM    4  C   UNL     1      40.804 -14.986  -0.032  1.00  0.00     0.735 A 
HETATM    5  N   UNL     1      41.991 -15.613   0.099  1.00  0.00    -0.191 N 
HETATM    6  N   UNL     1      38.847 -14.261   0.736  1.00  0.00     0.012 NA
HETATM    7  N   UNL     1      38.958 -14.026  -0.568  1.00  0.00     0.033 NA
HETATM    8  N   UNL     1      40.173 -14.472  -1.059  1.00  0.00     0.030 NA
HETATM    9  C   UNL     1      42.360 -16.299   1.255  1.00  0.00     0.037 C 
HETATM   10  C   UNL     1      43.656 -17.065   1.161  1.00  0.00     0.070 C 
HETATM   11  H   UNL     1      42.558 -15.754  -0.734  1.00  0.00     0.184 HD
ENDROOT
BRANCH   1  12
HETATM   12  C   UNL     1      41.751 -17.019   3.617  1.00  0.00     0.256 C 
HETATM   13  N   UNL     1      42.799 -16.608   4.414  1.00  0.00    -0.323 N 
HETATM   14  H   UNL     1      43.335 -15.805   4.113  1.00  0.00     0.169 HD
HETATM   15  O   UNL     1      41.044 -18.000   3.800  1.00  0.00    -0.267 OA
BRANCH  13  16
HETATM   16  C   UNL     1      43.202 -17.171   5.646  1.00  0.00     0.035 A 
HETATM   17  C   UNL     1      42.746 -16.735   6.890  1.00  0.00     0.030 A 
HETATM   18  C   UNL     1      43.202 -17.340   8.067  1.00  0.00     0.009 A 
HETATM   19  C   UNL     1      44.124 -18.389   8.021  1.00  0.00    -0.062 A 
HETATM   20  C   UNL     1      44.639 -18.994   9.292  1.00  0.00     0.048 C 
HETATM   21  C   UNL     1      44.589 -18.820   6.776  1.00  0.00     0.009 A 
HETATM   22  C   UNL     1      44.122 -18.226   5.599  1.00  0.00     0.030 A 
ENDBRANCH  13  16
ENDBRANCH   1  12
BRANCH   2  23
HETATM   23  C   UNL     1      40.654 -14.022   3.275  1.00  0.00    -0.011 A 
HETATM   24  C   UNL     1      41.709 -13.148   3.007  1.00  0.00     0.125 A 
HETATM   25  N   UNL     1      42.009 -12.061   3.754  1.00  0.00    -0.272 NA
HETATM   26  C   UNL     1      41.224 -11.827   4.826  1.00  0.00     0.116 A 
HETATM   27  C   UNL     1      40.150 -12.624   5.182  1.00  0.00     0.020 A 
HETATM   28  C   UNL     1      39.862 -13.734   4.393  1.00  0.00     0.012 A 
ENDBRANCH   2  23
TORSDOF 3
ENDMDL
MODEL 10
REMARK VINA RESULT:      -7.2      2.119      5.501
REMARK  3 active torsions:
REMARK  status: ('A' for Active; 'I' for Inactive)
REMARK    1  A    between atoms: C_5  and  N_6 
REMARK       I    between atoms: N_6  and  C_7 
REMARK    2  A    between atoms: C_7  and  C_8 
REMARK    3  A    between atoms: C_9  and  C_10 
ROOT
HETATM    1  C   UNL     1      43.153 -15.935   3.966  1.00  0.00     0.062 C 
HETATM    2  C   UNL     1      43.307 -14.572   4.659  1.00  0.00     0.199 C 
HETATM    3  N   UNL     1      43.749 -14.749   6.038  1.00  0.00    -0.092 N 
HETATM    4  C   UNL     1      43.703 -15.934   6.716  1.00  0.00     0.735 A 
HETATM    5  N   UNL     1      43.267 -17.037   6.074  1.00  0.00    -0.191 N 
HETATM    6  N   UNL     1      44.282 -13.790   6.808  1.00  0.00     0.012 NA
HETATM    7  N   UNL     1      44.507 -14.389   7.974  1.00  0.00     0.033 NA
HETATM    8  N   UNL     1      44.150 -15.726   7.930  1.00  0.00     0.030 NA
HETATM    9  C   UNL     1      43.064 -17.079   4.695  1.00  0.00     0.037 C 
HETATM   10  C   UNL     1      42.723 -18.438   4.136  1.00  0.00     0.070 C 
HETATM   11  H   UNL     1      43.265 -17.922   6.578  1.00  0.00     0.184 HD
ENDROOT
BRANCH   1  12
HETATM   12  C   UNL     1      43.124 -15.843   2.474  1.00  0.00     0.256 C 
HETATM   13  N   UNL     1      41.973 -15.282   1.962  1.00  0.00    -0.323 N 
HETATM   14  H   UNL     1      41.272 -14.960   2.616  1.00  0.00     0.169 HD
HETATM   15  O   UNL     1      44.039 -16.334   1.828  1.00  0.00    -0.267 OA
BRANCH  13  16
HETATM   16  C   UNL     1      41.664 -15.069   0.599  1.00  0.00     0.035 A 
HETATM   17  C   UNL     1      41.339 -16.088  -0.297  1.00  0.00     0.030 A 
HETATM   18  C   UNL     1      41.055 -15.796  -1.635  1.00  0.00     0.009 A 
HETATM   19  C   UNL     1      41.094 -14.480  -2.103  1.00  0.00    -0.062 A 
HETATM   20  C   UNL     1      40.835 -14.188  -3.551  1.00  0.00     0.048 C 
HETATM   21  C   UNL     1      41.430 -13.459  -1.210  1.00  0.00     0.009 A 
HETATM   22  C   UNL     1      41.699 -13.750   0.131  1.00  0.00     0.030 A 
ENDBRANCH  13  16
ENDBRANCH   1  12
BRANCH   2  23
HETATM   23  C   UNL     1      42.027 -13.748   4.644  1.00  0.00    -0.011 A 
HETATM   24  C   UNL     1      40.839 -14.214   5.208  1.00  0.00     0.125 A 
HETATM   25  N   UNL     1      39.669 -13.537   5.194  1.00  0.00    -0.272 NA
HETATM   26  C   UNL     1      39.673 -12.331   4.586  1.00  0.00     0.116 A 
HETATM   27  C   UNL     1      40.794 -11.770   3.999  1.00  0.00     0.020 A 
HETATM   28  C   UNL     1      41.986 -12.489   4.031  1.00  0.00     0.012 A 
ENDBRANCH   2  23
TORSDOF 3
ENDMDL
