MODEL 1
REMARK VINA RESULT:      -7.9      0.000      0.000
REMARK  6 active torsions:
REMARK  status: ('A' for Active; 'I' for Inactive)
REMARK    1  A    between atoms: C_2  and  O_3 
REMARK    2  A    between atoms: O_3  and  C_4 
REMARK    3  A    between atoms: C_5  and  O_6 
REMARK    4  A    between atoms: C_10  and  C_11 
REMARK    5  A    between atoms: C_20  and  C_21 
REMARK       I    between atoms: C_21  and  N_22 
REMARK    6  A    between atoms: N_22  and  C_23 
ROOT
HETATM    1  C   UNL     1      39.166 -14.047   1.164  1.00  0.00     0.202 C 
HETATM    2  N   UNL     1      38.424 -12.803   1.393  1.00  0.00    -0.084 N 
HETATM    3  C   UNL     1      38.564 -12.022   2.508  1.00  0.00     0.725 A 
HETATM    4  N   UNL     1      37.776 -10.983   2.414  1.00  0.00    -0.054 NA
HETATM    5  C   UNL     1      37.139 -11.193   1.218  1.00  0.00     0.275 A 
HETATM    6  N   UNL     1      37.490 -12.303   0.558  1.00  0.00    -0.149 NA
HETATM    7  N   UNL     1      39.395 -12.418   3.492  1.00  0.00    -0.192 N 
HETATM    8  C   UNL     1      39.996 -13.674   3.515  1.00  0.00     0.037 C 
HETATM    9  C   UNL     1      40.605 -14.072   4.837  1.00  0.00     0.070 C 
HETATM   10  C   UNL     1      39.932 -14.469   2.416  1.00  0.00     0.062 C 
HETATM   11  H   UNL     1      39.373 -11.893   4.363  1.00  0.00     0.184 HD
ENDROOT
BRANCH   1  12
HETATM   12  C   UNL     1      40.072 -13.879  -0.058  1.00  0.00    -0.024 A 
HETATM   13  C   UNL     1      40.981 -12.807  -0.101  1.00  0.00     0.031 A 
HETATM   14  C   UNL     1      41.855 -12.659  -1.180  1.00  0.00     0.047 A 
HETATM   15  C   UNL     1      41.821 -13.579  -2.227  1.00  0.00     0.116 A 
HETATM   16 BR   UNL     1      43.074 -11.208  -1.170  1.00  0.00    -0.048 Br
HETATM   17  C   UNL     1      40.916 -14.649  -2.212  1.00  0.00     0.103 A 
HETATM   18  C   UNL     1      40.049 -14.798  -1.127  1.00  0.00     0.049 A 
BRANCH  15  19
HETATM   19  O   UNL     1      42.679 -13.455  -3.290  1.00  0.00    -0.357 OA
HETATM   20  H   UNL     1      42.237 -12.845  -3.911  1.00  0.00     0.218 HD
ENDBRANCH  15  19
BRANCH  17  21
HETATM   21  O   UNL     1      40.989 -15.476  -3.305  1.00  0.00    -0.349 OA
BRANCH  21  22
HETATM   22  C   UNL     1      39.994 -16.492  -3.422  1.00  0.00     0.171 C 
HETATM   23  C   UNL     1      38.914 -15.980  -4.358  1.00  0.00     0.034 C 
ENDBRANCH  21  22
ENDBRANCH  17  21
ENDBRANCH   1  12
BRANCH  10  24
HETATM   24  C   UNL     1      40.460 -15.861   2.354  1.00  0.00     0.256 C 
HETATM   25  N   UNL     1      41.826 -15.943   2.502  1.00  0.00    -0.323 N 
HETATM   26  H   UNL     1      42.335 -15.074   2.602  1.00  0.00     0.169 HD
HETATM   27  O   UNL     1      39.673 -16.775   2.144  1.00  0.00    -0.267 OA
BRANCH  25  28
HETATM   28  C   UNL     1      42.605 -17.117   2.594  1.00  0.00     0.035 A 
HETATM   29  C   UNL     1      43.141 -17.788   1.493  1.00  0.00     0.029 A 
HETATM   30  C   UNL     1      43.876 -18.964   1.668  1.00  0.00     0.002 A 
HETATM   31  C   UNL     1      44.078 -19.484   2.944  1.00  0.00     0.000 A 
HETATM   32  C   UNL     1      43.550 -18.823   4.050  1.00  0.00     0.002 A 
HETATM   33  C   UNL     1      42.822 -17.642   3.876  1.00  0.00     0.029 A 
ENDBRANCH  25  28
ENDBRANCH  10  24
TORSDOF 6
ENDMDL
MODEL 2
REMARK VINA RESULT:      -7.9      1.651      2.790
REMARK  6 active torsions:
REMARK  status: ('A' for Active; 'I' for Inactive)
REMARK    1  A    between atoms: C_2  and  O_3 
REMARK    2  A    between atoms: O_3  and  C_4 
REMARK    3  A    between atoms: C_5  and  O_6 
REMARK    4  A    between atoms: C_10  and  C_11 
REMARK    5  A    between atoms: C_20  and  C_21 
REMARK       I    between atoms: C_21  and  N_22 
REMARK    6  A    between atoms: N_22  and  C_23 
ROOT
HETATM    1  C   UNL     1      39.733 -14.163   1.949  1.00  0.00     0.202 C 
HETATM    2  N   UNL     1      39.097 -12.906   2.356  1.00  0.00    -0.084 N 
HETATM    3  C   UNL     1      39.343 -12.273   3.544  1.00  0.00     0.725 A 
HETATM    4  N   UNL     1      38.632 -11.177   3.609  1.00  0.00    -0.054 NA
HETATM    5  C   UNL     1      37.930 -11.201   2.431  1.00  0.00     0.275 A 
HETATM    6  N   UNL     1      38.168 -12.248   1.632  1.00  0.00    -0.149 NA
HETATM    7  N   UNL     1      40.183 -12.838   4.433  1.00  0.00    -0.192 N 
HETATM    8  C   UNL     1      40.688 -14.126   4.282  1.00  0.00     0.037 C 
HETATM    9  C   UNL     1      41.322 -14.718   5.518  1.00  0.00     0.070 C 
HETATM   10  C   UNL     1      40.517 -14.782   3.105  1.00  0.00     0.062 C 
HETATM   11  H   UNL     1      40.238 -12.418   5.358  1.00  0.00     0.184 HD
ENDROOT
BRANCH   1  12
HETATM   12  C   UNL     1      40.595 -13.918   0.710  1.00  0.00    -0.024 A 
HETATM   13  C   UNL     1      40.421 -14.731  -0.425  1.00  0.00     0.031 A 
HETATM   14  C   UNL     1      41.159 -14.497  -1.587  1.00  0.00     0.047 A 
HETATM   15  C   UNL     1      42.081 -13.453  -1.620  1.00  0.00     0.116 A 
HETATM   16 BR   UNL     1      40.861 -15.610  -3.091  1.00  0.00    -0.048 Br
HETATM   17  C   UNL     1      42.281 -12.636  -0.499  1.00  0.00     0.103 A 
HETATM   18  C   UNL     1      41.536 -12.868   0.659  1.00  0.00     0.049 A 
BRANCH  15  19
HETATM   19  O   UNL     1      42.806 -13.202  -2.757  1.00  0.00    -0.357 OA
HETATM   20  H   UNL     1      42.432 -12.380  -3.129  1.00  0.00     0.218 HD
ENDBRANCH  15  19
BRANCH  17  21
HETATM   21  O   UNL     1      43.219 -11.649  -0.670  1.00  0.00    -0.349 OA
BRANCH  21  22
HETATM   22  C   UNL     1      42.749 -10.302  -0.701  1.00  0.00     0.171 C 
HETATM   23  C   UNL     1      43.869  -9.430  -1.240  1.00  0.00     0.034 C 
ENDBRANCH  21  22
ENDBRANCH  17  21
ENDBRANCH   1  12
BRANCH  10  24
HETATM   24  C   UNL     1      40.936 -16.190   2.858  1.00  0.00     0.256 C 
HETATM   25  N   UNL     1      42.284 -16.407   3.034  1.00  0.00    -0.323 N 
HETATM   26  H   UNL     1      42.856 -15.607   3.273  1.00  0.00     0.169 HD
HETATM   27  O   UNL     1      40.089 -16.996   2.496  1.00  0.00    -0.267 OA
BRANCH  25  28
HETATM   28  C   UNL     1      42.963 -17.643   2.978  1.00  0.00     0.035 A 
HETATM   29  C   UNL     1      43.026 -18.450   1.841  1.00  0.00     0.029 A 
HETATM   30  C   UNL     1      43.694 -19.678   1.879  1.00  0.00     0.002 A 
HETATM   31  C   UNL     1      44.301 -20.113   3.054  1.00  0.00     0.000 A 
HETATM   32  C   UNL     1      44.247 -19.315   4.194  1.00  0.00     0.002 A 
HETATM   33  C   UNL     1      43.586 -18.084   4.155  1.00  0.00     0.029 A 
ENDBRANCH  25  28
ENDBRANCH  10  24
TORSDOF 6
ENDMDL
MODEL 3
REMARK VINA RESULT:      -7.8      2.904      5.438
REMARK  6 active torsions:
REMARK  status: ('A' for Active; 'I' for Inactive)
REMARK    1  A    between atoms: C_2  and  O_3 
REMARK    2  A    between atoms: O_3  and  C_4 
REMARK    3  A    between atoms: C_5  and  O_6 
REMARK    4  A    between atoms: C_10  and  C_11 
REMARK    5  A    between atoms: C_20  and  C_21 
REMARK       I    between atoms: C_21  and  N_22 
REMARK    6  A    between atoms: N_22  and  C_23 
ROOT
HETATM    1  C   UNL     1      42.017 -13.173   0.460  1.00  0.00     0.202 C 
HETATM    2  N   UNL     1      42.297 -12.120  -0.522  1.00  0.00    -0.084 N 
HETATM    3  C   UNL     1      41.986 -12.209  -1.851  1.00  0.00     0.725 A 
HETATM    4  N   UNL     1      42.354 -11.112  -2.460  1.00  0.00    -0.054 NA
HETATM    5  C   UNL     1      42.926 -10.382  -1.450  1.00  0.00     0.275 A 
HETATM    6  N   UNL     1      42.929 -10.961  -0.243  1.00  0.00    -0.149 NA
HETATM    7  N   UNL     1      41.426 -13.340  -2.324  1.00  0.00    -0.192 N 
HETATM    8  C   UNL     1      41.302 -14.498  -1.562  1.00  0.00     0.037 C 
HETATM    9  C   UNL     1      40.976 -15.750  -2.341  1.00  0.00     0.070 C 
HETATM   10  C   UNL     1      41.549 -14.454  -0.228  1.00  0.00     0.062 C 
HETATM   11  H   UNL     1      41.334 -13.431  -3.333  1.00  0.00     0.184 HD
ENDROOT
BRANCH   1  12
HETATM   12  C   UNL     1      41.014 -12.651   1.490  1.00  0.00    -0.024 A 
HETATM   13  C   UNL     1      39.747 -12.216   1.062  1.00  0.00     0.031 A 
HETATM   14  C   UNL     1      38.794 -11.783   1.987  1.00  0.00     0.047 A 
HETATM   15  C   UNL     1      39.105 -11.775   3.345  1.00  0.00     0.116 A 
HETATM   16 BR   UNL     1      37.096 -11.232   1.351  1.00  0.00    -0.048 Br
HETATM   17  C   UNL     1      40.364 -12.192   3.795  1.00  0.00     0.103 A 
HETATM   18  C   UNL     1      41.312 -12.633   2.869  1.00  0.00     0.049 A 
BRANCH  15  19
HETATM   19  O   UNL     1      38.177 -11.363   4.268  1.00  0.00    -0.357 OA
HETATM   20  H   UNL     1      38.055 -10.408   4.106  1.00  0.00     0.218 HD
ENDBRANCH  15  19
BRANCH  17  21
HETATM   21  O   UNL     1      40.535 -12.132   5.156  1.00  0.00    -0.349 OA
BRANCH  21  22
HETATM   22  C   UNL     1      41.202 -13.228   5.779  1.00  0.00     0.171 C 
HETATM   23  C   UNL     1      40.242 -14.404   5.805  1.00  0.00     0.034 C 
ENDBRANCH  21  22
ENDBRANCH  17  21
ENDBRANCH   1  12
BRANCH  10  24
HETATM   24  C   UNL     1      41.533 -15.643   0.671  1.00  0.00     0.256 C 
HETATM   25  N   UNL     1      42.786 -16.128   0.971  1.00  0.00    -0.323 N 
HETATM   26  H   UNL     1      43.577 -15.668   0.539  1.00  0.00     0.169 HD
HETATM   27  O   UNL     1      40.451 -16.096   1.021  1.00  0.00    -0.267 OA
BRANCH  25  28
HETATM   28  C   UNL     1      43.105 -17.167   1.872  1.00  0.00     0.035 A 
HETATM   29  C   UNL     1      43.080 -17.032   3.261  1.00  0.00     0.029 A 
HETATM   30  C   UNL     1      43.440 -18.104   4.084  1.00  0.00     0.002 A 
HETATM   31  C   UNL     1      43.833 -19.318   3.526  1.00  0.00     0.000 A 
HETATM   32  C   UNL     1      43.859 -19.465   2.142  1.00  0.00     0.002 A 
HETATM   33  C   UNL     1      43.491 -18.396   1.319  1.00  0.00     0.029 A 
ENDBRANCH  25  28
ENDBRANCH  10  24
TORSDOF 6
ENDMDL
MODEL 4
REMARK VINA RESULT:      -7.7      2.936      4.950
REMARK  6 active torsions:
REMARK  status: ('A' for Active; 'I' for Inactive)
REMARK    1  A    between atoms: C_2  and  O_3 
REMARK    2  A    between atoms: O_3  and  C_4 
REMARK    3  A    between atoms: C_5  and  O_6 
REMARK    4  A    between atoms: C_10  and  C_11 
REMARK    5  A    between atoms: C_20  and  C_21 
REMARK       I    between atoms: C_21  and  N_22 
REMARK    6  A    between atoms: N_22  and  C_23 
ROOT
HETATM    1  C   UNL     1      41.941 -13.242   0.584  1.00  0.00     0.202 C 
HETATM    2  N   UNL     1      42.188 -12.158  -0.374  1.00  0.00    -0.084 N 
HETATM    3  C   UNL     1      41.895 -12.234  -1.708  1.00  0.00     0.725 A 
HETATM    4  N   UNL     1      42.224 -11.111  -2.291  1.00  0.00    -0.054 NA
HETATM    5  C   UNL     1      42.753 -10.378  -1.260  1.00  0.00     0.275 A 
HETATM    6  N   UNL     1      42.767 -10.980  -0.064  1.00  0.00    -0.149 NA
HETATM    7  N   UNL     1      41.389 -13.378  -2.210  1.00  0.00    -0.192 N 
HETATM    8  C   UNL     1      41.305 -14.556  -1.472  1.00  0.00     0.037 C 
HETATM    9  C   UNL     1      41.042 -15.804  -2.279  1.00  0.00     0.070 C 
HETATM   10  C   UNL     1      41.535 -14.528  -0.134  1.00  0.00     0.062 C 
HETATM   11  H   UNL     1      41.313 -13.452  -3.222  1.00  0.00     0.184 HD
ENDROOT
BRANCH   1  12
HETATM   12  C   UNL     1      40.905 -12.783   1.612  1.00  0.00    -0.024 A 
HETATM   13  C   UNL     1      41.273 -12.688   2.967  1.00  0.00     0.031 A 
HETATM   14  C   UNL     1      40.363 -12.224   3.919  1.00  0.00     0.047 A 
HETATM   15  C   UNL     1      39.077 -11.858   3.524  1.00  0.00     0.116 A 
HETATM   16 BR   UNL     1      40.924 -12.095   5.724  1.00  0.00    -0.048 Br
HETATM   17  C   UNL     1      38.684 -11.955   2.183  1.00  0.00     0.103 A 
HETATM   18  C   UNL     1      39.599 -12.412   1.232  1.00  0.00     0.049 A 
BRANCH  15  19
HETATM   19  O   UNL     1      38.174 -11.390   4.445  1.00  0.00    -0.357 OA
HETATM   20  H   UNL     1      37.680 -12.176   4.747  1.00  0.00     0.218 HD
ENDBRANCH  15  19
BRANCH  17  21
HETATM   21  O   UNL     1      37.391 -11.564   1.935  1.00  0.00    -0.349 OA
BRANCH  21  22
HETATM   22  C   UNL     1      36.804 -11.992   0.708  1.00  0.00     0.171 C 
HETATM   23  C   UNL     1      35.524 -11.202   0.503  1.00  0.00     0.034 C 
ENDBRANCH  21  22
ENDBRANCH  17  21
ENDBRANCH   1  12
BRANCH  10  24
HETATM   24  C   UNL     1      41.559 -15.734   0.741  1.00  0.00     0.256 C 
HETATM   25  N   UNL     1      42.824 -16.226   0.972  1.00  0.00    -0.323 N 
HETATM   26  H   UNL     1      43.595 -15.759   0.513  1.00  0.00     0.169 HD
HETATM   27  O   UNL     1      40.494 -16.192   1.133  1.00  0.00    -0.267 OA
BRANCH  25  28
HETATM   28  C   UNL     1      43.182 -17.283   1.837  1.00  0.00     0.035 A 
HETATM   29  C   UNL     1      43.450 -18.584   1.410  1.00  0.00     0.029 A 
HETATM   30  C   UNL     1      43.769 -19.583   2.336  1.00  0.00     0.002 A 
HETATM   31  C   UNL     1      43.817 -19.291   3.697  1.00  0.00     0.000 A 
HETATM   32  C   UNL     1      43.553 -17.995   4.134  1.00  0.00     0.002 A 
HETATM   33  C   UNL     1      43.243 -16.995   3.207  1.00  0.00     0.029 A 
ENDBRANCH  25  28
ENDBRANCH  10  24
TORSDOF 6
ENDMDL
MODEL 5
REMARK VINA RESULT:      -7.7      3.073      4.238
REMARK  6 active torsions:
REMARK  status: ('A' for Active; 'I' for Inactive)
REMARK    1  A    between atoms: C_2  and  O_3 
REMARK    2  A    between atoms: O_3  and  C_4 
REMARK    3  A    between atoms: C_5  and  O_6 
REMARK    4  A    between atoms: C_10  and  C_11 
REMARK    5  A    between atoms: C_20  and  C_21 
REMARK       I    between atoms: C_21  and  N_22 
REMARK    6  A    between atoms: N_22  and  C_23 
ROOT
HETATM    1  C   UNL     1      40.770 -13.975   4.942  1.00  0.00     0.202 C 
HETATM    2  N   UNL     1      40.689 -12.701   5.664  1.00  0.00    -0.084 N 
HETATM    3  C   UNL     1      41.713 -12.170   6.399  1.00  0.00     0.725 A 
HETATM    4  N   UNL     1      41.336 -11.028   6.912  1.00  0.00    -0.054 NA
HETATM    5  C   UNL     1      40.038 -10.917   6.482  1.00  0.00     0.275 A 
HETATM    6  N   UNL     1      39.587 -11.924   5.724  1.00  0.00    -0.149 NA
HETATM    7  N   UNL     1      42.865 -12.859   6.521  1.00  0.00    -0.192 N 
HETATM    8  C   UNL     1      43.012 -14.171   6.078  1.00  0.00     0.037 C 
HETATM    9  C   UNL     1      44.232 -14.892   6.597  1.00  0.00     0.070 C 
HETATM   10  C   UNL     1      42.048 -14.730   5.302  1.00  0.00     0.062 C 
HETATM   11  H   UNL     1      43.553 -12.508   7.183  1.00  0.00     0.184 HD
ENDROOT
BRANCH   1  12
HETATM   12  C   UNL     1      40.636 -13.717   3.440  1.00  0.00    -0.024 A 
HETATM   13  C   UNL     1      39.411 -13.982   2.801  1.00  0.00     0.031 A 
HETATM   14  C   UNL     1      39.245 -13.708   1.442  1.00  0.00     0.047 A 
HETATM   15  C   UNL     1      40.304 -13.173   0.711  1.00  0.00     0.116 A 
HETATM   16 BR   UNL     1      37.564 -14.063   0.643  1.00  0.00    -0.048 Br
HETATM   17  C   UNL     1      41.537 -12.911   1.323  1.00  0.00     0.103 A 
HETATM   18  C   UNL     1      41.698 -13.178   2.684  1.00  0.00     0.049 A 
BRANCH  15  19
HETATM   19  O   UNL     1      40.154 -12.887  -0.623  1.00  0.00    -0.357 OA
HETATM   20  H   UNL     1      40.221 -13.746  -1.081  1.00  0.00     0.218 HD
ENDBRANCH  15  19
BRANCH  17  21
HETATM   21  O   UNL     1      42.492 -12.387   0.486  1.00  0.00    -0.349 OA
BRANCH  21  22
HETATM   22  C   UNL     1      42.428 -10.986   0.221  1.00  0.00     0.171 C 
HETATM   23  C   UNL     1      43.050 -10.741  -1.142  1.00  0.00     0.034 C 
ENDBRANCH  21  22
ENDBRANCH  17  21
ENDBRANCH   1  12
BRANCH  10  24
HETATM   24  C   UNL     1      42.055 -16.147   4.843  1.00  0.00     0.256 C 
HETATM   25  N   UNL     1      43.114 -16.459   4.020  1.00  0.00    -0.323 N 
HETATM   26  H   UNL     1      43.752 -15.711   3.781  1.00  0.00     0.169 HD
HETATM   27  O   UNL     1      41.136 -16.878   5.189  1.00  0.00    -0.267 OA
BRANCH  25  28
HETATM   28  C   UNL     1      43.454 -17.732   3.513  1.00  0.00     0.035 A 
HETATM   29  C   UNL     1      43.123 -18.177   2.232  1.00  0.00     0.029 A 
HETATM   30  C   UNL     1      43.470 -19.466   1.817  1.00  0.00     0.002 A 
HETATM   31  C   UNL     1      44.146 -20.325   2.680  1.00  0.00     0.000 A 
HETATM   32  C   UNL     1      44.484 -19.891   3.960  1.00  0.00     0.002 A 
HETATM   33  C   UNL     1      44.144 -18.599   4.372  1.00  0.00     0.029 A 
ENDBRANCH  25  28
ENDBRANCH  10  24
TORSDOF 6
ENDMDL
MODEL 6
REMARK VINA RESULT:      -7.6      3.461      7.972
REMARK  6 active torsions:
REMARK  status: ('A' for Active; 'I' for Inactive)
REMARK    1  A    between atoms: C_2  and  O_3 
REMARK    2  A    between atoms: O_3  and  C_4 
REMARK    3  A    between atoms: C_5  and  O_6 
REMARK    4  A    between atoms: C_10  and  C_11 
REMARK    5  A    between atoms: C_20  and  C_21 
REMARK       I    between atoms: C_21  and  N_22 
REMARK    6  A    between atoms: N_22  and  C_23 
ROOT
HETATM    1  C   UNL     1      41.967 -17.288   4.425  1.00  0.00     0.202 C 
HETATM    2  N   UNL     1      42.894 -18.139   5.180  1.00  0.00    -0.084 N 
HETATM    3  C   UNL     1      43.987 -18.753   4.634  1.00  0.00     0.725 A 
HETATM    4  N   UNL     1      44.614 -19.432   5.559  1.00  0.00    -0.054 NA
HETATM    5  C   UNL     1      43.832 -19.226   6.668  1.00  0.00     0.275 A 
HETATM    6  N   UNL     1      42.756 -18.450   6.486  1.00  0.00    -0.149 NA
HETATM    7  N   UNL     1      44.229 -18.621   3.315  1.00  0.00    -0.192 N 
HETATM    8  C   UNL     1      43.326 -18.031   2.435  1.00  0.00     0.037 C 
HETATM    9  C   UNL     1      43.599 -18.275   0.971  1.00  0.00     0.070 C 
HETATM   10  C   UNL     1      42.249 -17.364   2.926  1.00  0.00     0.062 C 
HETATM   11  H   UNL     1      44.965 -19.199   2.914  1.00  0.00     0.184 HD
ENDROOT
BRANCH   1  12
HETATM   12  C   UNL     1      42.032 -15.860   4.971  1.00  0.00    -0.024 A 
HETATM   13  C   UNL     1      40.837 -15.154   5.199  1.00  0.00     0.031 A 
HETATM   14  C   UNL     1      40.864 -13.869   5.744  1.00  0.00     0.047 A 
HETATM   15  C   UNL     1      42.086 -13.278   6.057  1.00  0.00     0.116 A 
HETATM   16 BR   UNL     1      39.220 -12.978   6.053  1.00  0.00    -0.048 Br
HETATM   17  C   UNL     1      43.291 -13.956   5.827  1.00  0.00     0.103 A 
HETATM   18  C   UNL     1      43.260 -15.245   5.290  1.00  0.00     0.049 A 
BRANCH  15  19
HETATM   19  O   UNL     1      42.131 -12.020   6.603  1.00  0.00    -0.357 OA
HETATM   20  H   UNL     1      42.108 -12.155   7.570  1.00  0.00     0.218 HD
ENDBRANCH  15  19
BRANCH  17  21
HETATM   21  O   UNL     1      44.418 -13.257   6.180  1.00  0.00    -0.349 OA
BRANCH  21  22
HETATM   22  C   UNL     1      45.182 -13.760   7.275  1.00  0.00     0.171 C 
HETATM   23  C   UNL     1      45.033 -12.789   8.432  1.00  0.00     0.034 C 
ENDBRANCH  21  22
ENDBRANCH  17  21
ENDBRANCH   1  12
BRANCH  10  24
HETATM   24  C   UNL     1      41.174 -16.769   2.084  1.00  0.00     0.256 C 
HETATM   25  N   UNL     1      41.559 -15.629   1.415  1.00  0.00    -0.323 N 
HETATM   26  H   UNL     1      42.499 -15.290   1.578  1.00  0.00     0.169 HD
HETATM   27  O   UNL     1      40.070 -17.297   2.088  1.00  0.00    -0.267 OA
BRANCH  25  28
HETATM   28  C   UNL     1      40.808 -14.902   0.467  1.00  0.00     0.035 A 
HETATM   29  C   UNL     1      39.762 -14.038   0.795  1.00  0.00     0.029 A 
HETATM   30  C   UNL     1      39.045 -13.378  -0.208  1.00  0.00     0.002 A 
HETATM   31  C   UNL     1      39.365 -13.579  -1.549  1.00  0.00     0.000 A 
HETATM   32  C   UNL     1      40.408 -14.436  -1.888  1.00  0.00     0.002 A 
HETATM   33  C   UNL     1      41.130 -15.090  -0.885  1.00  0.00     0.029 A 
ENDBRANCH  25  28
ENDBRANCH  10  24
TORSDOF 6
ENDMDL
MODEL 7
REMARK VINA RESULT:      -7.4      2.297      3.227
REMARK  6 active torsions:
REMARK  status: ('A' for Active; 'I' for Inactive)
REMARK    1  A    between atoms: C_2  and  O_3 
REMARK    2  A    between atoms: O_3  and  C_4 
REMARK    3  A    between atoms: C_5  and  O_6 
REMARK    4  A    between atoms: C_10  and  C_11 
REMARK    5  A    between atoms: C_20  and  C_21 
REMARK       I    between atoms: C_21  and  N_22 
REMARK    6  A    between atoms: N_22  and  C_23 
ROOT
HETATM    1  C   UNL     1      41.073 -14.369   4.041  1.00  0.00     0.202 C 
HETATM    2  N   UNL     1      40.394 -13.504   5.011  1.00  0.00    -0.084 N 
HETATM    3  C   UNL     1      41.036 -12.810   6.001  1.00  0.00     0.725 A 
HETATM    4  N   UNL     1      40.161 -12.129   6.693  1.00  0.00    -0.054 NA
HETATM    5  C   UNL     1      38.972 -12.469   6.100  1.00  0.00     0.275 A 
HETATM    6  N   UNL     1      39.058 -13.322   5.071  1.00  0.00    -0.149 NA
HETATM    7  N   UNL     1      42.369 -12.945   6.144  1.00  0.00    -0.192 N 
HETATM    8  C   UNL     1      43.113 -13.891   5.444  1.00  0.00     0.037 C 
HETATM    9  C   UNL     1      44.506 -14.134   5.971  1.00  0.00     0.070 C 
HETATM   10  C   UNL     1      42.540 -14.572   4.418  1.00  0.00     0.062 C 
HETATM   11  H   UNL     1      42.796 -12.530   6.969  1.00  0.00     0.184 HD
ENDROOT
BRANCH   1  12
HETATM   12  C   UNL     1      40.895 -13.791   2.635  1.00  0.00    -0.024 A 
HETATM   13  C   UNL     1      41.140 -12.424   2.415  1.00  0.00     0.031 A 
HETATM   14  C   UNL     1      41.034 -11.881   1.133  1.00  0.00     0.047 A 
HETATM   15  C   UNL     1      40.678 -12.700   0.064  1.00  0.00     0.116 A 
HETATM   16 BR   UNL     1      41.400 -10.037   0.894  1.00  0.00    -0.048 Br
HETATM   17  C   UNL     1      40.418 -14.063   0.260  1.00  0.00     0.103 A 
HETATM   18  C   UNL     1      40.532 -14.605   1.542  1.00  0.00     0.049 A 
BRANCH  15  19
HETATM   19  O   UNL     1      40.580 -12.185  -1.205  1.00  0.00    -0.357 OA
HETATM   20  H   UNL     1      39.725 -11.715  -1.229  1.00  0.00     0.218 HD
ENDBRANCH  15  19
BRANCH  17  21
HETATM   21  O   UNL     1      40.076 -14.751  -0.878  1.00  0.00    -0.349 OA
BRANCH  21  22
HETATM   22  C   UNL     1      41.075 -15.586  -1.461  1.00  0.00     0.171 C 
HETATM   23  C   UNL     1      40.878 -15.568  -2.966  1.00  0.00     0.034 C 
ENDBRANCH  21  22
ENDBRANCH  17  21
ENDBRANCH   1  12
BRANCH  10  24
HETATM   24  C   UNL     1      43.207 -15.664   3.656  1.00  0.00     0.256 C 
HETATM   25  N   UNL     1      42.982 -16.920   4.175  1.00  0.00    -0.323 N 
HETATM   26  H   UNL     1      42.431 -16.980   5.021  1.00  0.00     0.169 HD
HETATM   27  O   UNL     1      43.904 -15.365   2.695  1.00  0.00    -0.267 OA
BRANCH  25  28
HETATM   28  C   UNL     1      43.386 -18.154   3.623  1.00  0.00     0.035 A 
HETATM   29  C   UNL     1      42.970 -18.628   2.378  1.00  0.00     0.029 A 
HETATM   30  C   UNL     1      43.392 -19.879   1.917  1.00  0.00     0.002 A 
HETATM   31  C   UNL     1      44.231 -20.670   2.698  1.00  0.00     0.000 A 
HETATM   32  C   UNL     1      44.655 -20.207   3.941  1.00  0.00     0.002 A 
HETATM   33  C   UNL     1      44.240 -18.953   4.398  1.00  0.00     0.029 A 
ENDBRANCH  25  28
ENDBRANCH  10  24
TORSDOF 6
ENDMDL
MODEL 8
REMARK VINA RESULT:      -7.4      3.276      5.930
REMARK  6 active torsions:
REMARK  status: ('A' for Active; 'I' for Inactive)
REMARK    1  A    between atoms: C_2  and  O_3 
REMARK    2  A    between atoms: O_3  and  C_4 
REMARK    3  A    between atoms: C_5  and  O_6 
REMARK    4  A    between atoms: C_10  and  C_11 
REMARK    5  A    between atoms: C_20  and  C_21 
REMARK       I    between atoms: C_21  and  N_22 
REMARK    6  A    between atoms: N_22  and  C_23 
ROOT
HETATM    1  C   UNL     1      42.415 -14.356   1.795  1.00  0.00     0.202 C 
HETATM    2  N   UNL     1      41.598 -13.593   0.846  1.00  0.00    -0.084 N 
HETATM    3  C   UNL     1      40.549 -14.119   0.143  1.00  0.00     0.725 A 
HETATM    4  N   UNL     1      40.021 -13.190  -0.611  1.00  0.00    -0.054 NA
HETATM    5  C   UNL     1      40.816 -12.103  -0.356  1.00  0.00     0.275 A 
HETATM    6  N   UNL     1      41.808 -12.300   0.522  1.00  0.00    -0.149 NA
HETATM    7  N   UNL     1      40.251 -15.426   0.278  1.00  0.00    -0.192 N 
HETATM    8  C   UNL     1      41.066 -16.319   0.969  1.00  0.00     0.037 C 
HETATM    9  C   UNL     1      40.767 -17.780   0.730  1.00  0.00     0.070 C 
HETATM   10  C   UNL     1      42.091 -15.848   1.724  1.00  0.00     0.062 C 
HETATM   11  H   UNL     1      39.560 -15.817  -0.358  1.00  0.00     0.184 HD
ENDROOT
BRANCH   1  12
HETATM   12  C   UNL     1      42.236 -13.776   3.199  1.00  0.00    -0.024 A 
HETATM   13  C   UNL     1      41.023 -13.149   3.537  1.00  0.00     0.031 A 
HETATM   14  C   UNL     1      40.813 -12.655   4.827  1.00  0.00     0.047 A 
HETATM   15  C   UNL     1      41.818 -12.779   5.785  1.00  0.00     0.116 A 
HETATM   16 BR   UNL     1      39.149 -11.843   5.229  1.00  0.00    -0.048 Br
HETATM   17  C   UNL     1      43.039 -13.389   5.469  1.00  0.00     0.103 A 
HETATM   18  C   UNL     1      43.242 -13.889   4.181  1.00  0.00     0.049 A 
BRANCH  15  19
HETATM   19  O   UNL     1      41.624 -12.309   7.059  1.00  0.00    -0.357 OA
HETATM   20  H   UNL     1      41.149 -13.021   7.529  1.00  0.00     0.218 HD
ENDBRANCH  15  19
BRANCH  17  21
HETATM   21  O   UNL     1      43.938 -13.442   6.505  1.00  0.00    -0.349 OA
BRANCH  21  22
HETATM   22  C   UNL     1      44.713 -14.633   6.636  1.00  0.00     0.171 C 
HETATM   23  C   UNL     1      43.887 -15.643   7.413  1.00  0.00     0.034 C 
ENDBRANCH  21  22
ENDBRANCH  17  21
ENDBRANCH   1  12
BRANCH  10  24
HETATM   24  C   UNL     1      43.077 -16.708   2.435  1.00  0.00     0.256 C 
HETATM   25  N   UNL     1      42.507 -17.564   3.352  1.00  0.00    -0.323 N 
HETATM   26  H   UNL     1      41.505 -17.507   3.480  1.00  0.00     0.169 HD
HETATM   27  O   UNL     1      44.266 -16.563   2.186  1.00  0.00    -0.267 OA
BRANCH  25  28
HETATM   28  C   UNL     1      43.159 -18.568   4.099  1.00  0.00     0.035 A 
HETATM   29  C   UNL     1      43.121 -18.655   5.492  1.00  0.00     0.029 A 
HETATM   30  C   UNL     1      43.821 -19.665   6.160  1.00  0.00     0.002 A 
HETATM   31  C   UNL     1      44.570 -20.594   5.442  1.00  0.00     0.000 A 
HETATM   32  C   UNL     1      44.613 -20.519   4.053  1.00  0.00     0.002 A 
HETATM   33  C   UNL     1      43.907 -19.515   3.384  1.00  0.00     0.029 A 
ENDBRANCH  25  28
ENDBRANCH  10  24
TORSDOF 6
ENDMDL
MODEL 9
REMARK VINA RESULT:      -7.3      3.297      7.621
REMARK  6 active torsions:
REMARK  status: ('A' for Active; 'I' for Inactive)
REMARK    1  A    between atoms: C_2  and  O_3 
REMARK    2  A    between atoms: O_3  and  C_4 
REMARK    3  A    between atoms: C_5  and  O_6 
REMARK    4  A    between atoms: C_10  and  C_11 
REMARK    5  A    between atoms: C_20  and  C_21 
REMARK       I    between atoms: C_21  and  N_22 
REMARK    6  A    between atoms: N_22  and  C_23 
ROOT
HETATM    1  C   UNL     1      42.054 -17.496   4.358  1.00  0.00     0.202 C 
HETATM    2  N   UNL     1      42.989 -18.411   5.020  1.00  0.00    -0.084 N 
HETATM    3  C   UNL     1      44.084 -18.960   4.410  1.00  0.00     0.725 A 
HETATM    4  N   UNL     1      44.720 -19.723   5.260  1.00  0.00    -0.054 NA
HETATM    5  C   UNL     1      43.943 -19.634   6.387  1.00  0.00     0.275 A 
HETATM    6  N   UNL     1      42.861 -18.852   6.288  1.00  0.00    -0.149 NA
HETATM    7  N   UNL     1      44.319 -18.695   3.110  1.00  0.00    -0.192 N 
HETATM    8  C   UNL     1      43.407 -18.027   2.298  1.00  0.00     0.037 C 
HETATM    9  C   UNL     1      43.674 -18.122   0.815  1.00  0.00     0.070 C 
HETATM   10  C   UNL     1      42.328 -17.420   2.857  1.00  0.00     0.062 C 
HETATM   11  H   UNL     1      45.056 -19.225   2.650  1.00  0.00     0.184 HD
ENDROOT
BRANCH   1  12
HETATM   12  C   UNL     1      42.111 -16.129   5.042  1.00  0.00    -0.024 A 
HETATM   13  C   UNL     1      43.324 -15.687   5.600  1.00  0.00     0.031 A 
HETATM   14  C   UNL     1      43.418 -14.423   6.186  1.00  0.00     0.047 A 
HETATM   15  C   UNL     1      42.297 -13.595   6.224  1.00  0.00     0.116 A 
HETATM   16 BR   UNL     1      45.086 -13.873   6.898  1.00  0.00    -0.048 Br
HETATM   17  C   UNL     1      41.074 -14.018   5.686  1.00  0.00     0.103 A 
HETATM   18  C   UNL     1      40.986 -15.280   5.094  1.00  0.00     0.049 A 
BRANCH  15  19
HETATM   19  O   UNL     1      42.374 -12.346   6.786  1.00  0.00    -0.357 OA
HETATM   20  H   UNL     1      42.302 -12.489   7.749  1.00  0.00     0.218 HD
ENDBRANCH  15  19
BRANCH  17  21
HETATM   21  O   UNL     1      40.055 -13.105   5.793  1.00  0.00    -0.349 OA
BRANCH  21  22
HETATM   22  C   UNL     1      39.414 -12.698   4.585  1.00  0.00     0.171 C 
HETATM   23  C   UNL     1      40.132 -11.463   4.070  1.00  0.00     0.034 C 
ENDBRANCH  21  22
ENDBRANCH  17  21
ENDBRANCH   1  12
BRANCH  10  24
HETATM   24  C   UNL     1      41.244 -16.752   2.084  1.00  0.00     0.256 C 
HETATM   25  N   UNL     1      41.637 -15.580   1.476  1.00  0.00    -0.323 N 
HETATM   26  H   UNL     1      42.588 -15.271   1.634  1.00  0.00     0.169 HD
HETATM   27  O   UNL     1      40.129 -17.257   2.085  1.00  0.00    -0.267 OA
BRANCH  25  28
HETATM   28  C   UNL     1      40.877 -14.780   0.596  1.00  0.00     0.035 A 
HETATM   29  C   UNL     1      40.000 -13.777   1.011  1.00  0.00     0.029 A 
HETATM   30  C   UNL     1      39.259 -13.049   0.075  1.00  0.00     0.002 A 
HETATM   31  C   UNL     1      39.385 -13.321  -1.285  1.00  0.00     0.000 A 
HETATM   32  C   UNL     1      40.259 -14.317  -1.712  1.00  0.00     0.002 A 
HETATM   33  C   UNL     1      41.006 -15.039  -0.776  1.00  0.00     0.029 A 
ENDBRANCH  25  28
ENDBRANCH  10  24
TORSDOF 6
ENDMDL
MODEL 10
REMARK VINA RESULT:      -7.3      3.614      7.041
REMARK  6 active torsions:
REMARK  status: ('A' for Active; 'I' for Inactive)
REMARK    1  A    between atoms: C_2  and  O_3 
REMARK    2  A    between atoms: O_3  and  C_4 
REMARK    3  A    between atoms: C_5  and  O_6 
REMARK    4  A    between atoms: C_10  and  C_11 
REMARK    5  A    between atoms: C_20  and  C_21 
REMARK       I    between atoms: C_21  and  N_22 
REMARK    6  A    between atoms: N_22  and  C_23 
ROOT
HETATM    1  C   UNL     1      43.230 -15.177   4.381  1.00  0.00     0.202 C 
HETATM    2  N   UNL     1      43.801 -14.443   5.515  1.00  0.00    -0.084 N 
HETATM    3  C   UNL     1      43.054 -13.799   6.463  1.00  0.00     0.725 A 
HETATM    4  N   UNL     1      43.849 -13.248   7.343  1.00  0.00    -0.054 NA
HETATM    5  C   UNL     1      45.096 -13.560   6.864  1.00  0.00     0.275 A 
HETATM    6  N   UNL     1      45.122 -14.282   5.736  1.00  0.00    -0.149 NA
HETATM    7  N   UNL     1      41.712 -13.783   6.350  1.00  0.00    -0.192 N 
HETATM    8  C   UNL     1      41.043 -14.244   5.219  1.00  0.00     0.037 C 
HETATM    9  C   UNL     1      39.592 -13.840   5.119  1.00  0.00     0.070 C 
HETATM   10  C   UNL     1      41.726 -14.936   4.270  1.00  0.00     0.062 C 
HETATM   11  H   UNL     1      41.194 -13.182   6.988  1.00  0.00     0.184 HD
ENDROOT
BRANCH   1  12
HETATM   12  C   UNL     1      43.587 -16.660   4.504  1.00  0.00    -0.024 A 
HETATM   13  C   UNL     1      43.576 -17.268   5.772  1.00  0.00     0.031 A 
HETATM   14  C   UNL     1      43.848 -18.631   5.908  1.00  0.00     0.047 A 
HETATM   15  C   UNL     1      44.139 -19.393   4.778  1.00  0.00     0.116 A 
HETATM   16 BR   UNL     1      43.794 -19.400   7.640  1.00  0.00    -0.048 Br
HETATM   17  C   UNL     1      44.167 -18.807   3.506  1.00  0.00     0.103 A 
HETATM   18  C   UNL     1      43.887 -17.445   3.372  1.00  0.00     0.049 A 
BRANCH  15  19
HETATM   19  O   UNL     1      44.397 -20.736   4.892  1.00  0.00    -0.357 OA
HETATM   20  H   UNL     1      45.323 -20.797   5.196  1.00  0.00     0.218 HD
ENDBRANCH  15  19
BRANCH  17  21
HETATM   21  O   UNL     1      44.468 -19.672   2.483  1.00  0.00    -0.349 OA
BRANCH  21  22
HETATM   22  C   UNL     1      43.377 -20.338   1.850  1.00  0.00     0.171 C 
HETATM   23  C   UNL     1      43.791 -21.777   1.598  1.00  0.00     0.034 C 
ENDBRANCH  21  22
ENDBRANCH  17  21
ENDBRANCH   1  12
BRANCH  10  24
HETATM   24  C   UNL     1      41.138 -15.401   2.983  1.00  0.00     0.256 C 
HETATM   25  N   UNL     1      41.237 -14.481   1.963  1.00  0.00    -0.323 N 
HETATM   26  H   UNL     1      41.654 -13.587   2.184  1.00  0.00     0.169 HD
HETATM   27  O   UNL     1      40.603 -16.502   2.949  1.00  0.00    -0.267 OA
BRANCH  25  28
HETATM   28  C   UNL     1      40.873 -14.665   0.612  1.00  0.00     0.035 A 
HETATM   29  C   UNL     1      41.469 -15.598  -0.238  1.00  0.00     0.029 A 
HETATM   30  C   UNL     1      41.071 -15.695  -1.575  1.00  0.00     0.002 A 
HETATM   31  C   UNL     1      40.078 -14.858  -2.076  1.00  0.00     0.000 A 
HETATM   32  C   UNL     1      39.474 -13.924  -1.237  1.00  0.00     0.002 A 
HETATM   33  C   UNL     1      39.866 -13.833   0.102  1.00  0.00     0.029 A 
ENDBRANCH  25  28
ENDBRANCH  10  24
TORSDOF 6
ENDMDL
