MODEL 1
REMARK VINA RESULT:      -7.9      0.000      0.000
REMARK  5 active torsions:
REMARK  status: ('A' for Active; 'I' for Inactive)
REMARK    1  A    between atoms: C_4  and  C_5 
REMARK    2  A    between atoms: C_5  and  O_6 
REMARK    3  A    between atoms: O_6  and  C_7 
REMARK    4  A    between atoms: C_8  and  N_9 
REMARK       I    between atoms: N_9  and  C_10 
REMARK       I    between atoms: C_10  and  N_11 
REMARK    5  A    between atoms: N_11  and  C_12 
ROOT
HETATM    1  C   UNL     1      42.272 -16.978   5.235  1.00  0.00     0.037 A 
HETATM    2  C   UNL     1      42.579 -15.698   4.762  1.00  0.00     0.052 A 
HETATM    3  C   UNL     1      41.756 -14.609   5.074  1.00  0.00     0.046 A 
HETATM    4  C   UNL     1      42.117 -13.293   4.639  1.00  0.00     0.099 C 
HETATM    5  N   UNL     1      42.421 -12.227   4.294  1.00  0.00    -0.191 NA
HETATM    6  C   UNL     1      40.596 -14.806   5.826  1.00  0.00     0.023 A 
HETATM    7  C   UNL     1      40.269 -16.086   6.274  1.00  0.00     0.004 A 
HETATM    8  C   UNL     1      41.112 -17.165   5.989  1.00  0.00     0.029 A 
ENDROOT
BRANCH   1   9
HETATM    9  N   UNL     1      43.166 -18.011   4.920  1.00  0.00    -0.309 N 
HETATM   10  C   UNL     1      44.287 -18.391   5.601  1.00  0.00     0.326 C 
HETATM   11  N   UNL     1      45.050 -19.367   5.022  1.00  0.00    -0.291 N 
HETATM   12  O   UNL     1      44.704 -17.881   6.640  1.00  0.00    -0.247 OA
HETATM   13  H   UNL     1      45.937 -19.454   5.488  1.00  0.00     0.172 HD
HETATM   14  H   UNL     1      43.055 -18.486   4.028  1.00  0.00     0.170 HD
BRANCH  11  15
HETATM   15  C   UNL     1      44.752 -20.220   3.948  1.00  0.00     0.165 A 
HETATM   16  C   UNL     1      44.445 -19.713   2.676  1.00  0.00     0.115 A 
HETATM   17  C   UNL     1      44.128 -20.628   1.665  1.00  0.00     0.042 A 
HETATM   18  C   UNL     1      44.147 -21.992   1.915  1.00  0.00     0.022 A 
HETATM   19  C   UNL     1      44.461 -22.404   3.192  1.00  0.00     0.119 A 
HETATM   20  N   UNL     1      44.751 -21.555   4.204  1.00  0.00    -0.240 NA
BRANCH  16  21
HETATM   21  O   UNL     1      44.229 -18.418   2.307  1.00  0.00    -0.343 OA
BRANCH  21  22
HETATM   22  C   UNL     1      43.571 -18.137   1.074  1.00  0.00     0.214 C 
BRANCH  22  23
HETATM   23  C   UNL     1      42.404 -17.206   1.333  1.00  0.00    -0.034 A 
HETATM   24  C   UNL     1      42.489 -15.825   1.078  1.00  0.00     0.009 A 
HETATM   25  C   UNL     1      41.403 -14.982   1.314  1.00  0.00     0.001 A 
HETATM   26  C   UNL     1      40.214 -15.504   1.813  1.00  0.00     0.000 A 
HETATM   27  C   UNL     1      40.110 -16.869   2.067  1.00  0.00     0.001 A 
HETATM   28  C   UNL     1      41.194 -17.718   1.821  1.00  0.00     0.009 A 
ENDBRANCH  22  23
ENDBRANCH  21  22
ENDBRANCH  16  21
ENDBRANCH  11  15
ENDBRANCH   1   9
TORSDOF 5
ENDMDL
MODEL 2
REMARK VINA RESULT:      -7.7      2.833      6.111
REMARK  5 active torsions:
REMARK  status: ('A' for Active; 'I' for Inactive)
REMARK    1  A    between atoms: C_4  and  C_5 
REMARK    2  A    between atoms: C_5  and  O_6 
REMARK    3  A    between atoms: O_6  and  C_7 
REMARK    4  A    between atoms: C_8  and  N_9 
REMARK       I    between atoms: N_9  and  C_10 
REMARK       I    between atoms: C_10  and  N_11 
REMARK    5  A    between atoms: N_11  and  C_12 
ROOT
HETATM    1  C   UNL     1      40.350 -14.396   1.012  1.00  0.00     0.037 A 
HETATM    2  C   UNL     1      40.904 -14.799  -0.207  1.00  0.00     0.052 A 
HETATM    3  C   UNL     1      40.245 -14.522  -1.412  1.00  0.00     0.046 A 
HETATM    4  C   UNL     1      40.854 -14.880  -2.657  1.00  0.00     0.099 C 
HETATM    5  N   UNL     1      41.357 -15.163  -3.665  1.00  0.00    -0.191 NA
HETATM    6  C   UNL     1      39.006 -13.877  -1.396  1.00  0.00     0.023 A 
HETATM    7  C   UNL     1      38.436 -13.501  -0.180  1.00  0.00     0.004 A 
HETATM    8  C   UNL     1      39.113 -13.749   1.018  1.00  0.00     0.029 A 
ENDROOT
BRANCH   1   9
HETATM    9  N   UNL     1      41.087 -14.667   2.174  1.00  0.00    -0.309 N 
HETATM   10  C   UNL     1      42.238 -14.067   2.600  1.00  0.00     0.326 C 
HETATM   11  N   UNL     1      42.820 -14.593   3.721  1.00  0.00    -0.291 N 
HETATM   12  O   UNL     1      42.828 -13.155   2.024  1.00  0.00    -0.247 OA
HETATM   13  H   UNL     1      43.742 -14.218   3.856  1.00  0.00     0.172 HD
HETATM   14  H   UNL     1      40.820 -15.472   2.734  1.00  0.00     0.170 HD
BRANCH  11  15
HETATM   15  C   UNL     1      42.306 -15.507   4.653  1.00  0.00     0.165 A 
HETATM   16  C   UNL     1      42.945 -16.731   4.904  1.00  0.00     0.115 A 
HETATM   17  C   UNL     1      42.353 -17.603   5.827  1.00  0.00     0.042 A 
HETATM   18  C   UNL     1      41.186 -17.246   6.487  1.00  0.00     0.022 A 
HETATM   19  C   UNL     1      40.626 -16.025   6.181  1.00  0.00     0.119 A 
HETATM   20  N   UNL     1      41.151 -15.163   5.282  1.00  0.00    -0.240 NA
BRANCH  16  21
HETATM   21  O   UNL     1      43.993 -17.296   4.238  1.00  0.00    -0.343 OA
BRANCH  21  22
HETATM   22  C   UNL     1      43.800 -17.799   2.918  1.00  0.00     0.214 C 
BRANCH  22  23
HETATM   23  C   UNL     1      44.001 -19.301   2.924  1.00  0.00    -0.034 A 
HETATM   24  C   UNL     1      44.596 -19.963   4.013  1.00  0.00     0.009 A 
HETATM   25  C   UNL     1      44.767 -21.347   4.006  1.00  0.00     0.001 A 
HETATM   26  C   UNL     1      44.349 -22.094   2.910  1.00  0.00     0.000 A 
HETATM   27  C   UNL     1      43.754 -21.456   1.824  1.00  0.00     0.001 A 
HETATM   28  C   UNL     1      43.572 -20.069   1.833  1.00  0.00     0.009 A 
ENDBRANCH  22  23
ENDBRANCH  21  22
ENDBRANCH  16  21
ENDBRANCH  11  15
ENDBRANCH   1   9
TORSDOF 5
ENDMDL
MODEL 3
REMARK VINA RESULT:      -7.7      3.556      5.870
REMARK  5 active torsions:
REMARK  status: ('A' for Active; 'I' for Inactive)
REMARK    1  A    between atoms: C_4  and  C_5 
REMARK    2  A    between atoms: C_5  and  O_6 
REMARK    3  A    between atoms: O_6  and  C_7 
REMARK    4  A    between atoms: C_8  and  N_9 
REMARK       I    between atoms: N_9  and  C_10 
REMARK       I    between atoms: C_10  and  N_11 
REMARK    5  A    between atoms: N_11  and  C_12 
ROOT
HETATM    1  C   UNL     1      44.708 -13.496   7.532  1.00  0.00     0.037 A 
HETATM    2  C   UNL     1      44.301 -12.821   8.688  1.00  0.00     0.052 A 
HETATM    3  C   UNL     1      45.155 -11.903   9.312  1.00  0.00     0.046 A 
HETATM    4  C   UNL     1      44.704 -11.170  10.455  1.00  0.00     0.099 C 
HETATM    5  N   UNL     1      44.328 -10.570  11.375  1.00  0.00    -0.191 NA
HETATM    6  C   UNL     1      46.439 -11.691   8.803  1.00  0.00     0.023 A 
HETATM    7  C   UNL     1      46.860 -12.384   7.669  1.00  0.00     0.004 A 
HETATM    8  C   UNL     1      45.991 -13.274   7.029  1.00  0.00     0.029 A 
ENDROOT
BRANCH   1   9
HETATM    9  N   UNL     1      43.782 -14.366   6.936  1.00  0.00    -0.309 N 
HETATM   10  C   UNL     1      43.511 -15.662   7.269  1.00  0.00     0.326 C 
HETATM   11  N   UNL     1      42.634 -16.328   6.457  1.00  0.00    -0.291 N 
HETATM   12  O   UNL     1      44.041 -16.296   8.180  1.00  0.00    -0.247 OA
HETATM   13  H   UNL     1      42.633 -17.312   6.661  1.00  0.00     0.172 HD
HETATM   14  H   UNL     1      43.318 -14.061   6.085  1.00  0.00     0.170 HD
BRANCH  11  15
HETATM   15  C   UNL     1      41.777 -15.831   5.464  1.00  0.00     0.165 A 
HETATM   16  C   UNL     1      41.916 -16.213   4.120  1.00  0.00     0.115 A 
HETATM   17  C   UNL     1      41.041 -15.649   3.184  1.00  0.00     0.042 A 
HETATM   18  C   UNL     1      40.053 -14.762   3.586  1.00  0.00     0.022 A 
HETATM   19  C   UNL     1      39.986 -14.443   4.925  1.00  0.00     0.119 A 
HETATM   20  N   UNL     1      40.824 -14.946   5.859  1.00  0.00    -0.240 NA
BRANCH  16  21
HETATM   21  O   UNL     1      42.916 -16.938   3.542  1.00  0.00    -0.343 OA
BRANCH  21  22
HETATM   22  C   UNL     1      42.610 -17.840   2.481  1.00  0.00     0.214 C 
BRANCH  22  23
HETATM   23  C   UNL     1      43.320 -19.156   2.726  1.00  0.00    -0.034 A 
HETATM   24  C   UNL     1      43.250 -20.217   1.805  1.00  0.00     0.009 A 
HETATM   25  C   UNL     1      43.916 -21.419   2.041  1.00  0.00     0.001 A 
HETATM   26  C   UNL     1      44.661 -21.584   3.204  1.00  0.00     0.000 A 
HETATM   27  C   UNL     1      44.746 -20.543   4.126  1.00  0.00     0.001 A 
HETATM   28  C   UNL     1      44.087 -19.333   3.886  1.00  0.00     0.009 A 
ENDBRANCH  22  23
ENDBRANCH  21  22
ENDBRANCH  16  21
ENDBRANCH  11  15
ENDBRANCH   1   9
TORSDOF 5
ENDMDL
MODEL 4
REMARK VINA RESULT:      -7.7      2.539      5.587
REMARK  5 active torsions:
REMARK  status: ('A' for Active; 'I' for Inactive)
REMARK    1  A    between atoms: C_4  and  C_5 
REMARK    2  A    between atoms: C_5  and  O_6 
REMARK    3  A    between atoms: O_6  and  C_7 
REMARK    4  A    between atoms: C_8  and  N_9 
REMARK       I    between atoms: N_9  and  C_10 
REMARK       I    between atoms: C_10  and  N_11 
REMARK    5  A    between atoms: N_11  and  C_12 
ROOT
HETATM    1  C   UNL     1      42.796 -15.144   4.900  1.00  0.00     0.037 A 
HETATM    2  C   UNL     1      42.952 -16.278   5.703  1.00  0.00     0.052 A 
HETATM    3  C   UNL     1      43.860 -16.273   6.769  1.00  0.00     0.046 A 
HETATM    4  C   UNL     1      43.964 -17.416   7.625  1.00  0.00     0.099 C 
HETATM    5  N   UNL     1      44.035 -18.342   8.322  1.00  0.00    -0.191 NA
HETATM    6  C   UNL     1      44.648 -15.144   7.008  1.00  0.00     0.023 A 
HETATM    7  C   UNL     1      44.517 -14.022   6.190  1.00  0.00     0.004 A 
HETATM    8  C   UNL     1      43.585 -14.019   5.148  1.00  0.00     0.029 A 
ENDROOT
BRANCH   1   9
HETATM    9  N   UNL     1      41.836 -15.206   3.879  1.00  0.00    -0.309 N 
HETATM   10  C   UNL     1      40.476 -15.187   4.001  1.00  0.00     0.326 C 
HETATM   11  N   UNL     1      39.759 -15.370   2.850  1.00  0.00    -0.291 N 
HETATM   12  O   UNL     1      39.850 -15.097   5.056  1.00  0.00    -0.247 OA
HETATM   13  H   UNL     1      38.787 -15.524   3.053  1.00  0.00     0.172 HD
HETATM   14  H   UNL     1      42.154 -15.397   2.932  1.00  0.00     0.170 HD
BRANCH  11  15
HETATM   15  C   UNL     1      40.186 -15.342   1.514  1.00  0.00     0.165 A 
HETATM   16  C   UNL     1      41.055 -16.320   1.003  1.00  0.00     0.115 A 
HETATM   17  C   UNL     1      41.459 -16.206  -0.332  1.00  0.00     0.042 A 
HETATM   18  C   UNL     1      40.988 -15.170  -1.126  1.00  0.00     0.022 A 
HETATM   19  C   UNL     1      40.137 -14.255  -0.546  1.00  0.00     0.119 A 
HETATM   20  N   UNL     1      39.739 -14.314   0.745  1.00  0.00    -0.240 NA
BRANCH  16  21
HETATM   21  O   UNL     1      41.726 -17.296   1.679  1.00  0.00    -0.343 OA
BRANCH  21  22
HETATM   22  C   UNL     1      43.074 -17.598   1.327  1.00  0.00     0.214 C 
BRANCH  22  23
HETATM   23  C   UNL     1      43.575 -18.731   2.200  1.00  0.00    -0.034 A 
HETATM   24  C   UNL     1      43.645 -20.054   1.727  1.00  0.00     0.009 A 
HETATM   25  C   UNL     1      44.116 -21.085   2.539  1.00  0.00     0.001 A 
HETATM   26  C   UNL     1      44.523 -20.812   3.841  1.00  0.00     0.000 A 
HETATM   27  C   UNL     1      44.465 -19.507   4.326  1.00  0.00     0.001 A 
HETATM   28  C   UNL     1      44.002 -18.470   3.509  1.00  0.00     0.009 A 
ENDBRANCH  22  23
ENDBRANCH  21  22
ENDBRANCH  16  21
ENDBRANCH  11  15
ENDBRANCH   1   9
TORSDOF 5
ENDMDL
MODEL 5
REMARK VINA RESULT:      -7.6      1.965      2.903
REMARK  5 active torsions:
REMARK  status: ('A' for Active; 'I' for Inactive)
REMARK    1  A    between atoms: C_4  and  C_5 
REMARK    2  A    between atoms: C_5  and  O_6 
REMARK    3  A    between atoms: O_6  and  C_7 
REMARK    4  A    between atoms: C_8  and  N_9 
REMARK       I    between atoms: N_9  and  C_10 
REMARK       I    between atoms: C_10  and  N_11 
REMARK    5  A    between atoms: N_11  and  C_12 
ROOT
HETATM    1  C   UNL     1      41.941 -15.380   5.211  1.00  0.00     0.037 A 
HETATM    2  C   UNL     1      42.375 -14.740   4.046  1.00  0.00     0.052 A 
HETATM    3  C   UNL     1      41.573 -13.774   3.425  1.00  0.00     0.046 A 
HETATM    4  C   UNL     1      42.056 -13.079   2.271  1.00  0.00     0.099 C 
HETATM    5  N   UNL     1      42.458 -12.510   1.341  1.00  0.00    -0.191 NA
HETATM    6  C   UNL     1      40.311 -13.478   3.946  1.00  0.00     0.023 A 
HETATM    7  C   UNL     1      39.862 -14.136   5.091  1.00  0.00     0.004 A 
HETATM    8  C   UNL     1      40.680 -15.074   5.727  1.00  0.00     0.029 A 
ENDROOT
BRANCH   1   9
HETATM    9  N   UNL     1      42.817 -16.302   5.803  1.00  0.00    -0.309 N 
HETATM   10  C   UNL     1      43.870 -16.049   6.633  1.00  0.00     0.326 C 
HETATM   11  N   UNL     1      44.637 -17.124   6.990  1.00  0.00    -0.291 N 
HETATM   12  O   UNL     1      44.229 -14.938   7.021  1.00  0.00    -0.247 OA
HETATM   13  H   UNL     1      45.483 -16.827   7.444  1.00  0.00     0.172 HD
HETATM   14  H   UNL     1      42.754 -17.275   5.515  1.00  0.00     0.170 HD
BRANCH  11  15
HETATM   15  C   UNL     1      44.386 -18.495   6.833  1.00  0.00     0.165 A 
HETATM   16  C   UNL     1      44.499 -19.120   5.581  1.00  0.00     0.115 A 
HETATM   17  C   UNL     1      44.203 -20.486   5.501  1.00  0.00     0.042 A 
HETATM   18  C   UNL     1      43.836 -21.197   6.634  1.00  0.00     0.022 A 
HETATM   19  C   UNL     1      43.751 -20.506   7.823  1.00  0.00     0.119 A 
HETATM   20  N   UNL     1      44.006 -19.184   7.942  1.00  0.00    -0.240 NA
BRANCH  16  21
HETATM   21  O   UNL     1      44.691 -18.546   4.359  1.00  0.00    -0.343 OA
BRANCH  21  22
HETATM   22  C   UNL     1      44.261 -19.230   3.184  1.00  0.00     0.214 C 
BRANCH  22  23
HETATM   23  C   UNL     1      43.288 -18.351   2.424  1.00  0.00    -0.034 A 
HETATM   24  C   UNL     1      41.952 -18.196   2.837  1.00  0.00     0.009 A 
HETATM   25  C   UNL     1      41.071 -17.377   2.132  1.00  0.00     0.001 A 
HETATM   26  C   UNL     1      41.509 -16.699   1.000  1.00  0.00     0.000 A 
HETATM   27  C   UNL     1      42.830 -16.835   0.577  1.00  0.00     0.001 A 
HETATM   28  C   UNL     1      43.718 -17.649   1.289  1.00  0.00     0.009 A 
ENDBRANCH  22  23
ENDBRANCH  21  22
ENDBRANCH  16  21
ENDBRANCH  11  15
ENDBRANCH   1   9
TORSDOF 5
ENDMDL
MODEL 6
REMARK VINA RESULT:      -7.5      2.687      5.354
REMARK  5 active torsions:
REMARK  status: ('A' for Active; 'I' for Inactive)
REMARK    1  A    between atoms: C_4  and  C_5 
REMARK    2  A    between atoms: C_5  and  O_6 
REMARK    3  A    between atoms: O_6  and  C_7 
REMARK    4  A    between atoms: C_8  and  N_9 
REMARK       I    between atoms: N_9  and  C_10 
REMARK       I    between atoms: C_10  and  N_11 
REMARK    5  A    between atoms: N_11  and  C_12 
ROOT
HETATM    1  C   UNL     1      42.378 -15.389   5.413  1.00  0.00     0.037 A 
HETATM    2  C   UNL     1      43.410 -14.470   5.627  1.00  0.00     0.052 A 
HETATM    3  C   UNL     1      44.302 -14.638   6.694  1.00  0.00     0.046 A 
HETATM    4  C   UNL     1      45.393 -13.727   6.863  1.00  0.00     0.099 C 
HETATM    5  N   UNL     1      46.283 -12.992   6.989  1.00  0.00    -0.191 NA
HETATM    6  C   UNL     1      44.134 -15.706   7.578  1.00  0.00     0.023 A 
HETATM    7  C   UNL     1      43.088 -16.608   7.387  1.00  0.00     0.004 A 
HETATM    8  C   UNL     1      42.222 -16.456   6.300  1.00  0.00     0.029 A 
ENDROOT
BRANCH   1   9
HETATM    9  N   UNL     1      41.553 -15.182   4.298  1.00  0.00    -0.309 N 
HETATM   10  C   UNL     1      40.239 -14.809   4.281  1.00  0.00     0.326 C 
HETATM   11  N   UNL     1      39.631 -14.779   3.056  1.00  0.00    -0.291 N 
HETATM   12  O   UNL     1      39.546 -14.574   5.270  1.00  0.00    -0.247 OA
HETATM   13  H   UNL     1      38.635 -14.675   3.152  1.00  0.00     0.172 HD
HETATM   14  H   UNL     1      41.913 -15.434   3.382  1.00  0.00     0.170 HD
BRANCH  11  15
HETATM   15  C   UNL     1      40.194 -14.843   1.773  1.00  0.00     0.165 A 
HETATM   16  C   UNL     1      40.891 -15.980   1.337  1.00  0.00     0.115 A 
HETATM   17  C   UNL     1      41.450 -15.955   0.053  1.00  0.00     0.042 A 
HETATM   18  C   UNL     1      41.292 -14.845  -0.764  1.00  0.00     0.022 A 
HETATM   19  C   UNL     1      40.592 -13.771  -0.257  1.00  0.00     0.119 A 
HETATM   20  N   UNL     1      40.055 -13.744   0.983  1.00  0.00    -0.240 NA
BRANCH  16  21
HETATM   21  O   UNL     1      41.268 -17.074   2.058  1.00  0.00    -0.343 OA
BRANCH  21  22
HETATM   22  C   UNL     1      41.783 -18.220   1.384  1.00  0.00     0.214 C 
BRANCH  22  23
HETATM   23  C   UNL     1      42.817 -18.893   2.263  1.00  0.00    -0.034 A 
HETATM   24  C   UNL     1      43.233 -18.326   3.482  1.00  0.00     0.009 A 
HETATM   25  C   UNL     1      44.180 -18.961   4.284  1.00  0.00     0.001 A 
HETATM   26  C   UNL     1      44.731 -20.173   3.882  1.00  0.00     0.000 A 
HETATM   27  C   UNL     1      44.328 -20.753   2.681  1.00  0.00     0.001 A 
HETATM   28  C   UNL     1      43.371 -20.122   1.879  1.00  0.00     0.009 A 
ENDBRANCH  22  23
ENDBRANCH  21  22
ENDBRANCH  16  21
ENDBRANCH  11  15
ENDBRANCH   1   9
TORSDOF 5
ENDMDL
MODEL 7
REMARK VINA RESULT:      -7.5      3.043      6.629
REMARK  5 active torsions:
REMARK  status: ('A' for Active; 'I' for Inactive)
REMARK    1  A    between atoms: C_4  and  C_5 
REMARK    2  A    between atoms: C_5  and  O_6 
REMARK    3  A    between atoms: O_6  and  C_7 
REMARK    4  A    between atoms: C_8  and  N_9 
REMARK       I    between atoms: N_9  and  C_10 
REMARK       I    between atoms: C_10  and  N_11 
REMARK    5  A    between atoms: N_11  and  C_12 
ROOT
HETATM    1  C   UNL     1      42.812 -17.610   2.153  1.00  0.00     0.037 A 
HETATM    2  C   UNL     1      43.081 -18.883   1.640  1.00  0.00     0.052 A 
HETATM    3  C   UNL     1      43.776 -19.825   2.408  1.00  0.00     0.046 A 
HETATM    4  C   UNL     1      43.988 -21.146   1.898  1.00  0.00     0.099 C 
HETATM    5  N   UNL     1      44.147 -22.219   1.485  1.00  0.00    -0.191 NA
HETATM    6  C   UNL     1      44.244 -19.479   3.679  1.00  0.00     0.023 A 
HETATM    7  C   UNL     1      44.004 -18.201   4.181  1.00  0.00     0.004 A 
HETATM    8  C   UNL     1      43.279 -17.275   3.425  1.00  0.00     0.029 A 
ENDROOT
BRANCH   1   9
HETATM    9  N   UNL     1      42.072 -16.735   1.344  1.00  0.00    -0.309 N 
HETATM   10  C   UNL     1      40.725 -16.510   1.361  1.00  0.00     0.326 C 
HETATM   11  N   UNL     1      40.234 -15.680   0.390  1.00  0.00    -0.291 N 
HETATM   12  O   UNL     1      39.916 -17.045   2.118  1.00  0.00    -0.247 OA
HETATM   13  H   UNL     1      39.230 -15.714   0.362  1.00  0.00     0.172 HD
HETATM   14  H   UNL     1      42.548 -16.277   0.571  1.00  0.00     0.170 HD
BRANCH  11  15
HETATM   15  C   UNL     1      40.917 -14.826  -0.488  1.00  0.00     0.165 A 
HETATM   16  C   UNL     1      41.441 -13.598  -0.055  1.00  0.00     0.115 A 
HETATM   17  C   UNL     1      42.083 -12.788  -0.999  1.00  0.00     0.042 A 
HETATM   18  C   UNL     1      42.217 -13.207  -2.314  1.00  0.00     0.022 A 
HETATM   19  C   UNL     1      41.674 -14.428  -2.655  1.00  0.00     0.119 A 
HETATM   20  N   UNL     1      41.028 -15.231  -1.782  1.00  0.00    -0.240 NA
BRANCH  16  21
HETATM   21  O   UNL     1      41.262 -12.974   1.145  1.00  0.00    -0.343 OA
BRANCH  21  22
HETATM   22  C   UNL     1      42.314 -12.981   2.107  1.00  0.00     0.214 C 
BRANCH  22  23
HETATM   23  C   UNL     1      41.798 -13.570   3.405  1.00  0.00    -0.034 A 
HETATM   24  C   UNL     1      40.433 -13.849   3.599  1.00  0.00     0.009 A 
HETATM   25  C   UNL     1      39.974 -14.399   4.795  1.00  0.00     0.001 A 
HETATM   26  C   UNL     1      40.871 -14.677   5.821  1.00  0.00     0.000 A 
HETATM   27  C   UNL     1      42.227 -14.411   5.646  1.00  0.00     0.001 A 
HETATM   28  C   UNL     1      42.691 -13.870   4.443  1.00  0.00     0.009 A 
ENDBRANCH  22  23
ENDBRANCH  21  22
ENDBRANCH  16  21
ENDBRANCH  11  15
ENDBRANCH   1   9
TORSDOF 5
ENDMDL
MODEL 8
REMARK VINA RESULT:      -7.4      2.730      6.175
REMARK  5 active torsions:
REMARK  status: ('A' for Active; 'I' for Inactive)
REMARK    1  A    between atoms: C_4  and  C_5 
REMARK    2  A    between atoms: C_5  and  O_6 
REMARK    3  A    between atoms: O_6  and  C_7 
REMARK    4  A    between atoms: C_8  and  N_9 
REMARK       I    between atoms: N_9  and  C_10 
REMARK       I    between atoms: C_10  and  N_11 
REMARK    5  A    between atoms: N_11  and  C_12 
ROOT
HETATM    1  C   UNL     1      40.415 -14.546   1.181  1.00  0.00     0.037 A 
HETATM    2  C   UNL     1      40.879 -15.004  -0.057  1.00  0.00     0.052 A 
HETATM    3  C   UNL     1      40.501 -14.356  -1.240  1.00  0.00     0.046 A 
HETATM    4  C   UNL     1      41.034 -14.793  -2.495  1.00  0.00     0.099 C 
HETATM    5  N   UNL     1      41.478 -15.144  -3.508  1.00  0.00    -0.191 NA
HETATM    6  C   UNL     1      39.620 -13.272  -1.190  1.00  0.00     0.023 A 
HETATM    7  C   UNL     1      39.132 -12.832   0.040  1.00  0.00     0.004 A 
HETATM    8  C   UNL     1      39.539 -13.460   1.221  1.00  0.00     0.029 A 
ENDROOT
BRANCH   1   9
HETATM    9  N   UNL     1      40.872 -15.215   2.326  1.00  0.00    -0.309 N 
HETATM   10  C   UNL     1      40.625 -16.505   2.701  1.00  0.00     0.326 C 
HETATM   11  N   UNL     1      41.104 -16.885   3.925  1.00  0.00    -0.291 N 
HETATM   12  O   UNL     1      39.952 -17.320   2.072  1.00  0.00    -0.247 OA
HETATM   13  H   UNL     1      40.726 -17.776   4.198  1.00  0.00     0.172 HD
HETATM   14  H   UNL     1      41.359 -14.674   3.035  1.00  0.00     0.170 HD
BRANCH  11  15
HETATM   15  C   UNL     1      42.016 -16.237   4.772  1.00  0.00     0.165 A 
HETATM   16  C   UNL     1      43.062 -16.938   5.391  1.00  0.00     0.115 A 
HETATM   17  C   UNL     1      43.913 -16.226   6.246  1.00  0.00     0.042 A 
HETATM   18  C   UNL     1      43.735 -14.865   6.446  1.00  0.00     0.022 A 
HETATM   19  C   UNL     1      42.683 -14.255   5.797  1.00  0.00     0.119 A 
HETATM   20  N   UNL     1      41.826 -14.907   4.981  1.00  0.00    -0.240 NA
BRANCH  16  21
HETATM   21  O   UNL     1      43.279 -18.284   5.428  1.00  0.00    -0.343 OA
BRANCH  21  22
HETATM   22  C   UNL     1      44.537 -18.807   5.008  1.00  0.00     0.214 C 
BRANCH  22  23
HETATM   23  C   UNL     1      44.311 -19.835   3.918  1.00  0.00    -0.034 A 
HETATM   24  C   UNL     1      44.762 -21.161   4.046  1.00  0.00     0.009 A 
HETATM   25  C   UNL     1      44.538 -22.098   3.038  1.00  0.00     0.001 A 
HETATM   26  C   UNL     1      43.862 -21.725   1.881  1.00  0.00     0.000 A 
HETATM   27  C   UNL     1      43.403 -20.418   1.738  1.00  0.00     0.001 A 
HETATM   28  C   UNL     1      43.617 -19.479   2.752  1.00  0.00     0.009 A 
ENDBRANCH  22  23
ENDBRANCH  21  22
ENDBRANCH  16  21
ENDBRANCH  11  15
ENDBRANCH   1   9
TORSDOF 5
ENDMDL
MODEL 9
REMARK VINA RESULT:      -7.3      3.902      7.056
REMARK  5 active torsions:
REMARK  status: ('A' for Active; 'I' for Inactive)
REMARK    1  A    between atoms: C_4  and  C_5 
REMARK    2  A    between atoms: C_5  and  O_6 
REMARK    3  A    between atoms: O_6  and  C_7 
REMARK    4  A    between atoms: C_8  and  N_9 
REMARK       I    between atoms: N_9  and  C_10 
REMARK       I    between atoms: C_10  and  N_11 
REMARK    5  A    between atoms: N_11  and  C_12 
ROOT
HETATM    1  C   UNL     1      43.058 -17.666   2.540  1.00  0.00     0.037 A 
HETATM    2  C   UNL     1      43.312 -18.908   1.948  1.00  0.00     0.052 A 
HETATM    3  C   UNL     1      43.942 -19.926   2.675  1.00  0.00     0.046 A 
HETATM    4  C   UNL     1      44.137 -21.213   2.081  1.00  0.00     0.099 C 
HETATM    5  N   UNL     1      44.282 -22.259   1.597  1.00  0.00    -0.191 NA
HETATM    6  C   UNL     1      44.359 -19.688   3.988  1.00  0.00     0.023 A 
HETATM    7  C   UNL     1      44.135 -18.441   4.571  1.00  0.00     0.004 A 
HETATM    8  C   UNL     1      43.475 -17.439   3.852  1.00  0.00     0.029 A 
ENDROOT
BRANCH   1   9
HETATM    9  N   UNL     1      42.384 -16.711   1.765  1.00  0.00    -0.309 N 
HETATM   10  C   UNL     1      41.234 -16.870   1.046  1.00  0.00     0.326 C 
HETATM   11  N   UNL     1      40.839 -15.804   0.285  1.00  0.00    -0.291 N 
HETATM   12  O   UNL     1      40.574 -17.905   0.966  1.00  0.00    -0.247 OA
HETATM   13  H   UNL     1      40.099 -16.065  -0.343  1.00  0.00     0.172 HD
HETATM   14  H   UNL     1      42.835 -15.812   1.613  1.00  0.00     0.170 HD
BRANCH  11  15
HETATM   15  C   UNL     1      41.293 -14.476   0.298  1.00  0.00     0.165 A 
HETATM   16  C   UNL     1      41.675 -13.823  -0.884  1.00  0.00     0.115 A 
HETATM   17  C   UNL     1      42.146 -12.509  -0.785  1.00  0.00     0.042 A 
HETATM   18  C   UNL     1      42.204 -11.870   0.445  1.00  0.00     0.022 A 
HETATM   19  C   UNL     1      41.808 -12.584   1.556  1.00  0.00     0.119 A 
HETATM   20  N   UNL     1      41.368 -13.861   1.509  1.00  0.00    -0.240 NA
BRANCH  16  21
HETATM   21  O   UNL     1      41.828 -14.349  -2.134  1.00  0.00    -0.343 OA
BRANCH  21  22
HETATM   22  C   UNL     1      41.288 -13.660  -3.259  1.00  0.00     0.214 C 
BRANCH  22  23
HETATM   23  C   UNL     1      39.856 -14.108  -3.475  1.00  0.00    -0.034 A 
HETATM   24  C   UNL     1      39.538 -15.439  -3.801  1.00  0.00     0.009 A 
HETATM   25  C   UNL     1      38.215 -15.837  -3.989  1.00  0.00     0.001 A 
HETATM   26  C   UNL     1      37.186 -14.912  -3.858  1.00  0.00     0.000 A 
HETATM   27  C   UNL     1      37.480 -13.590  -3.531  1.00  0.00     0.001 A 
HETATM   28  C   UNL     1      38.806 -13.190  -3.332  1.00  0.00     0.009 A 
ENDBRANCH  22  23
ENDBRANCH  21  22
ENDBRANCH  16  21
ENDBRANCH  11  15
ENDBRANCH   1   9
TORSDOF 5
ENDMDL
MODEL 10
REMARK VINA RESULT:      -7.2      2.586      6.852
REMARK  5 active torsions:
REMARK  status: ('A' for Active; 'I' for Inactive)
REMARK    1  A    between atoms: C_4  and  C_5 
REMARK    2  A    between atoms: C_5  and  O_6 
REMARK    3  A    between atoms: O_6  and  C_7 
REMARK    4  A    between atoms: C_8  and  N_9 
REMARK       I    between atoms: N_9  and  C_10 
REMARK       I    between atoms: C_10  and  N_11 
REMARK    5  A    between atoms: N_11  and  C_12 
ROOT
HETATM    1  C   UNL     1      43.153 -17.887   2.612  1.00  0.00     0.037 A 
HETATM    2  C   UNL     1      43.345 -19.098   1.938  1.00  0.00     0.052 A 
HETATM    3  C   UNL     1      44.008 -20.161   2.564  1.00  0.00     0.046 A 
HETATM    4  C   UNL     1      44.141 -21.416   1.888  1.00  0.00     0.099 C 
HETATM    5  N   UNL     1      44.235 -22.436   1.340  1.00  0.00    -0.191 NA
HETATM    6  C   UNL     1      44.521 -20.000   3.853  1.00  0.00     0.023 A 
HETATM    7  C   UNL     1      44.358 -18.784   4.517  1.00  0.00     0.004 A 
HETATM    8  C   UNL     1      43.665 -17.737   3.902  1.00  0.00     0.029 A 
ENDROOT
BRANCH   1   9
HETATM    9  N   UNL     1      42.440 -16.883   1.940  1.00  0.00    -0.309 N 
HETATM   10  C   UNL     1      41.269 -17.002   1.249  1.00  0.00     0.326 C 
HETATM   11  N   UNL     1      40.835 -15.884   0.591  1.00  0.00    -0.291 N 
HETATM   12  O   UNL     1      40.619 -18.037   1.108  1.00  0.00    -0.247 OA
HETATM   13  H   UNL     1      40.077 -16.105  -0.032  1.00  0.00     0.172 HD
HETATM   14  H   UNL     1      42.875 -15.969   1.846  1.00  0.00     0.170 HD
BRANCH  11  15
HETATM   15  C   UNL     1      41.272 -14.555   0.695  1.00  0.00     0.165 A 
HETATM   16  C   UNL     1      41.455 -13.942   1.944  1.00  0.00     0.115 A 
HETATM   17  C   UNL     1      41.864 -12.603   1.965  1.00  0.00     0.042 A 
HETATM   18  C   UNL     1      42.107 -11.921   0.782  1.00  0.00     0.022 A 
HETATM   19  C   UNL     1      41.905 -12.600  -0.401  1.00  0.00     0.119 A 
HETATM   20  N   UNL     1      41.489 -13.884  -0.467  1.00  0.00    -0.240 NA
BRANCH  16  21
HETATM   21  O   UNL     1      41.115 -14.411   3.179  1.00  0.00    -0.343 OA
BRANCH  21  22
HETATM   22  C   UNL     1      41.468 -13.662   4.340  1.00  0.00     0.214 C 
BRANCH  22  23
HETATM   23  C   UNL     1      42.121 -14.586   5.348  1.00  0.00    -0.034 A 
HETATM   24  C   UNL     1      41.436 -15.685   5.897  1.00  0.00     0.009 A 
HETATM   25  C   UNL     1      42.053 -16.531   6.818  1.00  0.00     0.001 A 
HETATM   26  C   UNL     1      43.366 -16.291   7.210  1.00  0.00     0.000 A 
HETATM   27  C   UNL     1      44.062 -15.210   6.674  1.00  0.00     0.001 A 
HETATM   28  C   UNL     1      43.448 -14.366   5.742  1.00  0.00     0.009 A 
ENDBRANCH  22  23
ENDBRANCH  21  22
ENDBRANCH  16  21
ENDBRANCH  11  15
ENDBRANCH   1   9
TORSDOF 5
ENDMDL
