MODEL 1
REMARK VINA RESULT:      -8.8      0.000      0.000
REMARK  8 active torsions:
REMARK  status: ('A' for Active; 'I' for Inactive)
REMARK    1  A    between atoms: N_4  and  C_6 
REMARK    2  A    between atoms: C_6  and  C_7 
REMARK       I    between atoms: C_7  and  N_8 
REMARK    3  A    between atoms: N_8  and  C_9 
REMARK    4  A    between atoms: C_15  and  C_16 
REMARK    5  A    between atoms: C_21  and  C_22 
REMARK       I    between atoms: C_22  and  N_23 
REMARK    6  A    between atoms: N_23  and  C_24 
REMARK    7  A    between atoms: C_25  and  O_26 
REMARK    8  A    between atoms: C_29  and  O_30 
ROOT
HETATM    1  C   UNL     1      41.093 -11.940   5.933  1.00  0.00     0.093 C 
HETATM    2  S   UNL     1      40.023 -11.140   4.891  1.00  0.00    -0.075 SA
HETATM    3  C   UNL     1      40.674 -11.912   3.532  1.00  0.00    -0.008 C 
HETATM    4  C   UNL     1      41.779 -12.689   3.835  1.00  0.00    -0.026 C 
HETATM    5  C   UNL     1      42.572 -13.336   2.735  1.00  0.00     0.041 C 
HETATM    6  C   UNL     1      42.162 -12.849   1.341  1.00  0.00     0.010 C 
HETATM    7  C   UNL     1      40.635 -12.712   1.127  1.00  0.00    -0.002 C 
HETATM    8  C   UNL     1      40.080 -11.702   2.168  1.00  0.00     0.052 C 
HETATM    9  C   UNL     1      41.955 -12.816   5.275  1.00  0.00     0.073 C 
ENDROOT
BRANCH   9  10
HETATM   10  C   UNL     1      42.820 -13.722   6.057  1.00  0.00     0.259 C 
HETATM   11  N   UNL     1      42.374 -15.004   6.227  1.00  0.00    -0.320 N 
HETATM   12  H   UNL     1      42.318 -15.298   7.199  1.00  0.00     0.169 HD
HETATM   13  O   UNL     1      43.766 -13.284   6.717  1.00  0.00    -0.267 OA
BRANCH  11  14
HETATM   14  C   UNL     1      42.734 -16.110   5.416  1.00  0.00     0.068 A 
HETATM   15  C   UNL     1      43.615 -17.053   5.985  1.00  0.00     0.097 A 
HETATM   16  C   UNL     1      43.948 -18.212   5.278  1.00  0.00     0.075 A 
HETATM   17  C   UNL     1      43.404 -18.438   4.012  1.00  0.00     0.070 A 
HETATM   18  C   UNL     1      42.562 -17.479   3.441  1.00  0.00     0.039 A 
HETATM   19  C   UNL     1      42.226 -16.314   4.134  1.00  0.00     0.035 A 
BRANCH  15  20
HETATM   20  O   UNL     1      44.084 -16.733   7.239  1.00  0.00    -0.354 OA
HETATM   21  C   UNL     1      43.552 -17.471   8.333  1.00  0.00     0.210 C 
ENDBRANCH  15  20
BRANCH  17  22
HETATM   22  O   UNL     1      43.623 -19.541   3.234  1.00  0.00    -0.356 OA
HETATM   23  C   UNL     1      44.701 -20.392   3.607  1.00  0.00     0.210 C 
ENDBRANCH  17  22
ENDBRANCH  11  14
ENDBRANCH   9  10
BRANCH   1  24
HETATM   24  N   UNL     1      40.946 -11.795   7.307  1.00  0.00    -0.319 N 
HETATM   25  C   UNL     1      41.337 -10.691   8.031  1.00  0.00     0.248 C 
HETATM   26  O   UNL     1      42.097  -9.791   7.676  1.00  0.00    -0.271 OA
HETATM   27  H   UNL     1      40.744 -12.673   7.793  1.00  0.00     0.169 HD
BRANCH  25  28
HETATM   28  C   UNL     1      40.742 -10.635   9.442  1.00  0.00     0.337 C 
BRANCH  28  29
HETATM   29  N   UNL     1      41.779 -10.136  10.460  1.00  0.00    -0.062 N 
HETATM   30  C   UNL     1      41.155  -9.720  11.776  1.00  0.00     0.239 C 
HETATM   31  C   UNL     1      42.202  -9.035  12.660  1.00  0.00     0.007 C 
HETATM   32  C   UNL     1      42.597  -7.654  12.124  1.00  0.00     0.011 C 
HETATM   33  C   UNL     1      43.425  -9.941  12.848  1.00  0.00     0.007 C 
HETATM   34  C   UNL     1      43.989 -10.451  11.524  1.00  0.00     0.028 C 
HETATM   35  C   UNL     1      42.921 -11.092  10.649  1.00  0.00     0.235 C 
HETATM   36  H   UNL     1      42.130  -9.265  10.029  1.00  0.00     0.280 HD
ENDBRANCH  28  29
ENDBRANCH  25  28
ENDBRANCH   1  24
BRANCH   7  37
HETATM   37  C   UNL     1      39.827 -14.061   0.981  1.00  0.00    -0.047 C 
HETATM   38  C   UNL     1      39.296 -14.652   2.299  1.00  0.00     0.015 C 
HETATM   39  C   UNL     1      38.601 -13.823   0.065  1.00  0.00     0.015 C 
HETATM   40  C   UNL     1      40.700 -15.135   0.293  1.00  0.00     0.015 C 
ENDBRANCH   7  37
TORSDOF 8
ENDMDL
MODEL 2
REMARK VINA RESULT:      -7.9      3.077      5.701
REMARK  8 active torsions:
REMARK  status: ('A' for Active; 'I' for Inactive)
REMARK    1  A    between atoms: N_4  and  C_6 
REMARK    2  A    between atoms: C_6  and  C_7 
REMARK       I    between atoms: C_7  and  N_8 
REMARK    3  A    between atoms: N_8  and  C_9 
REMARK    4  A    between atoms: C_15  and  C_16 
REMARK    5  A    between atoms: C_21  and  C_22 
REMARK       I    between atoms: C_22  and  N_23 
REMARK    6  A    between atoms: N_23  and  C_24 
REMARK    7  A    between atoms: C_25  and  O_26 
REMARK    8  A    between atoms: C_29  and  O_30 
ROOT
HETATM    1  C   UNL     1      40.466 -13.381   4.794  1.00  0.00     0.093 C 
HETATM    2  S   UNL     1      41.150 -14.686   5.632  1.00  0.00    -0.075 SA
HETATM    3  C   UNL     1      41.063 -15.685   4.268  1.00  0.00    -0.008 C 
HETATM    4  C   UNL     1      40.412 -15.084   3.204  1.00  0.00    -0.026 C 
HETATM    5  C   UNL     1      40.117 -15.871   1.958  1.00  0.00     0.041 C 
HETATM    6  C   UNL     1      40.396 -17.369   2.120  1.00  0.00     0.010 C 
HETATM    7  C   UNL     1      41.703 -17.705   2.877  1.00  0.00    -0.002 C 
HETATM    8  C   UNL     1      41.627 -17.078   4.295  1.00  0.00     0.052 C 
HETATM    9  C   UNL     1      40.171 -13.671   3.464  1.00  0.00     0.073 C 
ENDROOT
BRANCH   9  10
HETATM   10  C   UNL     1      39.744 -12.591   2.552  1.00  0.00     0.259 C 
HETATM   11  N   UNL     1      40.620 -12.238   1.563  1.00  0.00    -0.320 N 
HETATM   12  H   UNL     1      40.856 -11.249   1.552  1.00  0.00     0.169 HD
HETATM   13  O   UNL     1      38.764 -11.889   2.816  1.00  0.00    -0.267 OA
BRANCH  11  14
HETATM   14  C   UNL     1      40.600 -12.736   0.236  1.00  0.00     0.068 A 
HETATM   15  C   UNL     1      41.742 -12.485  -0.553  1.00  0.00     0.097 A 
HETATM   16  C   UNL     1      41.831 -13.016  -1.843  1.00  0.00     0.075 A 
HETATM   17  C   UNL     1      40.792 -13.801  -2.347  1.00  0.00     0.070 A 
HETATM   18  C   UNL     1      39.647 -14.013  -1.572  1.00  0.00     0.039 A 
HETATM   19  C   UNL     1      39.543 -13.482  -0.284  1.00  0.00     0.035 A 
BRANCH  15  20
HETATM   20  O   UNL     1      42.707 -11.707   0.046  1.00  0.00    -0.354 OA
HETATM   21  C   UNL     1      43.078 -10.509  -0.627  1.00  0.00     0.210 C 
ENDBRANCH  15  20
BRANCH  17  22
HETATM   22  O   UNL     1      40.769 -14.404  -3.574  1.00  0.00    -0.356 OA
HETATM   23  C   UNL     1      39.704 -15.314  -3.827  1.00  0.00     0.210 C 
ENDBRANCH  17  22
ENDBRANCH  11  14
ENDBRANCH   9  10
BRANCH   1  24
HETATM   24  N   UNL     1      40.393 -12.137   5.409  1.00  0.00    -0.319 N 
HETATM   25  C   UNL     1      39.706 -11.870   6.572  1.00  0.00     0.248 C 
HETATM   26  O   UNL     1      38.845 -12.565   7.112  1.00  0.00    -0.271 OA
HETATM   27  H   UNL     1      40.688 -11.364   4.807  1.00  0.00     0.169 HD
BRANCH  25  28
HETATM   28  C   UNL     1      40.079 -10.532   7.217  1.00  0.00     0.337 C 
BRANCH  28  29
HETATM   29  N   UNL     1      40.789 -10.745   8.563  1.00  0.00    -0.062 N 
HETATM   30  C   UNL     1      41.917  -9.760   8.792  1.00  0.00     0.239 C 
HETATM   31  C   UNL     1      42.717 -10.159  10.037  1.00  0.00     0.007 C 
HETATM   32  C   UNL     1      43.539 -11.434   9.812  1.00  0.00     0.011 C 
HETATM   33  C   UNL     1      41.791 -10.290  11.253  1.00  0.00     0.007 C 
HETATM   34  C   UNL     1      40.592 -11.196  10.986  1.00  0.00     0.028 C 
HETATM   35  C   UNL     1      39.839 -10.801   9.723  1.00  0.00     0.235 C 
HETATM   36  H   UNL     1      41.241 -11.666   8.445  1.00  0.00     0.280 HD
ENDBRANCH  28  29
ENDBRANCH  25  28
ENDBRANCH   1  24
BRANCH   7  37
HETATM   37  C   UNL     1      43.049 -17.459   2.088  1.00  0.00    -0.047 C 
HETATM   38  C   UNL     1      43.882 -16.259   2.573  1.00  0.00     0.015 C 
HETATM   39  C   UNL     1      43.947 -18.714   2.212  1.00  0.00     0.015 C 
HETATM   40  C   UNL     1      42.759 -17.261   0.583  1.00  0.00     0.015 C 
ENDBRANCH   7  37
TORSDOF 8
ENDMDL
MODEL 3
REMARK VINA RESULT:      -7.9      3.151      5.131
REMARK  8 active torsions:
REMARK  status: ('A' for Active; 'I' for Inactive)
REMARK    1  A    between atoms: N_4  and  C_6 
REMARK    2  A    between atoms: C_6  and  C_7 
REMARK       I    between atoms: C_7  and  N_8 
REMARK    3  A    between atoms: N_8  and  C_9 
REMARK    4  A    between atoms: C_15  and  C_16 
REMARK    5  A    between atoms: C_21  and  C_22 
REMARK       I    between atoms: C_22  and  N_23 
REMARK    6  A    between atoms: N_23  and  C_24 
REMARK    7  A    between atoms: C_25  and  O_26 
REMARK    8  A    between atoms: C_29  and  O_30 
ROOT
HETATM    1  C   UNL     1      41.819 -14.456   1.962  1.00  0.00     0.093 C 
HETATM    2  S   UNL     1      42.132 -13.054   1.062  1.00  0.00    -0.075 SA
HETATM    3  C   UNL     1      41.609 -13.787  -0.372  1.00  0.00    -0.008 C 
HETATM    4  C   UNL     1      41.306 -15.128  -0.209  1.00  0.00    -0.026 C 
HETATM    5  C   UNL     1      40.960 -15.973  -1.403  1.00  0.00     0.041 C 
HETATM    6  C   UNL     1      41.214 -15.257  -2.733  1.00  0.00     0.010 C 
HETATM    7  C   UNL     1      40.771 -13.774  -2.763  1.00  0.00    -0.002 C 
HETATM    8  C   UNL     1      41.540 -13.007  -1.654  1.00  0.00     0.052 C 
HETATM    9  C   UNL     1      41.301 -15.500   1.198  1.00  0.00     0.073 C 
ENDROOT
BRANCH   9  10
HETATM   10  C   UNL     1      40.805 -16.722   1.863  1.00  0.00     0.259 C 
HETATM   11  N   UNL     1      41.697 -17.749   2.010  1.00  0.00    -0.320 N 
HETATM   12  H   UNL     1      41.381 -18.632   1.619  1.00  0.00     0.169 HD
HETATM   13  O   UNL     1      39.598 -16.896   2.053  1.00  0.00    -0.267 OA
BRANCH  11  14
HETATM   14  C   UNL     1      42.479 -17.994   3.167  1.00  0.00     0.068 A 
HETATM   15  C   UNL     1      43.544 -18.908   3.031  1.00  0.00     0.097 A 
HETATM   16  C   UNL     1      44.409 -19.137   4.104  1.00  0.00     0.075 A 
HETATM   17  C   UNL     1      44.222 -18.455   5.308  1.00  0.00     0.070 A 
HETATM   18  C   UNL     1      43.140 -17.580   5.446  1.00  0.00     0.039 A 
HETATM   19  C   UNL     1      42.265 -17.347   4.384  1.00  0.00     0.035 A 
BRANCH  15  20
HETATM   20  O   UNL     1      43.639 -19.516   1.799  1.00  0.00    -0.354 OA
HETATM   21  C   UNL     1      43.599 -20.938   1.778  1.00  0.00     0.210 C 
ENDBRANCH  15  20
BRANCH  17  22
HETATM   22  O   UNL     1      45.013 -18.564   6.419  1.00  0.00    -0.356 OA
HETATM   23  C   UNL     1      44.368 -18.471   7.684  1.00  0.00     0.210 C 
ENDBRANCH  17  22
ENDBRANCH  11  14
ENDBRANCH   9  10
BRANCH   1  24
HETATM   24  N   UNL     1      41.945 -14.423   3.346  1.00  0.00    -0.319 N 
HETATM   25  C   UNL     1      43.025 -13.908   4.028  1.00  0.00     0.248 C 
HETATM   26  O   UNL     1      44.142 -13.648   3.580  1.00  0.00    -0.271 OA
HETATM   27  H   UNL     1      41.283 -15.032   3.834  1.00  0.00     0.169 HD
BRANCH  25  28
HETATM   28  C   UNL     1      42.758 -13.667   5.517  1.00  0.00     0.337 C 
BRANCH  28  29
HETATM   29  N   UNL     1      41.636 -12.637   5.718  1.00  0.00    -0.062 N 
HETATM   30  C   UNL     1      40.299 -13.280   6.023  1.00  0.00     0.239 C 
HETATM   31  C   UNL     1      39.190 -12.223   5.997  1.00  0.00     0.007 C 
HETATM   32  C   UNL     1      38.906 -11.717   4.578  1.00  0.00     0.011 C 
HETATM   33  C   UNL     1      39.522 -11.070   6.953  1.00  0.00     0.007 C 
HETATM   34  C   UNL     1      40.916 -10.494   6.719  1.00  0.00     0.028 C 
HETATM   35  C   UNL     1      41.993 -11.570   6.711  1.00  0.00     0.235 C 
HETATM   36  H   UNL     1      41.536 -12.214   4.782  1.00  0.00     0.280 HD
ENDBRANCH  28  29
ENDBRANCH  25  28
ENDBRANCH   1  24
BRANCH   7  37
HETATM   37  C   UNL     1      39.214 -13.512  -2.828  1.00  0.00    -0.047 C 
HETATM   38  C   UNL     1      38.519 -13.366  -1.463  1.00  0.00     0.015 C 
HETATM   39  C   UNL     1      38.951 -12.204  -3.614  1.00  0.00     0.015 C 
HETATM   40  C   UNL     1      38.512 -14.650  -3.602  1.00  0.00     0.015 C 
ENDBRANCH   7  37
TORSDOF 8
ENDMDL
MODEL 4
REMARK VINA RESULT:      -7.9      2.859      5.651
REMARK  8 active torsions:
REMARK  status: ('A' for Active; 'I' for Inactive)
REMARK    1  A    between atoms: N_4  and  C_6 
REMARK    2  A    between atoms: C_6  and  C_7 
REMARK       I    between atoms: C_7  and  N_8 
REMARK    3  A    between atoms: N_8  and  C_9 
REMARK    4  A    between atoms: C_15  and  C_16 
REMARK    5  A    between atoms: C_21  and  C_22 
REMARK       I    between atoms: C_22  and  N_23 
REMARK    6  A    between atoms: N_23  and  C_24 
REMARK    7  A    between atoms: C_25  and  O_26 
REMARK    8  A    between atoms: C_29  and  O_30 
ROOT
HETATM    1  C   UNL     1      40.274 -13.942   5.631  1.00  0.00     0.093 C 
HETATM    2  S   UNL     1      40.883 -15.462   6.071  1.00  0.00    -0.075 SA
HETATM    3  C   UNL     1      40.843 -16.007   4.468  1.00  0.00    -0.008 C 
HETATM    4  C   UNL     1      40.262 -15.094   3.606  1.00  0.00    -0.026 C 
HETATM    5  C   UNL     1      40.014 -15.464   2.170  1.00  0.00     0.041 C 
HETATM    6  C   UNL     1      40.248 -16.952   1.890  1.00  0.00     0.010 C 
HETATM    7  C   UNL     1      41.507 -17.547   2.568  1.00  0.00    -0.002 C 
HETATM    8  C   UNL     1      41.372 -17.366   4.104  1.00  0.00     0.052 C 
HETATM    9  C   UNL     1      40.041 -13.814   4.264  1.00  0.00     0.073 C 
ENDROOT
BRANCH   9  10
HETATM   10  C   UNL     1      39.687 -12.496   3.698  1.00  0.00     0.259 C 
HETATM   11  N   UNL     1      40.708 -11.764   3.157  1.00  0.00    -0.320 N 
HETATM   12  H   UNL     1      40.800 -10.830   3.547  1.00  0.00     0.169 HD
HETATM   13  O   UNL     1      38.585 -11.987   3.919  1.00  0.00    -0.267 OA
BRANCH  11  14
HETATM   14  C   UNL     1      41.060 -11.743   1.783  1.00  0.00     0.068 A 
HETATM   15  C   UNL     1      40.623 -10.631   1.034  1.00  0.00     0.097 A 
HETATM   16  C   UNL     1      41.002 -10.497  -0.304  1.00  0.00     0.075 A 
HETATM   17  C   UNL     1      41.819 -11.463  -0.897  1.00  0.00     0.070 A 
HETATM   18  C   UNL     1      42.216 -12.581  -0.157  1.00  0.00     0.039 A 
HETATM   19  C   UNL     1      41.838 -12.729   1.179  1.00  0.00     0.035 A 
BRANCH  15  20
HETATM   20  O   UNL     1      39.830  -9.738   1.720  1.00  0.00    -0.354 OA
HETATM   21  C   UNL     1      38.498  -9.565   1.249  1.00  0.00     0.210 C 
ENDBRANCH  15  20
BRANCH  17  22
HETATM   22  O   UNL     1      42.286 -11.434  -2.182  1.00  0.00    -0.356 OA
HETATM   23  C   UNL     1      42.722 -12.669  -2.739  1.00  0.00     0.210 C 
ENDBRANCH  17  22
ENDBRANCH  11  14
ENDBRANCH   9  10
BRANCH   1  24
HETATM   24  N   UNL     1      40.198 -12.934   6.585  1.00  0.00    -0.319 N 
HETATM   25  C   UNL     1      41.178 -11.998   6.824  1.00  0.00     0.248 C 
HETATM   26  O   UNL     1      42.354 -12.032   6.461  1.00  0.00    -0.271 OA
HETATM   27  H   UNL     1      39.457 -13.078   7.277  1.00  0.00     0.169 HD
BRANCH  25  28
HETATM   28  C   UNL     1      40.702 -10.804   7.657  1.00  0.00     0.337 C 
BRANCH  28  29
HETATM   29  N   UNL     1      41.134 -10.946   9.125  1.00  0.00    -0.062 N 
HETATM   30  C   UNL     1      42.252  -9.995   9.500  1.00  0.00     0.239 C 
HETATM   31  C   UNL     1      42.781 -10.334  10.898  1.00  0.00     0.007 C 
HETATM   32  C   UNL     1      43.560 -11.654  10.918  1.00  0.00     0.011 C 
HETATM   33  C   UNL     1      41.638 -10.335  11.921  1.00  0.00     0.007 C 
HETATM   34  C   UNL     1      40.462 -11.208  11.490  1.00  0.00     0.028 C 
HETATM   35  C   UNL     1      39.982 -10.877  10.084  1.00  0.00     0.235 C 
HETATM   36  H   UNL     1      41.549 -11.892   9.156  1.00  0.00     0.280 HD
ENDBRANCH  28  29
ENDBRANCH  25  28
ENDBRANCH   1  24
BRANCH   7  37
HETATM   37  C   UNL     1      42.898 -17.129   1.945  1.00  0.00    -0.047 C 
HETATM   38  C   UNL     1      43.590 -15.938   2.631  1.00  0.00     0.015 C 
HETATM   39  C   UNL     1      43.872 -18.329   2.028  1.00  0.00     0.015 C 
HETATM   40  C   UNL     1      42.732 -16.786   0.447  1.00  0.00     0.015 C 
ENDBRANCH   7  37
TORSDOF 8
ENDMDL
MODEL 5
REMARK VINA RESULT:      -7.7      3.724      6.902
REMARK  8 active torsions:
REMARK  status: ('A' for Active; 'I' for Inactive)
REMARK    1  A    between atoms: N_4  and  C_6 
REMARK    2  A    between atoms: C_6  and  C_7 
REMARK       I    between atoms: C_7  and  N_8 
REMARK    3  A    between atoms: N_8  and  C_9 
REMARK    4  A    between atoms: C_15  and  C_16 
REMARK    5  A    between atoms: C_21  and  C_22 
REMARK       I    between atoms: C_22  and  N_23 
REMARK    6  A    between atoms: N_23  and  C_24 
REMARK    7  A    between atoms: C_25  and  O_26 
REMARK    8  A    between atoms: C_29  and  O_30 
ROOT
HETATM    1  C   UNL     1      41.613 -13.249   3.146  1.00  0.00     0.093 C 
HETATM    2  S   UNL     1      41.500 -14.394   4.391  1.00  0.00    -0.075 SA
HETATM    3  C   UNL     1      41.523 -15.680   3.290  1.00  0.00    -0.008 C 
HETATM    4  C   UNL     1      41.496 -15.258   1.972  1.00  0.00    -0.026 C 
HETATM    5  C   UNL     1      41.370 -16.262   0.860  1.00  0.00     0.041 C 
HETATM    6  C   UNL     1      41.052 -17.673   1.366  1.00  0.00     0.010 C 
HETATM    7  C   UNL     1      41.846 -18.104   2.622  1.00  0.00    -0.002 C 
HETATM    8  C   UNL     1      41.536 -17.104   3.769  1.00  0.00     0.052 C 
HETATM    9  C   UNL     1      41.683 -13.817   1.876  1.00  0.00     0.073 C 
ENDROOT
BRANCH   9  10
HETATM   10  C   UNL     1      41.969 -12.966   0.704  1.00  0.00     0.259 C 
HETATM   11  N   UNL     1      41.779 -13.530  -0.528  1.00  0.00    -0.320 N 
HETATM   12  H   UNL     1      42.595 -13.489  -1.133  1.00  0.00     0.169 HD
HETATM   13  O   UNL     1      42.571 -11.896   0.828  1.00  0.00    -0.267 OA
BRANCH  11  14
HETATM   14  C   UNL     1      40.601 -13.412  -1.309  1.00  0.00     0.068 A 
HETATM   15  C   UNL     1      40.775 -13.109  -2.675  1.00  0.00     0.097 A 
HETATM   16  C   UNL     1      39.667 -13.059  -3.526  1.00  0.00     0.075 A 
HETATM   17  C   UNL     1      38.390 -13.316  -3.024  1.00  0.00     0.070 A 
HETATM   18  C   UNL     1      38.223 -13.578  -1.660  1.00  0.00     0.039 A 
HETATM   19  C   UNL     1      39.321 -13.624  -0.798  1.00  0.00     0.035 A 
BRANCH  15  20
HETATM   20  O   UNL     1      42.076 -12.881  -3.063  1.00  0.00    -0.354 OA
HETATM   21  C   UNL     1      42.361 -11.618  -3.654  1.00  0.00     0.210 C 
ENDBRANCH  15  20
BRANCH  17  22
HETATM   22  O   UNL     1      37.233 -13.332  -3.753  1.00  0.00    -0.356 OA
HETATM   23  C   UNL     1      36.780 -14.598  -4.220  1.00  0.00     0.210 C 
ENDBRANCH  17  22
ENDBRANCH  11  14
ENDBRANCH   9  10
BRANCH   1  24
HETATM   24  N   UNL     1      41.775 -11.906   3.466  1.00  0.00    -0.319 N 
HETATM   25  C   UNL     1      40.829 -11.123   4.088  1.00  0.00     0.248 C 
HETATM   26  O   UNL     1      39.628 -11.360   4.223  1.00  0.00    -0.271 OA
HETATM   27  H   UNL     1      42.564 -11.462   2.988  1.00  0.00     0.169 HD
BRANCH  25  28
HETATM   28  C   UNL     1      41.383  -9.806   4.641  1.00  0.00     0.337 C 
BRANCH  28  29
HETATM   29  N   UNL     1      41.041  -9.644   6.130  1.00  0.00    -0.062 N 
HETATM   30  C   UNL     1      41.616 -10.754   6.986  1.00  0.00     0.239 C 
HETATM   31  C   UNL     1      41.063 -10.656   8.412  1.00  0.00     0.007 C 
HETATM   32  C   UNL     1      39.577 -11.028   8.483  1.00  0.00     0.011 C 
HETATM   33  C   UNL     1      41.326  -9.263   8.997  1.00  0.00     0.007 C 
HETATM   34  C   UNL     1      40.847  -8.139   8.082  1.00  0.00     0.028 C 
HETATM   35  C   UNL     1      41.379  -8.282   6.663  1.00  0.00     0.235 C 
HETATM   36  H   UNL     1      40.017  -9.775   6.151  1.00  0.00     0.280 HD
ENDBRANCH  28  29
ENDBRANCH  25  28
ENDBRANCH   1  24
BRANCH   7  37
HETATM   37  C   UNL     1      43.374 -18.442   2.399  1.00  0.00    -0.047 C 
HETATM   38  C   UNL     1      44.100 -17.545   1.381  1.00  0.00     0.015 C 
HETATM   39  C   UNL     1      44.127 -18.302   3.745  1.00  0.00     0.015 C 
HETATM   40  C   UNL     1      43.535 -19.910   1.943  1.00  0.00     0.015 C 
ENDBRANCH   7  37
TORSDOF 8
ENDMDL
MODEL 6
REMARK VINA RESULT:      -7.7      4.389      8.138
REMARK  8 active torsions:
REMARK  status: ('A' for Active; 'I' for Inactive)
REMARK    1  A    between atoms: N_4  and  C_6 
REMARK    2  A    between atoms: C_6  and  C_7 
REMARK       I    between atoms: C_7  and  N_8 
REMARK    3  A    between atoms: N_8  and  C_9 
REMARK    4  A    between atoms: C_15  and  C_16 
REMARK    5  A    between atoms: C_21  and  C_22 
REMARK       I    between atoms: C_22  and  N_23 
REMARK    6  A    between atoms: N_23  and  C_24 
REMARK    7  A    between atoms: C_25  and  O_26 
REMARK    8  A    between atoms: C_29  and  O_30 
ROOT
HETATM    1  C   UNL     1      40.278 -13.234   3.911  1.00  0.00     0.093 C 
HETATM    2  S   UNL     1      39.815 -13.812   5.436  1.00  0.00    -0.075 SA
HETATM    3  C   UNL     1      40.685 -15.249   5.220  1.00  0.00    -0.008 C 
HETATM    4  C   UNL     1      41.233 -15.359   3.954  1.00  0.00    -0.026 C 
HETATM    5  C   UNL     1      41.919 -16.629   3.536  1.00  0.00     0.041 C 
HETATM    6  C   UNL     1      41.720 -17.771   4.539  1.00  0.00     0.010 C 
HETATM    7  C   UNL     1      41.843 -17.355   6.024  1.00  0.00    -0.002 C 
HETATM    8  C   UNL     1      40.777 -16.266   6.322  1.00  0.00     0.052 C 
HETATM    9  C   UNL     1      41.109 -14.110   3.216  1.00  0.00     0.073 C 
ENDROOT
BRANCH   9  10
HETATM   10  C   UNL     1      41.746 -13.676   1.956  1.00  0.00     0.259 C 
HETATM   11  N   UNL     1      41.458 -14.408   0.837  1.00  0.00    -0.320 N 
HETATM   12  H   UNL     1      42.279 -14.765   0.353  1.00  0.00     0.169 HD
HETATM   13  O   UNL     1      42.667 -12.855   1.961  1.00  0.00    -0.267 OA
BRANCH  11  14
HETATM   14  C   UNL     1      40.448 -14.097  -0.107  1.00  0.00     0.068 A 
HETATM   15  C   UNL     1      40.878 -13.724  -1.397  1.00  0.00     0.097 A 
HETATM   16  C   UNL     1      39.940 -13.484  -2.405  1.00  0.00     0.075 A 
HETATM   17  C   UNL     1      38.576 -13.621  -2.135  1.00  0.00     0.070 A 
HETATM   18  C   UNL     1      38.158 -13.954  -0.843  1.00  0.00     0.039 A 
HETATM   19  C   UNL     1      39.085 -14.189   0.174  1.00  0.00     0.035 A 
BRANCH  15  20
HETATM   20  O   UNL     1      42.243 -13.627  -1.553  1.00  0.00    -0.354 OA
HETATM   21  C   UNL     1      42.713 -12.836  -2.639  1.00  0.00     0.210 C 
ENDBRANCH  15  20
BRANCH  17  22
HETATM   22  O   UNL     1      37.562 -13.448  -3.036  1.00  0.00    -0.356 OA
HETATM   23  C   UNL     1      37.194 -14.578  -3.819  1.00  0.00     0.210 C 
ENDBRANCH  17  22
ENDBRANCH  11  14
ENDBRANCH   9  10
BRANCH   1  24
HETATM   24  N   UNL     1      39.946 -11.935   3.543  1.00  0.00    -0.319 N 
HETATM   25  C   UNL     1      40.644 -10.807   3.910  1.00  0.00     0.248 C 
HETATM   26  O   UNL     1      41.480 -10.700   4.807  1.00  0.00    -0.271 OA
HETATM   27  H   UNL     1      38.996 -11.844   3.173  1.00  0.00     0.169 HD
BRANCH  25  28
HETATM   28  C   UNL     1      40.286  -9.564   3.088  1.00  0.00     0.337 C 
BRANCH  28  29
HETATM   29  N   UNL     1      39.417  -9.934   1.876  1.00  0.00    -0.062 N 
HETATM   30  C   UNL     1      38.096  -9.193   1.857  1.00  0.00     0.239 C 
HETATM   31  C   UNL     1      37.193  -9.761   0.756  1.00  0.00     0.007 C 
HETATM   32  C   UNL     1      36.686 -11.168   1.092  1.00  0.00     0.011 C 
HETATM   33  C   UNL     1      37.910  -9.726  -0.600  1.00  0.00     0.007 C 
HETATM   34  C   UNL     1      39.291 -10.374  -0.553  1.00  0.00     0.028 C 
HETATM   35  C   UNL     1      40.152  -9.820   0.573  1.00  0.00     0.235 C 
HETATM   36  H   UNL     1      39.181 -10.924   2.051  1.00  0.00     0.280 HD
ENDBRANCH  28  29
ENDBRANCH  25  28
ENDBRANCH   1  24
BRANCH   7  37
HETATM   37  C   UNL     1      43.304 -17.047   6.544  1.00  0.00    -0.047 C 
HETATM   38  C   UNL     1      43.761 -15.587   6.382  1.00  0.00     0.015 C 
HETATM   39  C   UNL     1      43.388 -17.384   8.053  1.00  0.00     0.015 C 
HETATM   40  C   UNL     1      44.329 -17.952   5.823  1.00  0.00     0.015 C 
ENDBRANCH   7  37
TORSDOF 8
ENDMDL
MODEL 7
REMARK VINA RESULT:      -7.7      2.904      5.650
REMARK  8 active torsions:
REMARK  status: ('A' for Active; 'I' for Inactive)
REMARK    1  A    between atoms: N_4  and  C_6 
REMARK    2  A    between atoms: C_6  and  C_7 
REMARK       I    between atoms: C_7  and  N_8 
REMARK    3  A    between atoms: N_8  and  C_9 
REMARK    4  A    between atoms: C_15  and  C_16 
REMARK    5  A    between atoms: C_21  and  C_22 
REMARK       I    between atoms: C_22  and  N_23 
REMARK    6  A    between atoms: N_23  and  C_24 
REMARK    7  A    between atoms: C_25  and  O_26 
REMARK    8  A    between atoms: C_29  and  O_30 
ROOT
HETATM    1  C   UNL     1      40.245 -13.775   5.803  1.00  0.00     0.093 C 
HETATM    2  S   UNL     1      41.096 -15.216   6.070  1.00  0.00    -0.075 SA
HETATM    3  C   UNL     1      40.852 -15.725   4.474  1.00  0.00    -0.008 C 
HETATM    4  C   UNL     1      40.029 -14.873   3.759  1.00  0.00    -0.026 C 
HETATM    5  C   UNL     1      39.588 -15.238   2.370  1.00  0.00     0.041 C 
HETATM    6  C   UNL     1      39.947 -16.679   1.991  1.00  0.00     0.010 C 
HETATM    7  C   UNL     1      41.364 -17.127   2.426  1.00  0.00    -0.002 C 
HETATM    8  C   UNL     1      41.470 -16.999   3.969  1.00  0.00     0.052 C 
HETATM    9  C   UNL     1      39.772 -13.645   4.499  1.00  0.00     0.073 C 
ENDROOT
BRANCH   9  10
HETATM   10  C   UNL     1      39.172 -12.370   4.057  1.00  0.00     0.259 C 
HETATM   11  N   UNL     1      39.665 -11.826   2.903  1.00  0.00    -0.320 N 
HETATM   12  H   UNL     1      39.995 -10.869   3.004  1.00  0.00     0.169 HD
HETATM   13  O   UNL     1      38.444 -11.716   4.809  1.00  0.00    -0.267 OA
BRANCH  11  14
HETATM   14  C   UNL     1      39.107 -12.002   1.612  1.00  0.00     0.068 A 
HETATM   15  C   UNL     1      40.015 -12.187   0.548  1.00  0.00     0.097 A 
HETATM   16  C   UNL     1      39.539 -12.451  -0.739  1.00  0.00     0.075 A 
HETATM   17  C   UNL     1      38.164 -12.538  -0.970  1.00  0.00     0.070 A 
HETATM   18  C   UNL     1      37.271 -12.315   0.083  1.00  0.00     0.039 A 
HETATM   19  C   UNL     1      37.734 -12.044   1.372  1.00  0.00     0.035 A 
BRANCH  15  20
HETATM   20  O   UNL     1      41.345 -12.088   0.891  1.00  0.00    -0.354 OA
HETATM   21  C   UNL     1      42.122 -11.126   0.187  1.00  0.00     0.210 C 
ENDBRANCH  15  20
BRANCH  17  22
HETATM   22  O   UNL     1      37.572 -12.822  -2.170  1.00  0.00    -0.356 OA
HETATM   23  C   UNL     1      38.183 -13.827  -2.970  1.00  0.00     0.210 C 
ENDBRANCH  17  22
ENDBRANCH  11  14
ENDBRANCH   9  10
BRANCH   1  24
HETATM   24  N   UNL     1      40.212 -12.806   6.799  1.00  0.00    -0.319 N 
HETATM   25  C   UNL     1      41.168 -11.833   6.987  1.00  0.00     0.248 C 
HETATM   26  O   UNL     1      42.307 -11.800   6.521  1.00  0.00    -0.271 OA
HETATM   27  H   UNL     1      39.543 -13.008   7.547  1.00  0.00     0.169 HD
BRANCH  25  28
HETATM   28  C   UNL     1      40.718 -10.693   7.906  1.00  0.00     0.337 C 
BRANCH  28  29
HETATM   29  N   UNL     1      41.201 -10.920   9.346  1.00  0.00    -0.062 N 
HETATM   30  C   UNL     1      42.359 -10.019   9.724  1.00  0.00     0.239 C 
HETATM   31  C   UNL     1      42.931 -10.441  11.082  1.00  0.00     0.007 C 
HETATM   32  C   UNL     1      43.671 -11.781  11.006  1.00  0.00     0.011 C 
HETATM   33  C   UNL     1      41.828 -10.462  12.147  1.00  0.00     0.007 C 
HETATM   34  C   UNL     1      40.612 -11.281  11.720  1.00  0.00     0.028 C 
HETATM   35  C   UNL     1      40.089 -10.868  10.352  1.00  0.00     0.235 C 
HETATM   36  H   UNL     1      41.589 -11.877   9.315  1.00  0.00     0.280 HD
ENDBRANCH  28  29
ENDBRANCH  25  28
ENDBRANCH   1  24
BRANCH   7  37
HETATM   37  C   UNL     1      42.570 -16.525   1.601  1.00  0.00    -0.047 C 
HETATM   38  C   UNL     1      42.168 -15.606   0.433  1.00  0.00     0.015 C 
HETATM   39  C   UNL     1      43.466 -15.690   2.547  1.00  0.00     0.015 C 
HETATM   40  C   UNL     1      43.450 -17.661   1.033  1.00  0.00     0.015 C 
ENDBRANCH   7  37
TORSDOF 8
ENDMDL
MODEL 8
REMARK VINA RESULT:      -7.6      4.789      8.926
REMARK  8 active torsions:
REMARK  status: ('A' for Active; 'I' for Inactive)
REMARK    1  A    between atoms: N_4  and  C_6 
REMARK    2  A    between atoms: C_6  and  C_7 
REMARK       I    between atoms: C_7  and  N_8 
REMARK    3  A    between atoms: N_8  and  C_9 
REMARK    4  A    between atoms: C_15  and  C_16 
REMARK    5  A    between atoms: C_21  and  C_22 
REMARK       I    between atoms: C_22  and  N_23 
REMARK    6  A    between atoms: N_23  and  C_24 
REMARK    7  A    between atoms: C_25  and  O_26 
REMARK    8  A    between atoms: C_29  and  O_30 
ROOT
HETATM    1  C   UNL     1      41.622 -13.392   3.013  1.00  0.00     0.093 C 
HETATM    2  S   UNL     1      42.011 -13.343   4.663  1.00  0.00    -0.075 SA
HETATM    3  C   UNL     1      41.829 -15.019   4.816  1.00  0.00    -0.008 C 
HETATM    4  C   UNL     1      41.359 -15.616   3.659  1.00  0.00    -0.026 C 
HETATM    5  C   UNL     1      41.003 -17.076   3.653  1.00  0.00     0.041 C 
HETATM    6  C   UNL     1      41.000 -17.693   5.055  1.00  0.00     0.010 C 
HETATM    7  C   UNL     1      42.179 -17.255   5.957  1.00  0.00    -0.002 C 
HETATM    8  C   UNL     1      42.132 -15.711   6.115  1.00  0.00     0.052 C 
HETATM    9  C   UNL     1      41.360 -14.677   2.545  1.00  0.00     0.073 C 
ENDROOT
BRANCH   9  10
HETATM   10  C   UNL     1      41.187 -14.912   1.097  1.00  0.00     0.259 C 
HETATM   11  N   UNL     1      39.906 -15.089   0.651  1.00  0.00    -0.320 N 
HETATM   12  H   UNL     1      39.763 -15.952   0.133  1.00  0.00     0.169 HD
HETATM   13  O   UNL     1      42.154 -15.173   0.376  1.00  0.00    -0.267 OA
BRANCH  11  14
HETATM   14  C   UNL     1      39.079 -14.070   0.115  1.00  0.00     0.068 A 
HETATM   15  C   UNL     1      39.086 -13.919  -1.287  1.00  0.00     0.097 A 
HETATM   16  C   UNL     1      38.234 -12.993  -1.895  1.00  0.00     0.075 A 
HETATM   17  C   UNL     1      37.371 -12.222  -1.114  1.00  0.00     0.070 A 
HETATM   18  C   UNL     1      37.398 -12.351   0.279  1.00  0.00     0.039 A 
HETATM   19  C   UNL     1      38.249 -13.268   0.899  1.00  0.00     0.035 A 
BRANCH  15  20
HETATM   20  O   UNL     1      39.969 -14.734  -1.958  1.00  0.00    -0.354 OA
HETATM   21  C   UNL     1      39.934 -14.690  -3.381  1.00  0.00     0.210 C 
ENDBRANCH  15  20
BRANCH  17  22
HETATM   22  O   UNL     1      36.468 -11.308  -1.584  1.00  0.00    -0.356 OA
HETATM   23  C   UNL     1      36.142 -11.375  -2.967  1.00  0.00     0.210 C 
ENDBRANCH  17  22
ENDBRANCH  11  14
ENDBRANCH   9  10
BRANCH   1  24
HETATM   24  N   UNL     1      41.736 -12.236   2.250  1.00  0.00    -0.319 N 
HETATM   25  C   UNL     1      40.877 -11.162   2.310  1.00  0.00     0.248 C 
HETATM   26  O   UNL     1      39.754 -11.126   2.812  1.00  0.00    -0.271 OA
HETATM   27  H   UNL     1      42.372 -12.332   1.453  1.00  0.00     0.169 HD
BRANCH  25  28
HETATM   28  C   UNL     1      41.424  -9.895   1.644  1.00  0.00     0.337 C 
BRANCH  28  29
HETATM   29  N   UNL     1      42.128 -10.227   0.319  1.00  0.00    -0.062 N 
HETATM   30  C   UNL     1      41.157 -10.620  -0.776  1.00  0.00     0.239 C 
HETATM   31  C   UNL     1      41.925 -11.144  -1.994  1.00  0.00     0.007 C 
HETATM   32  C   UNL     1      42.570 -12.510  -1.728  1.00  0.00     0.011 C 
HETATM   33  C   UNL     1      42.959 -10.112  -2.464  1.00  0.00     0.007 C 
HETATM   34  C   UNL     1      43.867  -9.631  -1.335  1.00  0.00     0.028 C 
HETATM   35  C   UNL     1      43.078  -9.154  -0.123  1.00  0.00     0.235 C 
HETATM   36  H   UNL     1      42.659 -11.084   0.544  1.00  0.00     0.280 HD
ENDBRANCH  28  29
ENDBRANCH  25  28
ENDBRANCH   1  24
BRANCH   7  37
HETATM   37  C   UNL     1      43.592 -17.868   5.605  1.00  0.00    -0.047 C 
HETATM   38  C   UNL     1      43.966 -17.831   4.112  1.00  0.00     0.015 C 
HETATM   39  C   UNL     1      44.689 -17.086   6.367  1.00  0.00     0.015 C 
HETATM   40  C   UNL     1      43.672 -19.336   6.081  1.00  0.00     0.015 C 
ENDBRANCH   7  37
TORSDOF 8
ENDMDL
MODEL 9
REMARK VINA RESULT:      -7.3      3.395      7.719
REMARK  8 active torsions:
REMARK  status: ('A' for Active; 'I' for Inactive)
REMARK    1  A    between atoms: N_4  and  C_6 
REMARK    2  A    between atoms: C_6  and  C_7 
REMARK       I    between atoms: C_7  and  N_8 
REMARK    3  A    between atoms: N_8  and  C_9 
REMARK    4  A    between atoms: C_15  and  C_16 
REMARK    5  A    between atoms: C_21  and  C_22 
REMARK       I    between atoms: C_22  and  N_23 
REMARK    6  A    between atoms: N_23  and  C_24 
REMARK    7  A    between atoms: C_25  and  O_26 
REMARK    8  A    between atoms: C_29  and  O_30 
ROOT
HETATM    1  C   UNL     1      40.118 -13.594   0.851  1.00  0.00     0.093 C 
HETATM    2  S   UNL     1      39.276 -13.229  -0.575  1.00  0.00    -0.075 SA
HETATM    3  C   UNL     1      40.112 -11.769  -0.764  1.00  0.00    -0.008 C 
HETATM    4  C   UNL     1      40.946 -11.486   0.304  1.00  0.00    -0.026 C 
HETATM    5  C   UNL     1      41.660 -10.165   0.374  1.00  0.00     0.041 C 
HETATM    6  C   UNL     1      41.177  -9.170  -0.686  1.00  0.00     0.010 C 
HETATM    7  C   UNL     1      40.954  -9.780  -2.091  1.00  0.00    -0.002 C 
HETATM    8  C   UNL     1      39.893 -10.908  -1.976  1.00  0.00     0.052 C 
HETATM    9  C   UNL     1      41.056 -12.626   1.203  1.00  0.00     0.073 C 
ENDROOT
BRANCH   9  10
HETATM   10  C   UNL     1      41.996 -12.881   2.313  1.00  0.00     0.259 C 
HETATM   11  N   UNL     1      42.011 -11.967   3.330  1.00  0.00    -0.320 N 
HETATM   12  H   UNL     1      42.930 -11.576   3.522  1.00  0.00     0.169 HD
HETATM   13  O   UNL     1      42.882 -13.734   2.210  1.00  0.00    -0.267 OA
BRANCH  11  14
HETATM   14  C   UNL     1      41.279 -12.076   4.539  1.00  0.00     0.068 A 
HETATM   15  C   UNL     1      41.035 -10.878   5.242  1.00  0.00     0.097 A 
HETATM   16  C   UNL     1      40.248 -10.894   6.398  1.00  0.00     0.075 A 
HETATM   17  C   UNL     1      39.700 -12.096   6.851  1.00  0.00     0.070 A 
HETATM   18  C   UNL     1      39.979 -13.284   6.168  1.00  0.00     0.039 A 
HETATM   19  C   UNL     1      40.769 -13.282   5.016  1.00  0.00     0.035 A 
BRANCH  15  20
HETATM   20  O   UNL     1      41.617  -9.754   4.702  1.00  0.00    -0.354 OA
HETATM   21  C   UNL     1      40.740  -8.753   4.197  1.00  0.00     0.210 C 
ENDBRANCH  15  20
BRANCH  17  22
HETATM   22  O   UNL     1      38.890 -12.243   7.943  1.00  0.00    -0.356 OA
HETATM   23  C   UNL     1      39.131 -11.378   9.048  1.00  0.00     0.210 C 
ENDBRANCH  17  22
ENDBRANCH  11  14
ENDBRANCH   9  10
BRANCH   1  24
HETATM   24  N   UNL     1      39.938 -14.834   1.452  1.00  0.00    -0.319 N 
HETATM   25  C   UNL     1      40.614 -15.984   1.109  1.00  0.00     0.248 C 
HETATM   26  O   UNL     1      41.264 -16.196   0.086  1.00  0.00    -0.271 OA
HETATM   27  H   UNL     1      39.086 -14.898   2.016  1.00  0.00     0.169 HD
BRANCH  25  28
HETATM   28  C   UNL     1      40.495 -17.104   2.148  1.00  0.00     0.337 C 
BRANCH  28  29
HETATM   29  N   UNL     1      41.769 -17.204   3.001  1.00  0.00    -0.062 N 
HETATM   30  C   UNL     1      41.480 -17.187   4.488  1.00  0.00     0.239 C 
HETATM   31  C   UNL     1      42.789 -17.071   5.276  1.00  0.00     0.007 C 
HETATM   32  C   UNL     1      43.431 -15.686   5.130  1.00  0.00     0.011 C 
HETATM   33  C   UNL     1      43.760 -18.189   4.876  1.00  0.00     0.007 C 
HETATM   34  C   UNL     1      43.966 -18.279   3.366  1.00  0.00     0.028 C 
HETATM   35  C   UNL     1      42.649 -18.354   2.606  1.00  0.00     0.235 C 
HETATM   36  H   UNL     1      42.256 -16.316   2.801  1.00  0.00     0.280 HD
ENDBRANCH  28  29
ENDBRANCH  25  28
ENDBRANCH   1  24
BRANCH   7  37
HETATM   37  C   UNL     1      42.256 -10.142  -2.909  1.00  0.00    -0.047 C 
HETATM   38  C   UNL     1      42.380 -11.620  -3.320  1.00  0.00     0.015 C 
HETATM   39  C   UNL     1      42.286  -9.305  -4.212  1.00  0.00     0.015 C 
HETATM   40  C   UNL     1      43.518  -9.763  -2.102  1.00  0.00     0.015 C 
ENDBRANCH   7  37
TORSDOF 8
ENDMDL
MODEL 10
REMARK VINA RESULT:      -7.3      5.584      9.460
REMARK  8 active torsions:
REMARK  status: ('A' for Active; 'I' for Inactive)
REMARK    1  A    between atoms: N_4  and  C_6 
REMARK    2  A    between atoms: C_6  and  C_7 
REMARK       I    between atoms: C_7  and  N_8 
REMARK    3  A    between atoms: N_8  and  C_9 
REMARK    4  A    between atoms: C_15  and  C_16 
REMARK    5  A    between atoms: C_21  and  C_22 
REMARK       I    between atoms: C_22  and  N_23 
REMARK    6  A    between atoms: N_23  and  C_24 
REMARK    7  A    between atoms: C_25  and  O_26 
REMARK    8  A    between atoms: C_29  and  O_30 
ROOT
HETATM    1  C   UNL     1      41.369 -13.887   0.374  1.00  0.00     0.093 C 
HETATM    2  S   UNL     1      42.036 -12.583   1.226  1.00  0.00    -0.075 SA
HETATM    3  C   UNL     1      42.181 -11.658  -0.185  1.00  0.00    -0.008 C 
HETATM    4  C   UNL     1      41.839 -12.364  -1.326  1.00  0.00    -0.026 C 
HETATM    5  C   UNL     1      42.041 -11.750  -2.682  1.00  0.00     0.041 C 
HETATM    6  C   UNL     1      42.840 -10.443  -2.631  1.00  0.00     0.010 C 
HETATM    7  C   UNL     1      42.451  -9.493  -1.473  1.00  0.00    -0.002 C 
HETATM    8  C   UNL     1      42.668 -10.238  -0.129  1.00  0.00     0.052 C 
HETATM    9  C   UNL     1      41.231 -13.644  -0.991  1.00  0.00     0.073 C 
ENDROOT
BRANCH   9  10
HETATM   10  C   UNL     1      40.499 -14.606  -1.839  1.00  0.00     0.259 C 
HETATM   11  N   UNL     1      39.135 -14.604  -1.737  1.00  0.00    -0.320 N 
HETATM   12  H   UNL     1      38.734 -15.511  -1.515  1.00  0.00     0.169 HD
HETATM   13  O   UNL     1      41.093 -15.519  -2.421  1.00  0.00    -0.267 OA
BRANCH  11  14
HETATM   14  C   UNL     1      38.253 -13.890  -2.587  1.00  0.00     0.068 A 
HETATM   15  C   UNL     1      37.558 -14.643  -3.556  1.00  0.00     0.097 A 
HETATM   16  C   UNL     1      36.608 -14.024  -4.374  1.00  0.00     0.075 A 
HETATM   17  C   UNL     1      36.344 -12.661  -4.227  1.00  0.00     0.070 A 
HETATM   18  C   UNL     1      37.066 -11.914  -3.290  1.00  0.00     0.039 A 
HETATM   19  C   UNL     1      38.022 -12.520  -2.471  1.00  0.00     0.035 A 
BRANCH  15  20
HETATM   20  O   UNL     1      37.891 -15.978  -3.609  1.00  0.00    -0.354 OA
HETATM   21  C   UNL     1      38.801 -16.375  -4.628  1.00  0.00     0.210 C 
ENDBRANCH  15  20
BRANCH  17  22
HETATM   22  O   UNL     1      35.421 -11.945  -4.937  1.00  0.00    -0.356 OA
HETATM   23  C   UNL     1      34.560 -12.678  -5.801  1.00  0.00     0.210 C 
ENDBRANCH  17  22
ENDBRANCH  11  14
ENDBRANCH   9  10
BRANCH   1  24
HETATM   24  N   UNL     1      40.889 -14.988   1.075  1.00  0.00    -0.319 N 
HETATM   25  C   UNL     1      41.540 -16.195   1.189  1.00  0.00     0.248 C 
HETATM   26  O   UNL     1      42.478 -16.611   0.509  1.00  0.00    -0.271 OA
HETATM   27  H   UNL     1      39.894 -14.925   1.306  1.00  0.00     0.169 HD
BRANCH  25  28
HETATM   28  C   UNL     1      40.979 -17.097   2.294  1.00  0.00     0.337 C 
BRANCH  28  29
HETATM   29  N   UNL     1      42.067 -17.463   3.315  1.00  0.00    -0.062 N 
HETATM   30  C   UNL     1      41.546 -17.501   4.737  1.00  0.00     0.239 C 
HETATM   31  C   UNL     1      42.712 -17.655   5.719  1.00  0.00     0.007 C 
HETATM   32  C   UNL     1      43.571 -16.387   5.801  1.00  0.00     0.011 C 
HETATM   33  C   UNL     1      43.555 -18.887   5.366  1.00  0.00     0.007 C 
HETATM   34  C   UNL     1      43.988 -18.905   3.902  1.00  0.00     0.028 C 
HETATM   35  C   UNL     1      42.816 -18.711   2.950  1.00  0.00     0.235 C 
HETATM   36  H   UNL     1      42.709 -16.654   3.273  1.00  0.00     0.280 HD
ENDBRANCH  28  29
ENDBRANCH  25  28
ENDBRANCH   1  24
BRANCH   7  37
HETATM   37  C   UNL     1      41.073  -8.735  -1.626  1.00  0.00    -0.047 C 
HETATM   38  C   UNL     1      39.874  -9.416  -0.941  1.00  0.00     0.015 C 
HETATM   39  C   UNL     1      41.200  -7.319  -1.013  1.00  0.00     0.015 C 
HETATM   40  C   UNL     1      40.726  -8.550  -3.120  1.00  0.00     0.015 C 
ENDBRANCH   7  37
TORSDOF 8
ENDMDL
