MODEL 1
REMARK VINA RESULT:      -7.7      0.000      0.000
REMARK  6 active torsions:
REMARK  status: ('A' for Active; 'I' for Inactive)
REMARK    1  A    between atoms: C_2  and  O_3 
REMARK    2  A    between atoms: O_3  and  C_4 
REMARK    3  A    between atoms: C_7  and  N_8 
REMARK    4  A    between atoms: N_8  and  C_9 
REMARK    5  A    between atoms: C_9  and  C_10 
REMARK    6  A    between atoms: C_17  and  O_18 
ROOT
HETATM    1  C   UNL     1      41.494 -16.853   2.096  1.00  0.00     0.024 A 
HETATM    2  C   UNL     1      41.773 -16.500   3.524  1.00  0.00     0.253 A 
HETATM    3  O   UNL     1      41.301 -15.492   4.042  1.00  0.00    -0.268 OA
HETATM    4  N   UNL     1      42.581 -17.347   4.234  1.00  0.00    -0.322 N 
HETATM    5  C   UNL     1      43.174 -18.492   3.693  1.00  0.00     0.048 A 
HETATM    6  C   UNL     1      42.932 -18.816   2.355  1.00  0.00    -0.009 A 
HETATM    7  C   UNL     1      44.003 -19.290   4.480  1.00  0.00     0.067 A 
HETATM    8  C   UNL     1      44.608 -20.425   3.933  1.00  0.00     0.070 A 
HETATM    9  C   UNL     1      44.370 -20.753   2.596  1.00  0.00     0.038 A 
HETATM   10  C   UNL     1      43.533 -19.951   1.809  1.00  0.00     0.016 A 
HETATM   11  C   UNL     1      42.057 -17.953   1.563  1.00  0.00     0.027 A 
HETATM   12  H   UNL     1      42.756 -17.090   5.197  1.00  0.00     0.169 HD
ENDROOT
BRANCH   1  13
HETATM   13  C   UNL     1      40.593 -15.881   1.379  1.00  0.00     0.136 C 
BRANCH  13  14
HETATM   14  N   UNL     1      40.631 -16.118  -0.069  1.00  0.00    -0.289 NA
HETATM   15  H   UNL     1      39.743 -16.492  -0.396  1.00  0.00     0.128 HD
BRANCH  14  16
HETATM   16  C   UNL     1      41.061 -15.083  -0.912  1.00  0.00     0.008 A 
HETATM   17  C   UNL     1      41.687 -13.919  -0.459  1.00  0.00     0.026 A 
HETATM   18  C   UNL     1      42.172 -12.962  -1.360  1.00  0.00     0.038 A 
HETATM   19  C   UNL     1      42.070 -13.157  -2.736  1.00  0.00     0.068 A 
HETATM   20  C   UNL     1      41.485 -14.329  -3.205  1.00  0.00     0.038 A 
HETATM   21  C   UNL     1      41.004 -15.285  -2.299  1.00  0.00     0.026 A 
BRANCH  19  22
HETATM   22  O   UNL     1      42.587 -12.149  -3.499  1.00  0.00    -0.352 OA
BRANCH  22  23
HETATM   23  C   UNL     1      41.665 -11.376  -4.264  1.00  0.00     0.171 C 
HETATM   24  C   UNL     1      42.451 -10.308  -5.004  1.00  0.00     0.034 C 
ENDBRANCH  22  23
ENDBRANCH  19  22
ENDBRANCH  14  16
ENDBRANCH  13  14
ENDBRANCH   1  13
BRANCH   8  25
HETATM   25  O   UNL     1      45.402 -21.122   4.802  1.00  0.00    -0.356 OA
HETATM   26  C   UNL     1      44.960 -22.420   5.180  1.00  0.00     0.210 C 
ENDBRANCH   8  25
TORSDOF 6
ENDMDL
MODEL 2
REMARK VINA RESULT:      -7.7      2.189      2.762
REMARK  6 active torsions:
REMARK  status: ('A' for Active; 'I' for Inactive)
REMARK    1  A    between atoms: C_2  and  O_3 
REMARK    2  A    between atoms: O_3  and  C_4 
REMARK    3  A    between atoms: C_7  and  N_8 
REMARK    4  A    between atoms: N_8  and  C_9 
REMARK    5  A    between atoms: C_9  and  C_10 
REMARK    6  A    between atoms: C_17  and  O_18 
ROOT
HETATM    1  C   UNL     1      42.586 -16.378   1.725  1.00  0.00     0.024 A 
HETATM    2  C   UNL     1      42.828 -15.940   3.137  1.00  0.00     0.253 A 
HETATM    3  O   UNL     1      42.575 -14.798   3.509  1.00  0.00    -0.268 OA
HETATM    4  N   UNL     1      43.347 -16.867   4.001  1.00  0.00    -0.322 N 
HETATM    5  C   UNL     1      43.685 -18.172   3.631  1.00  0.00     0.048 A 
HETATM    6  C   UNL     1      43.479 -18.580   2.311  1.00  0.00    -0.009 A 
HETATM    7  C   UNL     1      44.229 -19.047   4.570  1.00  0.00     0.067 A 
HETATM    8  C   UNL     1      44.582 -20.346   4.195  1.00  0.00     0.070 A 
HETATM    9  C   UNL     1      44.379 -20.759   2.876  1.00  0.00     0.038 A 
HETATM   10  C   UNL     1      43.828 -19.879   1.936  1.00  0.00     0.016 A 
HETATM   11  C   UNL     1      42.906 -17.632   1.356  1.00  0.00     0.027 A 
HETATM   12  H   UNL     1      43.501 -16.551   4.950  1.00  0.00     0.169 HD
ENDROOT
BRANCH   1  13
HETATM   13  C   UNL     1      42.010 -15.310   0.832  1.00  0.00     0.136 C 
BRANCH  13  14
HETATM   14  N   UNL     1      41.924 -15.789  -0.552  1.00  0.00    -0.289 NA
HETATM   15  H   UNL     1      41.891 -16.806  -0.581  1.00  0.00     0.128 HD
BRANCH  14  16
HETATM   16  C   UNL     1      40.941 -15.248  -1.395  1.00  0.00     0.008 A 
HETATM   17  C   UNL     1      40.732 -15.661  -2.712  1.00  0.00     0.026 A 
HETATM   18  C   UNL     1      39.677 -15.141  -3.474  1.00  0.00     0.038 A 
HETATM   19  C   UNL     1      38.787 -14.218  -2.928  1.00  0.00     0.068 A 
HETATM   20  C   UNL     1      38.957 -13.826  -1.604  1.00  0.00     0.038 A 
HETATM   21  C   UNL     1      40.013 -14.351  -0.846  1.00  0.00     0.026 A 
BRANCH  19  22
HETATM   22  O   UNL     1      37.803 -13.797  -3.778  1.00  0.00    -0.352 OA
BRANCH  22  23
HETATM   23  C   UNL     1      36.813 -14.754  -4.148  1.00  0.00     0.171 C 
HETATM   24  C   UNL     1      35.707 -14.020  -4.885  1.00  0.00     0.034 C 
ENDBRANCH  22  23
ENDBRANCH  19  22
ENDBRANCH  14  16
ENDBRANCH  13  14
ENDBRANCH   1  13
BRANCH   8  25
HETATM   25  O   UNL     1      45.110 -21.107   5.202  1.00  0.00    -0.356 OA
HETATM   26  C   UNL     1      45.047 -22.519   5.045  1.00  0.00     0.210 C 
ENDBRANCH   8  25
TORSDOF 6
ENDMDL
MODEL 3
REMARK VINA RESULT:      -7.5      2.363      2.865
REMARK  6 active torsions:
REMARK  status: ('A' for Active; 'I' for Inactive)
REMARK    1  A    between atoms: C_2  and  O_3 
REMARK    2  A    between atoms: O_3  and  C_4 
REMARK    3  A    between atoms: C_7  and  N_8 
REMARK    4  A    between atoms: N_8  and  C_9 
REMARK    5  A    between atoms: C_9  and  C_10 
REMARK    6  A    between atoms: C_17  and  O_18 
ROOT
HETATM    1  C   UNL     1      41.491 -16.302   3.871  1.00  0.00     0.024 A 
HETATM    2  C   UNL     1      41.833 -16.546   5.308  1.00  0.00     0.253 A 
HETATM    3  O   UNL     1      41.397 -15.828   6.203  1.00  0.00    -0.268 OA
HETATM    4  N   UNL     1      42.656 -17.604   5.587  1.00  0.00    -0.322 N 
HETATM    5  C   UNL     1      43.208 -18.438   4.611  1.00  0.00     0.048 A 
HETATM    6  C   UNL     1      42.909 -18.204   3.266  1.00  0.00    -0.009 A 
HETATM    7  C   UNL     1      44.056 -19.482   4.980  1.00  0.00     0.067 A 
HETATM    8  C   UNL     1      44.621 -20.304   4.002  1.00  0.00     0.070 A 
HETATM    9  C   UNL     1      44.325 -20.074   2.656  1.00  0.00     0.038 A 
HETATM   10  C   UNL     1      43.470 -19.027   2.289  1.00  0.00     0.016 A 
HETATM   11  C   UNL     1      42.016 -17.098   2.921  1.00  0.00     0.027 A 
HETATM   12  H   UNL     1      42.872 -17.751   6.565  1.00  0.00     0.169 HD
ENDROOT
BRANCH   1  13
HETATM   13  C   UNL     1      40.578 -15.126   3.638  1.00  0.00     0.136 C 
BRANCH  13  14
HETATM   14  N   UNL     1      39.459 -15.509   2.769  1.00  0.00    -0.289 NA
HETATM   15  H   UNL     1      38.577 -15.464   3.275  1.00  0.00     0.128 HD
BRANCH  14  16
HETATM   16  C   UNL     1      39.333 -14.888   1.517  1.00  0.00     0.008 A 
HETATM   17  C   UNL     1      40.340 -14.875   0.550  1.00  0.00     0.026 A 
HETATM   18  C   UNL     1      40.121 -14.312  -0.715  1.00  0.00     0.038 A 
HETATM   19  C   UNL     1      38.880 -13.775  -1.053  1.00  0.00     0.068 A 
HETATM   20  C   UNL     1      37.853 -13.816  -0.115  1.00  0.00     0.038 A 
HETATM   21  C   UNL     1      38.078 -14.383   1.147  1.00  0.00     0.026 A 
BRANCH  19  22
HETATM   22  O   UNL     1      38.801 -13.264  -2.318  1.00  0.00    -0.352 OA
BRANCH  22  23
HETATM   23  C   UNL     1      37.661 -13.626  -3.094  1.00  0.00     0.171 C 
HETATM   24  C   UNL     1      37.874 -15.040  -3.606  1.00  0.00     0.034 C 
ENDBRANCH  22  23
ENDBRANCH  19  22
ENDBRANCH  14  16
ENDBRANCH  13  14
ENDBRANCH   1  13
BRANCH   8  25
HETATM   25  O   UNL     1      45.438 -21.288   4.488  1.00  0.00    -0.356 OA
HETATM   26  C   UNL     1      44.848 -22.247   5.356  1.00  0.00     0.210 C 
ENDBRANCH   8  25
TORSDOF 6
ENDMDL
MODEL 4
REMARK VINA RESULT:      -7.2      3.229      3.750
REMARK  6 active torsions:
REMARK  status: ('A' for Active; 'I' for Inactive)
REMARK    1  A    between atoms: C_2  and  O_3 
REMARK    2  A    between atoms: O_3  and  C_4 
REMARK    3  A    between atoms: C_7  and  N_8 
REMARK    4  A    between atoms: N_8  and  C_9 
REMARK    5  A    between atoms: C_9  and  C_10 
REMARK    6  A    between atoms: C_17  and  O_18 
ROOT
HETATM    1  C   UNL     1      43.207 -15.481   4.065  1.00  0.00     0.024 A 
HETATM    2  C   UNL     1      43.468 -15.862   5.489  1.00  0.00     0.253 A 
HETATM    3  O   UNL     1      43.359 -15.049   6.403  1.00  0.00    -0.268 OA
HETATM    4  N   UNL     1      43.837 -17.157   5.736  1.00  0.00    -0.322 N 
HETATM    5  C   UNL     1      44.009 -18.120   4.737  1.00  0.00     0.048 A 
HETATM    6  C   UNL     1      43.785 -17.766   3.404  1.00  0.00    -0.009 A 
HETATM    7  C   UNL     1      44.408 -19.413   5.073  1.00  0.00     0.067 A 
HETATM    8  C   UNL     1      44.596 -20.370   4.072  1.00  0.00     0.070 A 
HETATM    9  C   UNL     1      44.374 -20.021   2.737  1.00  0.00     0.038 A 
HETATM   10  C   UNL     1      43.968 -18.722   2.404  1.00  0.00     0.016 A 
HETATM   11  C   UNL     1      43.368 -16.399   3.093  1.00  0.00     0.027 A 
HETATM   12  H   UNL     1      44.008 -17.393   6.705  1.00  0.00     0.169 HD
ENDROOT
BRANCH   1  13
HETATM   13  C   UNL     1      42.800 -14.044   3.868  1.00  0.00     0.136 C 
BRANCH  13  14
HETATM   14  N   UNL     1      41.406 -13.844   4.280  1.00  0.00    -0.289 NA
HETATM   15  H   UNL     1      41.320 -13.024   4.876  1.00  0.00     0.128 HD
BRANCH  14  16
HETATM   16  C   UNL     1      40.405 -13.836   3.296  1.00  0.00     0.008 A 
HETATM   17  C   UNL     1      40.006 -12.692   2.602  1.00  0.00     0.026 A 
HETATM   18  C   UNL     1      39.061 -12.765   1.570  1.00  0.00     0.038 A 
HETATM   19  C   UNL     1      38.515 -13.989   1.186  1.00  0.00     0.068 A 
HETATM   20  C   UNL     1      38.932 -15.144   1.840  1.00  0.00     0.038 A 
HETATM   21  C   UNL     1      39.879 -15.064   2.871  1.00  0.00     0.026 A 
BRANCH  19  22
HETATM   22  O   UNL     1      37.610 -13.919   0.164  1.00  0.00    -0.352 OA
BRANCH  22  23
HETATM   23  C   UNL     1      37.987 -13.164  -0.985  1.00  0.00     0.171 C 
HETATM   24  C   UNL     1      38.098 -14.122  -2.158  1.00  0.00     0.034 C 
ENDBRANCH  22  23
ENDBRANCH  19  22
ENDBRANCH  14  16
ENDBRANCH  13  14
ENDBRANCH   1  13
BRANCH   8  25
HETATM   25  O   UNL     1      44.993 -21.598   4.525  1.00  0.00    -0.356 OA
HETATM   26  C   UNL     1      44.670 -22.721   3.714  1.00  0.00     0.210 C 
ENDBRANCH   8  25
TORSDOF 6
ENDMDL
MODEL 5
REMARK VINA RESULT:      -7.1      2.690      8.633
REMARK  6 active torsions:
REMARK  status: ('A' for Active; 'I' for Inactive)
REMARK    1  A    between atoms: C_2  and  O_3 
REMARK    2  A    between atoms: O_3  and  C_4 
REMARK    3  A    between atoms: C_7  and  N_8 
REMARK    4  A    between atoms: N_8  and  C_9 
REMARK    5  A    between atoms: C_9  and  C_10 
REMARK    6  A    between atoms: C_17  and  O_18 
ROOT
HETATM    1  C   UNL     1      42.119 -14.301   4.491  1.00  0.00     0.024 A 
HETATM    2  C   UNL     1      43.096 -13.822   3.462  1.00  0.00     0.253 A 
HETATM    3  O   UNL     1      44.259 -13.559   3.753  1.00  0.00    -0.268 OA
HETATM    4  N   UNL     1      42.640 -13.687   2.178  1.00  0.00    -0.322 N 
HETATM    5  C   UNL     1      41.321 -13.941   1.791  1.00  0.00     0.048 A 
HETATM    6  C   UNL     1      40.400 -14.370   2.750  1.00  0.00    -0.009 A 
HETATM    7  C   UNL     1      40.934 -13.758   0.464  1.00  0.00     0.067 A 
HETATM    8  C   UNL     1      39.611 -13.996   0.081  1.00  0.00     0.070 A 
HETATM    9  C   UNL     1      38.686 -14.424   1.037  1.00  0.00     0.038 A 
HETATM   10  C   UNL     1      39.079 -14.611   2.368  1.00  0.00     0.016 A 
HETATM   11  C   UNL     1      40.846 -14.550   4.131  1.00  0.00     0.027 A 
HETATM   12  H   UNL     1      43.317 -13.365   1.499  1.00  0.00     0.169 HD
ENDROOT
BRANCH   1  13
HETATM   13  C   UNL     1      42.690 -14.432   5.880  1.00  0.00     0.136 C 
BRANCH  13  14
HETATM   14  N   UNL     1      42.339 -15.734   6.459  1.00  0.00    -0.289 NA
HETATM   15  H   UNL     1      41.343 -15.916   6.359  1.00  0.00     0.128 HD
BRANCH  14  16
HETATM   16  C   UNL     1      43.080 -16.863   6.079  1.00  0.00     0.008 A 
HETATM   17  C   UNL     1      42.693 -17.743   5.066  1.00  0.00     0.026 A 
HETATM   18  C   UNL     1      43.520 -18.804   4.675  1.00  0.00     0.038 A 
HETATM   19  C   UNL     1      44.767 -18.995   5.267  1.00  0.00     0.068 A 
HETATM   20  C   UNL     1      45.186 -18.104   6.250  1.00  0.00     0.038 A 
HETATM   21  C   UNL     1      44.355 -17.042   6.636  1.00  0.00     0.026 A 
BRANCH  19  22
HETATM   22  O   UNL     1      45.473 -20.063   4.790  1.00  0.00    -0.352 OA
BRANCH  22  23
HETATM   23  C   UNL     1      44.722 -21.152   4.258  1.00  0.00     0.171 C 
HETATM   24  C   UNL     1      44.941 -22.355   5.158  1.00  0.00     0.034 C 
ENDBRANCH  22  23
ENDBRANCH  19  22
ENDBRANCH  14  16
ENDBRANCH  13  14
ENDBRANCH   1  13
BRANCH   8  25
HETATM   25  O   UNL     1      39.353 -13.775  -1.244  1.00  0.00    -0.356 OA
HETATM   26  C   UNL     1      40.058 -14.580  -2.181  1.00  0.00     0.210 C 
ENDBRANCH   8  25
TORSDOF 6
ENDMDL
MODEL 6
REMARK VINA RESULT:      -7.1      2.020      9.398
REMARK  6 active torsions:
REMARK  status: ('A' for Active; 'I' for Inactive)
REMARK    1  A    between atoms: C_2  and  O_3 
REMARK    2  A    between atoms: O_3  and  C_4 
REMARK    3  A    between atoms: C_7  and  N_8 
REMARK    4  A    between atoms: N_8  and  C_9 
REMARK    5  A    between atoms: C_9  and  C_10 
REMARK    6  A    between atoms: C_17  and  O_18 
ROOT
HETATM    1  C   UNL     1      41.515 -14.435  -0.949  1.00  0.00     0.024 A 
HETATM    2  C   UNL     1      41.198 -14.823  -2.360  1.00  0.00     0.253 A 
HETATM    3  O   UNL     1      40.780 -15.943  -2.640  1.00  0.00    -0.268 OA
HETATM    4  N   UNL     1      41.394 -13.878  -3.331  1.00  0.00    -0.322 N 
HETATM    5  C   UNL     1      41.896 -12.598  -3.079  1.00  0.00     0.048 A 
HETATM    6  C   UNL     1      42.212 -12.236  -1.767  1.00  0.00    -0.009 A 
HETATM    7  C   UNL     1      42.086 -11.702  -4.130  1.00  0.00     0.067 A 
HETATM    8  C   UNL     1      42.604 -10.428  -3.880  1.00  0.00     0.070 A 
HETATM    9  C   UNL     1      42.923 -10.061  -2.569  1.00  0.00     0.038 A 
HETATM   10  C   UNL     1      42.726 -10.963  -1.515  1.00  0.00     0.016 A 
HETATM   11  C   UNL     1      41.999 -13.205  -0.693  1.00  0.00     0.027 A 
HETATM   12  H   UNL     1      41.172 -14.161  -4.276  1.00  0.00     0.169 HD
ENDROOT
BRANCH   1  13
HETATM   13  C   UNL     1      41.270 -15.521   0.067  1.00  0.00     0.136 C 
BRANCH  13  14
HETATM   14  N   UNL     1      42.380 -16.480   0.071  1.00  0.00    -0.289 NA
HETATM   15  H   UNL     1      43.215 -16.068  -0.340  1.00  0.00     0.128 HD
BRANCH  14  16
HETATM   16  C   UNL     1      42.702 -17.135   1.270  1.00  0.00     0.008 A 
HETATM   17  C   UNL     1      41.976 -16.993   2.454  1.00  0.00     0.026 A 
HETATM   18  C   UNL     1      42.297 -17.742   3.594  1.00  0.00     0.038 A 
HETATM   19  C   UNL     1      43.334 -18.673   3.569  1.00  0.00     0.068 A 
HETATM   20  C   UNL     1      44.042 -18.856   2.386  1.00  0.00     0.038 A 
HETATM   21  C   UNL     1      43.715 -18.106   1.247  1.00  0.00     0.026 A 
BRANCH  19  22
HETATM   22  O   UNL     1      43.538 -19.337   4.746  1.00  0.00    -0.352 OA
BRANCH  22  23
HETATM   23  C   UNL     1      43.591 -18.551   5.934  1.00  0.00     0.171 C 
HETATM   24  C   UNL     1      45.042 -18.186   6.189  1.00  0.00     0.034 C 
ENDBRANCH  22  23
ENDBRANCH  19  22
ENDBRANCH  14  16
ENDBRANCH  13  14
ENDBRANCH   1  13
BRANCH   8  25
HETATM   25  O   UNL     1      42.750  -9.644  -4.991  1.00  0.00    -0.356 OA
HETATM   26  C   UNL     1      41.770  -9.782  -6.012  1.00  0.00     0.210 C 
ENDBRANCH   8  25
TORSDOF 6
ENDMDL
MODEL 7
REMARK VINA RESULT:      -7.0      3.521      4.188
REMARK  6 active torsions:
REMARK  status: ('A' for Active; 'I' for Inactive)
REMARK    1  A    between atoms: C_2  and  O_3 
REMARK    2  A    between atoms: O_3  and  C_4 
REMARK    3  A    between atoms: C_7  and  N_8 
REMARK    4  A    between atoms: N_8  and  C_9 
REMARK    5  A    between atoms: C_9  and  C_10 
REMARK    6  A    between atoms: C_17  and  O_18 
ROOT
HETATM    1  C   UNL     1      40.979 -16.943   2.477  1.00  0.00     0.024 A 
HETATM    2  C   UNL     1      41.225 -16.721   3.937  1.00  0.00     0.253 A 
HETATM    3  O   UNL     1      40.623 -15.856   4.566  1.00  0.00    -0.268 OA
HETATM    4  N   UNL     1      42.153 -17.521   4.547  1.00  0.00    -0.322 N 
HETATM    5  C   UNL     1      42.893 -18.501   3.879  1.00  0.00     0.048 A 
HETATM    6  C   UNL     1      42.683 -18.701   2.513  1.00  0.00    -0.009 A 
HETATM    7  C   UNL     1      43.836 -19.260   4.572  1.00  0.00     0.067 A 
HETATM    8  C   UNL     1      44.587 -20.228   3.900  1.00  0.00     0.070 A 
HETATM    9  C   UNL     1      44.381 -20.431   2.533  1.00  0.00     0.038 A 
HETATM   10  C   UNL     1      43.430 -19.670   1.841  1.00  0.00     0.016 A 
HETATM   11  C   UNL     1      41.685 -17.885   1.822  1.00  0.00     0.027 A 
HETATM   12  H   UNL     1      42.302 -17.355   5.534  1.00  0.00     0.169 HD
ENDROOT
BRANCH   1  13
HETATM   13  C   UNL     1      39.942 -16.032   1.873  1.00  0.00     0.136 C 
BRANCH  13  14
HETATM   14  N   UNL     1      40.327 -14.627   2.050  1.00  0.00    -0.289 NA
HETATM   15  H   UNL     1      41.195 -14.426   1.559  1.00  0.00     0.128 HD
BRANCH  14  16
HETATM   16  C   UNL     1      39.377 -13.628   1.787  1.00  0.00     0.008 A 
HETATM   17  C   UNL     1      38.258 -13.814   0.972  1.00  0.00     0.026 A 
HETATM   18  C   UNL     1      37.301 -12.803   0.817  1.00  0.00     0.038 A 
HETATM   19  C   UNL     1      37.423 -11.592   1.497  1.00  0.00     0.068 A 
HETATM   20  C   UNL     1      38.511 -11.406   2.344  1.00  0.00     0.038 A 
HETATM   21  C   UNL     1      39.465 -12.422   2.496  1.00  0.00     0.026 A 
BRANCH  19  22
HETATM   22  O   UNL     1      36.418 -10.697   1.260  1.00  0.00    -0.352 OA
BRANCH  22  23
HETATM   23  C   UNL     1      35.350 -11.127   0.420  1.00  0.00     0.171 C 
HETATM   24  C   UNL     1      34.045 -10.691   1.062  1.00  0.00     0.034 C 
ENDBRANCH  22  23
ENDBRANCH  19  22
ENDBRANCH  14  16
ENDBRANCH  13  14
ENDBRANCH   1  13
BRANCH   8  25
HETATM   25  O   UNL     1      45.482 -20.901   4.686  1.00  0.00    -0.356 OA
HETATM   26  C   UNL     1      45.085 -22.179   5.168  1.00  0.00     0.210 C 
ENDBRANCH   8  25
TORSDOF 6
ENDMDL
MODEL 8
REMARK VINA RESULT:      -6.9      4.119      8.719
REMARK  6 active torsions:
REMARK  status: ('A' for Active; 'I' for Inactive)
REMARK    1  A    between atoms: C_2  and  O_3 
REMARK    2  A    between atoms: O_3  and  C_4 
REMARK    3  A    between atoms: C_7  and  N_8 
REMARK    4  A    between atoms: N_8  and  C_9 
REMARK    5  A    between atoms: C_9  and  C_10 
REMARK    6  A    between atoms: C_17  and  O_18 
ROOT
HETATM    1  C   UNL     1      41.004 -14.152   3.447  1.00  0.00     0.024 A 
HETATM    2  C   UNL     1      42.180 -13.227   3.383  1.00  0.00     0.253 A 
HETATM    3  O   UNL     1      43.046 -13.346   2.521  1.00  0.00    -0.268 OA
HETATM    4  N   UNL     1      42.255 -12.240   4.330  1.00  0.00    -0.322 N 
HETATM    5  C   UNL     1      41.319 -12.074   5.355  1.00  0.00     0.048 A 
HETATM    6  C   UNL     1      40.230 -12.945   5.430  1.00  0.00    -0.009 A 
HETATM    7  C   UNL     1      41.482 -11.055   6.292  1.00  0.00     0.067 A 
HETATM    8  C   UNL     1      40.554 -10.899   7.326  1.00  0.00     0.070 A 
HETATM    9  C   UNL     1      39.464 -11.769   7.407  1.00  0.00     0.038 A 
HETATM   10  C   UNL     1      39.301 -12.789   6.461  1.00  0.00     0.016 A 
HETATM   11  C   UNL     1      40.095 -14.002   4.428  1.00  0.00     0.027 A 
HETATM   12  H   UNL     1      43.057 -11.627   4.267  1.00  0.00     0.169 HD
ENDROOT
BRANCH   1  13
HETATM   13  C   UNL     1      40.983 -15.209   2.372  1.00  0.00     0.136 C 
BRANCH  13  14
HETATM   14  N   UNL     1      40.632 -16.514   2.942  1.00  0.00    -0.289 NA
HETATM   15  H   UNL     1      39.807 -16.897   2.486  1.00  0.00     0.128 HD
BRANCH  14  16
HETATM   16  C   UNL     1      41.629 -17.497   3.045  1.00  0.00     0.008 A 
HETATM   17  C   UNL     1      42.235 -18.108   1.946  1.00  0.00     0.026 A 
HETATM   18  C   UNL     1      43.286 -19.020   2.115  1.00  0.00     0.038 A 
HETATM   19  C   UNL     1      43.776 -19.320   3.385  1.00  0.00     0.068 A 
HETATM   20  C   UNL     1      43.210 -18.689   4.488  1.00  0.00     0.038 A 
HETATM   21  C   UNL     1      42.160 -17.776   4.313  1.00  0.00     0.026 A 
BRANCH  19  22
HETATM   22  O   UNL     1      44.804 -20.220   3.406  1.00  0.00    -0.352 OA
BRANCH  22  23
HETATM   23  C   UNL     1      45.070 -20.872   4.646  1.00  0.00     0.171 C 
HETATM   24  C   UNL     1      44.747 -22.346   4.477  1.00  0.00     0.034 C 
ENDBRANCH  22  23
ENDBRANCH  19  22
ENDBRANCH  14  16
ENDBRANCH  13  14
ENDBRANCH   1  13
BRANCH   8  25
HETATM   25  O   UNL     1      40.825  -9.869   8.184  1.00  0.00    -0.356 OA
HETATM   26  C   UNL     1      41.083  -8.597   7.604  1.00  0.00     0.210 C 
ENDBRANCH   8  25
TORSDOF 6
ENDMDL
MODEL 9
REMARK VINA RESULT:      -6.8      3.790      8.781
REMARK  6 active torsions:
REMARK  status: ('A' for Active; 'I' for Inactive)
REMARK    1  A    between atoms: C_2  and  O_3 
REMARK    2  A    between atoms: O_3  and  C_4 
REMARK    3  A    between atoms: C_7  and  N_8 
REMARK    4  A    between atoms: N_8  and  C_9 
REMARK    5  A    between atoms: C_9  and  C_10 
REMARK    6  A    between atoms: C_17  and  O_18 
ROOT
HETATM    1  C   UNL     1      40.309 -14.369   4.078  1.00  0.00     0.024 A 
HETATM    2  C   UNL     1      40.127 -12.968   4.573  1.00  0.00     0.253 A 
HETATM    3  O   UNL     1      40.632 -12.586   5.625  1.00  0.00    -0.268 OA
HETATM    4  N   UNL     1      39.371 -12.123   3.805  1.00  0.00    -0.322 N 
HETATM    5  C   UNL     1      38.745 -12.506   2.615  1.00  0.00     0.048 A 
HETATM    6  C   UNL     1      38.896 -13.818   2.158  1.00  0.00    -0.009 A 
HETATM    7  C   UNL     1      37.973 -11.589   1.903  1.00  0.00     0.067 A 
HETATM    8  C   UNL     1      37.335 -11.977   0.723  1.00  0.00     0.070 A 
HETATM    9  C   UNL     1      37.481 -13.288   0.261  1.00  0.00     0.038 A 
HETATM   10  C   UNL     1      38.261 -14.206   0.976  1.00  0.00     0.016 A 
HETATM   11  C   UNL     1      39.713 -14.750   2.933  1.00  0.00     0.027 A 
HETATM   12  H   UNL     1      39.262 -11.181   4.157  1.00  0.00     0.169 HD
ENDROOT
BRANCH   1  13
HETATM   13  C   UNL     1      41.157 -15.240   4.970  1.00  0.00     0.136 C 
BRANCH  13  14
HETATM   14  N   UNL     1      40.884 -16.658   4.713  1.00  0.00    -0.289 NA
HETATM   15  H   UNL     1      40.053 -16.767   4.135  1.00  0.00     0.128 HD
BRANCH  14  16
HETATM   16  C   UNL     1      41.921 -17.469   4.229  1.00  0.00     0.008 A 
HETATM   17  C   UNL     1      42.738 -18.257   5.043  1.00  0.00     0.026 A 
HETATM   18  C   UNL     1      43.700 -19.112   4.491  1.00  0.00     0.038 A 
HETATM   19  C   UNL     1      43.850 -19.223   3.110  1.00  0.00     0.068 A 
HETATM   20  C   UNL     1      43.017 -18.476   2.283  1.00  0.00     0.038 A 
HETATM   21  C   UNL     1      42.054 -17.624   2.841  1.00  0.00     0.026 A 
BRANCH  19  22
HETATM   22  O   UNL     1      44.821 -20.096   2.706  1.00  0.00    -0.352 OA
BRANCH  22  23
HETATM   23  C   UNL     1      44.539 -21.487   2.837  1.00  0.00     0.171 C 
HETATM   24  C   UNL     1      44.059 -21.996   1.490  1.00  0.00     0.034 C 
ENDBRANCH  22  23
ENDBRANCH  19  22
ENDBRANCH  14  16
ENDBRANCH  13  14
ENDBRANCH   1  13
BRANCH   8  25
HETATM   25  O   UNL     1      36.603 -10.991   0.120  1.00  0.00    -0.356 OA
HETATM   26  C   UNL     1      35.204 -10.976   0.377  1.00  0.00     0.210 C 
ENDBRANCH   8  25
TORSDOF 6
ENDMDL
MODEL 10
REMARK VINA RESULT:      -6.8      1.645      1.941
REMARK  6 active torsions:
REMARK  status: ('A' for Active; 'I' for Inactive)
REMARK    1  A    between atoms: C_2  and  O_3 
REMARK    2  A    between atoms: O_3  and  C_4 
REMARK    3  A    between atoms: C_7  and  N_8 
REMARK    4  A    between atoms: N_8  and  C_9 
REMARK    5  A    between atoms: C_9  and  C_10 
REMARK    6  A    between atoms: C_17  and  O_18 
ROOT
HETATM    1  C   UNL     1      41.218 -16.555   3.278  1.00  0.00     0.024 A 
HETATM    2  C   UNL     1      41.550 -16.591   4.738  1.00  0.00     0.253 A 
HETATM    3  O   UNL     1      41.055 -15.794   5.530  1.00  0.00    -0.268 OA
HETATM    4  N   UNL     1      42.432 -17.550   5.158  1.00  0.00    -0.322 N 
HETATM    5  C   UNL     1      43.052 -18.465   4.302  1.00  0.00     0.048 A 
HETATM    6  C   UNL     1      42.762 -18.424   2.936  1.00  0.00    -0.009 A 
HETATM    7  C   UNL     1      43.956 -19.397   4.809  1.00  0.00     0.067 A 
HETATM    8  C   UNL     1      44.589 -20.299   3.950  1.00  0.00     0.070 A 
HETATM    9  C   UNL     1      44.302 -20.262   2.583  1.00  0.00     0.038 A 
HETATM   10  C   UNL     1      43.390 -19.327   2.077  1.00  0.00     0.016 A 
HETATM   11  C   UNL     1      41.808 -17.430   2.443  1.00  0.00     0.027 A 
HETATM   12  H   UNL     1      42.641 -17.557   6.148  1.00  0.00     0.169 HD
ENDROOT
BRANCH   1  13
HETATM   13  C   UNL     1      40.238 -15.479   2.888  1.00  0.00     0.136 C 
BRANCH  13  14
HETATM   14  N   UNL     1      40.899 -14.170   2.850  1.00  0.00    -0.289 NA
HETATM   15  H   UNL     1      41.827 -14.222   3.266  1.00  0.00     0.128 HD
BRANCH  14  16
HETATM   16  C   UNL     1      40.951 -13.474   1.633  1.00  0.00     0.008 A 
HETATM   17  C   UNL     1      40.522 -12.155   1.472  1.00  0.00     0.026 A 
HETATM   18  C   UNL     1      40.680 -11.487   0.251  1.00  0.00     0.038 A 
HETATM   19  C   UNL     1      41.298 -12.111  -0.831  1.00  0.00     0.068 A 
HETATM   20  C   UNL     1      41.768 -13.412  -0.676  1.00  0.00     0.038 A 
HETATM   21  C   UNL     1      41.609 -14.074   0.550  1.00  0.00     0.026 A 
BRANCH  19  22
HETATM   22  O   UNL     1      41.392 -11.346  -1.959  1.00  0.00    -0.352 OA
BRANCH  22  23
HETATM   23  C   UNL     1      42.689 -11.186  -2.529  1.00  0.00     0.171 C 
HETATM   24  C   UNL     1      43.349  -9.992  -1.863  1.00  0.00     0.034 C 
ENDBRANCH  22  23
ENDBRANCH  19  22
ENDBRANCH  14  16
ENDBRANCH  13  14
ENDBRANCH   1  13
BRANCH   8  25
HETATM   25  O   UNL     1      45.457 -21.159   4.565  1.00  0.00    -0.356 OA
HETATM   26  C   UNL     1      44.906 -22.348   5.117  1.00  0.00     0.210 C 
ENDBRANCH   8  25
TORSDOF 6
ENDMDL
