MODEL 1
REMARK VINA RESULT:      -9.2      0.000      0.000
REMARK  6 active torsions:
REMARK  status: ('A' for Active; 'I' for Inactive)
REMARK    1  A    between atoms: C_6  and  C_7 
REMARK    2  A    between atoms: C_7  and  N_8 
REMARK    3  A    between atoms: C_12  and  C_13 
REMARK    4  A    between atoms: C_13  and  C_14 
REMARK    5  A    between atoms: N_23  and  C_24 
REMARK    6  A    between atoms: C_24  and  C_25 
ROOT
HETATM    1  C   UNL     1      40.029 -13.477   2.185  1.00  0.00     0.149 C 
HETATM    2  N   UNL     1      41.334 -13.451   1.540  1.00  0.00    -0.220 NA
HETATM    3  C   UNL     1      41.221 -13.148   0.201  1.00  0.00     0.304 C 
HETATM    4  O   UNL     1      42.176 -12.835  -0.486  1.00  0.00    -0.253 OA
HETATM    5  N   UNL     1      39.921 -13.249  -0.168  1.00  0.00    -0.270 N 
HETATM    6  C   UNL     1      39.127 -13.363   0.937  1.00  0.00     0.257 C 
HETATM    7  O   UNL     1      37.903 -13.401   0.950  1.00  0.00    -0.270 OA
HETATM    8  H   UNL     1      42.072 -12.921   2.000  1.00  0.00     0.134 HD
ENDROOT
BRANCH   1   9
HETATM    9  C   UNL     1      39.761 -14.811   2.957  1.00  0.00     0.028 C 
HETATM   10  C   UNL     1      40.584 -14.985   4.249  1.00  0.00     0.035 C 
HETATM   11  C   UNL     1      42.042 -15.362   4.015  1.00  0.00     0.235 C 
HETATM   12  N   UNL     1      42.131 -16.599   3.153  1.00  0.00    -0.067 N 
HETATM   13  H   UNL     1      41.725 -17.369   3.698  1.00  0.00     0.280 HD
HETATM   14  C   UNL     1      41.369 -16.495   1.856  1.00  0.00     0.235 C 
HETATM   15  C   UNL     1      39.925 -16.099   2.120  1.00  0.00     0.035 C 
BRANCH  12  16
HETATM   16  C   UNL     1      43.573 -16.997   2.872  1.00  0.00     0.273 C 
BRANCH  16  17
HETATM   17  C   UNL     1      43.862 -18.460   3.094  1.00  0.00    -0.027 A 
HETATM   18  C   UNL     1      44.284 -18.969   4.341  1.00  0.00    -0.054 A 
HETATM   19  C   UNL     1      44.545 -20.345   4.469  1.00  0.00     0.014 A 
HETATM   20  C   UNL     1      44.502 -18.090   5.544  1.00  0.00     0.049 C 
HETATM   21  C   UNL     1      44.399 -21.219   3.387  1.00  0.00    -0.061 A 
HETATM   22  C   UNL     1      44.696 -22.683   3.533  1.00  0.00     0.048 C 
HETATM   23  C   UNL     1      43.974 -20.711   2.159  1.00  0.00     0.007 A 
HETATM   24  C   UNL     1      43.710 -19.349   2.011  1.00  0.00     0.010 A 
ENDBRANCH  16  17
ENDBRANCH  12  16
ENDBRANCH   1   9
BRANCH   1  25
HETATM   25  C   UNL     1      39.916 -12.253   3.096  1.00  0.00     0.067 A 
HETATM   26  N   UNL     1      41.107 -11.681   3.449  1.00  0.00    -0.263 NA
HETATM   27  C   UNL     1      41.064 -10.587   4.248  1.00  0.00     0.117 A 
HETATM   28  C   UNL     1      39.893 -10.043   4.738  1.00  0.00     0.019 A 
HETATM   29  C   UNL     1      38.692 -10.651   4.395  1.00  0.00     0.003 A 
HETATM   30  C   UNL     1      38.697 -11.773   3.570  1.00  0.00     0.030 A 
ENDBRANCH   1  25
BRANCH   5  31
HETATM   31  C   UNL     1      39.433 -13.091  -1.529  1.00  0.00     0.168 C 
BRANCH  31  32
HETATM   32  C   UNL     1      39.078 -14.431  -2.180  1.00  0.00     0.140 C 
HETATM   33  O   UNL     1      37.713 -14.432  -2.659  1.00  0.00    -0.384 OA
HETATM   34  C   UNL     1      37.677 -15.198  -3.879  1.00  0.00     0.168 C 
HETATM   35  C   UNL     1      39.068 -15.753  -4.109  1.00  0.00     0.029 C 
HETATM   36  C   UNL     1      39.936 -14.750  -3.393  1.00  0.00     0.036 C 
ENDBRANCH  31  32
ENDBRANCH   5  31
TORSDOF 6
ENDMDL
MODEL 2
REMARK VINA RESULT:      -8.8      2.300      7.995
REMARK  6 active torsions:
REMARK  status: ('A' for Active; 'I' for Inactive)
REMARK    1  A    between atoms: C_6  and  C_7 
REMARK    2  A    between atoms: C_7  and  N_8 
REMARK    3  A    between atoms: C_12  and  C_13 
REMARK    4  A    between atoms: C_13  and  C_14 
REMARK    5  A    between atoms: N_23  and  C_24 
REMARK    6  A    between atoms: C_24  and  C_25 
ROOT
HETATM    1  C   UNL     1      42.326 -16.642   3.479  1.00  0.00     0.149 C 
HETATM    2  N   UNL     1      43.111 -15.630   2.786  1.00  0.00    -0.220 NA
HETATM    3  C   UNL     1      43.359 -14.548   3.602  1.00  0.00     0.304 C 
HETATM    4  O   UNL     1      44.186 -13.697   3.332  1.00  0.00    -0.253 OA
HETATM    5  N   UNL     1      42.560 -14.625   4.695  1.00  0.00    -0.270 N 
HETATM    6  C   UNL     1      41.969 -15.854   4.758  1.00  0.00     0.257 C 
HETATM    7  O   UNL     1      41.248 -16.266   5.659  1.00  0.00    -0.270 OA
HETATM    8  H   UNL     1      43.943 -15.944   2.289  1.00  0.00     0.134 HD
ENDROOT
BRANCH   1   9
HETATM    9  C   UNL     1      41.039 -17.054   2.691  1.00  0.00     0.028 C 
HETATM   10  C   UNL     1      41.300 -17.634   1.286  1.00  0.00     0.035 C 
HETATM   11  C   UNL     1      41.662 -16.590   0.237  1.00  0.00     0.235 C 
HETATM   12  N   UNL     1      40.604 -15.514   0.182  1.00  0.00    -0.067 N 
HETATM   13  H   UNL     1      39.742 -15.962  -0.151  1.00  0.00     0.280 HD
HETATM   14  C   UNL     1      40.310 -14.879   1.519  1.00  0.00     0.235 C 
HETATM   15  C   UNL     1      39.972 -15.946   2.549  1.00  0.00     0.035 C 
BRANCH  12  16
HETATM   16  C   UNL     1      40.938 -14.434  -0.837  1.00  0.00     0.273 C 
BRANCH  16  17
HETATM   17  C   UNL     1      39.774 -14.024  -1.703  1.00  0.00    -0.027 A 
HETATM   18  C   UNL     1      39.401 -14.740  -2.860  1.00  0.00    -0.054 A 
HETATM   19  C   UNL     1      38.309 -14.290  -3.625  1.00  0.00     0.014 A 
HETATM   20  C   UNL     1      40.148 -15.958  -3.337  1.00  0.00     0.049 C 
HETATM   21  C   UNL     1      37.590 -13.147  -3.265  1.00  0.00    -0.061 A 
HETATM   22  C   UNL     1      36.436 -12.668  -4.099  1.00  0.00     0.048 C 
HETATM   23  C   UNL     1      37.959 -12.447  -2.116  1.00  0.00     0.007 A 
HETATM   24  C   UNL     1      39.039 -12.878  -1.344  1.00  0.00     0.010 A 
ENDBRANCH  16  17
ENDBRANCH  12  16
ENDBRANCH   1   9
BRANCH   1  25
HETATM   25  C   UNL     1      43.230 -17.841   3.770  1.00  0.00     0.067 A 
HETATM   26  N   UNL     1      43.798 -17.851   5.015  1.00  0.00    -0.263 NA
HETATM   27  C   UNL     1      44.601 -18.895   5.329  1.00  0.00     0.117 A 
HETATM   28  C   UNL     1      44.893 -19.925   4.456  1.00  0.00     0.019 A 
HETATM   29  C   UNL     1      44.334 -19.888   3.185  1.00  0.00     0.003 A 
HETATM   30  C   UNL     1      43.497 -18.833   2.830  1.00  0.00     0.030 A 
ENDBRANCH   1  25
BRANCH   5  31
HETATM   31  C   UNL     1      42.480 -13.609   5.732  1.00  0.00     0.168 C 
BRANCH  31  32
HETATM   32  C   UNL     1      41.353 -12.602   5.474  1.00  0.00     0.140 C 
HETATM   33  O   UNL     1      41.031 -12.530   4.065  1.00  0.00    -0.384 OA
HETATM   34  C   UNL     1      39.609 -12.328   3.951  1.00  0.00     0.168 C 
HETATM   35  C   UNL     1      39.054 -12.192   5.354  1.00  0.00     0.029 C 
HETATM   36  C   UNL     1      40.055 -12.970   6.171  1.00  0.00     0.036 C 
ENDBRANCH  31  32
ENDBRANCH   5  31
TORSDOF 6
ENDMDL
MODEL 3
REMARK VINA RESULT:      -8.7      2.511      7.796
REMARK  6 active torsions:
REMARK  status: ('A' for Active; 'I' for Inactive)
REMARK    1  A    between atoms: C_6  and  C_7 
REMARK    2  A    between atoms: C_7  and  N_8 
REMARK    3  A    between atoms: C_12  and  C_13 
REMARK    4  A    between atoms: C_13  and  C_14 
REMARK    5  A    between atoms: N_23  and  C_24 
REMARK    6  A    between atoms: C_24  and  C_25 
ROOT
HETATM    1  C   UNL     1      42.464 -16.926   2.862  1.00  0.00     0.149 C 
HETATM    2  N   UNL     1      43.308 -15.813   2.452  1.00  0.00    -0.220 NA
HETATM    3  C   UNL     1      43.285 -14.800   3.384  1.00  0.00     0.304 C 
HETATM    4  O   UNL     1      44.088 -13.884   3.381  1.00  0.00    -0.253 OA
HETATM    5  N   UNL     1      42.268 -15.020   4.252  1.00  0.00    -0.270 N 
HETATM    6  C   UNL     1      41.770 -16.279   4.081  1.00  0.00     0.257 C 
HETATM    7  O   UNL     1      40.896 -16.811   4.755  1.00  0.00    -0.270 OA
HETATM    8  H   UNL     1      44.252 -16.035   2.138  1.00  0.00     0.134 HD
ENDROOT
BRANCH   1   9
HETATM    9  C   UNL     1      41.422 -17.331   1.768  1.00  0.00     0.028 C 
HETATM   10  C   UNL     1      41.776 -16.873   0.338  1.00  0.00     0.035 C 
HETATM   11  C   UNL     1      41.536 -15.390   0.081  1.00  0.00     0.235 C 
HETATM   12  N   UNL     1      40.112 -15.023   0.422  1.00  0.00    -0.067 N 
HETATM   13  H   UNL     1      39.509 -15.525  -0.241  1.00  0.00     0.280 HD
HETATM   14  C   UNL     1      39.698 -15.418   1.818  1.00  0.00     0.235 C 
HETATM   15  C   UNL     1      39.967 -16.896   2.052  1.00  0.00     0.035 C 
BRANCH  12  16
HETATM   16  C   UNL     1      39.835 -13.542   0.204  1.00  0.00     0.273 C 
BRANCH  16  17
HETATM   17  C   UNL     1      40.536 -12.956  -0.996  1.00  0.00    -0.027 A 
HETATM   18  C   UNL     1      41.637 -12.081  -0.878  1.00  0.00    -0.054 A 
HETATM   19  C   UNL     1      42.233 -11.565  -2.043  1.00  0.00     0.014 A 
HETATM   20  C   UNL     1      42.187 -11.644   0.454  1.00  0.00     0.049 C 
HETATM   21  C   UNL     1      41.755 -11.897  -3.314  1.00  0.00    -0.061 A 
HETATM   22  C   UNL     1      42.390 -11.327  -4.550  1.00  0.00     0.048 C 
HETATM   23  C   UNL     1      40.671 -12.768  -3.425  1.00  0.00     0.007 A 
HETATM   24  C   UNL     1      40.066 -13.291  -2.280  1.00  0.00     0.010 A 
ENDBRANCH  16  17
ENDBRANCH  12  16
ENDBRANCH   1   9
BRANCH   1  25
HETATM   25  C   UNL     1      43.364 -18.096   3.261  1.00  0.00     0.067 A 
HETATM   26  N   UNL     1      43.881 -18.025   4.525  1.00  0.00    -0.263 NA
HETATM   27  C   UNL     1      44.678 -19.041   4.933  1.00  0.00     0.117 A 
HETATM   28  C   UNL     1      45.012 -20.120   4.138  1.00  0.00     0.019 A 
HETATM   29  C   UNL     1      44.504 -20.164   2.845  1.00  0.00     0.003 A 
HETATM   30  C   UNL     1      43.675 -19.141   2.394  1.00  0.00     0.030 A 
ENDBRANCH   1  25
BRANCH   5  31
HETATM   31  C   UNL     1      41.880 -14.110   5.318  1.00  0.00     0.168 C 
BRANCH  31  32
HETATM   32  C   UNL     1      40.519 -13.456   5.059  1.00  0.00     0.140 C 
HETATM   33  O   UNL     1      40.090 -12.676   6.199  1.00  0.00    -0.384 OA
HETATM   34  C   UNL     1      39.395 -11.517   5.700  1.00  0.00     0.168 C 
HETATM   35  C   UNL     1      39.330 -11.639   4.192  1.00  0.00     0.029 C 
HETATM   36  C   UNL     1      40.537 -12.490   3.886  1.00  0.00     0.036 C 
ENDBRANCH  31  32
ENDBRANCH   5  31
TORSDOF 6
ENDMDL
MODEL 4
REMARK VINA RESULT:      -8.3      2.467      7.796
REMARK  6 active torsions:
REMARK  status: ('A' for Active; 'I' for Inactive)
REMARK    1  A    between atoms: C_6  and  C_7 
REMARK    2  A    between atoms: C_7  and  N_8 
REMARK    3  A    between atoms: C_12  and  C_13 
REMARK    4  A    between atoms: C_13  and  C_14 
REMARK    5  A    between atoms: N_23  and  C_24 
REMARK    6  A    between atoms: C_24  and  C_25 
ROOT
HETATM    1  C   UNL     1      42.747 -16.923   3.936  1.00  0.00     0.149 C 
HETATM    2  N   UNL     1      41.342 -17.199   3.671  1.00  0.00    -0.220 NA
HETATM    3  C   UNL     1      40.961 -16.709   2.442  1.00  0.00     0.304 C 
HETATM    4  O   UNL     1      39.916 -17.025   1.902  1.00  0.00    -0.253 OA
HETATM    5  N   UNL     1      41.923 -15.874   1.980  1.00  0.00    -0.270 N 
HETATM    6  C   UNL     1      43.049 -15.987   2.745  1.00  0.00     0.257 C 
HETATM    7  O   UNL     1      44.118 -15.422   2.550  1.00  0.00    -0.270 OA
HETATM    8  H   UNL     1      41.016 -18.151   3.831  1.00  0.00     0.134 HD
ENDROOT
BRANCH   1   9
HETATM    9  C   UNL     1      42.974 -16.193   5.301  1.00  0.00     0.028 C 
HETATM   10  C   UNL     1      41.953 -16.549   6.400  1.00  0.00     0.035 C 
HETATM   11  C   UNL     1      40.590 -15.889   6.224  1.00  0.00     0.235 C 
HETATM   12  N   UNL     1      40.745 -14.392   6.102  1.00  0.00    -0.067 N 
HETATM   13  H   UNL     1      41.106 -14.057   7.003  1.00  0.00     0.280 HD
HETATM   14  C   UNL     1      41.713 -13.964   5.027  1.00  0.00     0.235 C 
HETATM   15  C   UNL     1      43.055 -14.653   5.217  1.00  0.00     0.035 C 
BRANCH  12  16
HETATM   16  C   UNL     1      39.408 -13.694   5.898  1.00  0.00     0.273 C 
BRANCH  16  17
HETATM   17  C   UNL     1      39.455 -12.202   6.111  1.00  0.00    -0.027 A 
HETATM   18  C   UNL     1      39.261 -11.279   5.061  1.00  0.00    -0.054 A 
HETATM   19  C   UNL     1      39.330  -9.901   5.334  1.00  0.00     0.014 A 
HETATM   20  C   UNL     1      39.012 -11.709   3.639  1.00  0.00     0.049 C 
HETATM   21  C   UNL     1      39.592  -9.427   6.623  1.00  0.00    -0.061 A 
HETATM   22  C   UNL     1      39.679  -7.953   6.899  1.00  0.00     0.048 C 
HETATM   23  C   UNL     1      39.776 -10.343   7.658  1.00  0.00     0.007 A 
HETATM   24  C   UNL     1      39.711 -11.714   7.407  1.00  0.00     0.010 A 
ENDBRANCH  16  17
ENDBRANCH  12  16
ENDBRANCH   1   9
BRANCH   1  25
HETATM   25  C   UNL     1      43.524 -18.238   3.850  1.00  0.00     0.067 A 
HETATM   26  N   UNL     1      44.253 -18.554   4.964  1.00  0.00    -0.263 NA
HETATM   27  C   UNL     1      44.953 -19.713   4.945  1.00  0.00     0.117 A 
HETATM   28  C   UNL     1      44.988 -20.570   3.862  1.00  0.00     0.019 A 
HETATM   29  C   UNL     1      44.267 -20.222   2.726  1.00  0.00     0.003 A 
HETATM   30  C   UNL     1      43.529 -19.040   2.712  1.00  0.00     0.030 A 
ENDBRANCH   1  25
BRANCH   5  31
HETATM   31  C   UNL     1      41.826 -15.099   0.754  1.00  0.00     0.168 C 
BRANCH  31  32
HETATM   32  C   UNL     1      41.305 -13.679   1.001  1.00  0.00     0.140 C 
HETATM   33  O   UNL     1      42.398 -12.740   1.132  1.00  0.00    -0.384 OA
HETATM   34  C   UNL     1      41.979 -11.497   0.535  1.00  0.00     0.168 C 
HETATM   35  C   UNL     1      40.541 -11.665   0.092  1.00  0.00     0.029 C 
HETATM   36  C   UNL     1      40.448 -13.153  -0.137  1.00  0.00     0.036 C 
ENDBRANCH  31  32
ENDBRANCH   5  31
TORSDOF 6
ENDMDL
MODEL 5
REMARK VINA RESULT:      -8.3      2.808      8.624
REMARK  6 active torsions:
REMARK  status: ('A' for Active; 'I' for Inactive)
REMARK    1  A    between atoms: C_6  and  C_7 
REMARK    2  A    between atoms: C_7  and  N_8 
REMARK    3  A    between atoms: C_12  and  C_13 
REMARK    4  A    between atoms: C_13  and  C_14 
REMARK    5  A    between atoms: N_23  and  C_24 
REMARK    6  A    between atoms: C_24  and  C_25 
ROOT
HETATM    1  C   UNL     1      42.201 -16.564   3.286  1.00  0.00     0.149 C 
HETATM    2  N   UNL     1      42.975 -15.556   2.576  1.00  0.00    -0.220 NA
HETATM    3  C   UNL     1      43.226 -14.465   3.378  1.00  0.00     0.304 C 
HETATM    4  O   UNL     1      44.047 -13.612   3.092  1.00  0.00    -0.253 OA
HETATM    5  N   UNL     1      42.438 -14.533   4.479  1.00  0.00    -0.270 N 
HETATM    6  C   UNL     1      41.853 -15.764   4.561  1.00  0.00     0.257 C 
HETATM    7  O   UNL     1      41.142 -16.170   5.471  1.00  0.00    -0.270 OA
HETATM    8  H   UNL     1      43.804 -15.871   2.074  1.00  0.00     0.134 HD
ENDROOT
BRANCH   1   9
HETATM    9  C   UNL     1      40.908 -16.989   2.514  1.00  0.00     0.028 C 
HETATM   10  C   UNL     1      41.156 -17.537   1.094  1.00  0.00     0.035 C 
HETATM   11  C   UNL     1      41.475 -16.466   0.058  1.00  0.00     0.235 C 
HETATM   12  N   UNL     1      40.393 -15.412   0.043  1.00  0.00    -0.067 N 
HETATM   13  H   UNL     1      39.535 -15.873  -0.282  1.00  0.00     0.280 HD
HETATM   14  C   UNL     1      40.111 -14.810   1.397  1.00  0.00     0.235 C 
HETATM   15  C   UNL     1      39.815 -15.902   2.413  1.00  0.00     0.035 C 
BRANCH  12  16
HETATM   16  C   UNL     1      40.685 -14.307  -0.961  1.00  0.00     0.273 C 
BRANCH  16  17
HETATM   17  C   UNL     1      39.512 -13.947  -1.838  1.00  0.00    -0.027 A 
HETATM   18  C   UNL     1      39.153 -14.707  -2.972  1.00  0.00    -0.054 A 
HETATM   19  C   UNL     1      38.052 -14.304  -3.749  1.00  0.00     0.014 A 
HETATM   20  C   UNL     1      39.924 -15.924  -3.410  1.00  0.00     0.049 C 
HETATM   21  C   UNL     1      37.310 -13.164  -3.425  1.00  0.00    -0.061 A 
HETATM   22  C   UNL     1      36.147 -12.735  -4.272  1.00  0.00     0.048 C 
HETATM   23  C   UNL     1      37.665 -12.421  -2.298  1.00  0.00     0.007 A 
HETATM   24  C   UNL     1      38.754 -12.805  -1.514  1.00  0.00     0.010 A 
ENDBRANCH  16  17
ENDBRANCH  12  16
ENDBRANCH   1   9
BRANCH   1  25
HETATM   25  C   UNL     1      43.113 -17.756   3.581  1.00  0.00     0.067 A 
HETATM   26  N   UNL     1      43.701 -17.745   4.816  1.00  0.00    -0.263 NA
HETATM   27  C   UNL     1      44.512 -18.782   5.133  1.00  0.00     0.117 A 
HETATM   28  C   UNL     1      44.792 -19.825   4.273  1.00  0.00     0.019 A 
HETATM   29  C   UNL     1      44.212 -19.809   3.010  1.00  0.00     0.003 A 
HETATM   30  C   UNL     1      43.367 -18.762   2.652  1.00  0.00     0.030 A 
ENDBRANCH   1  25
BRANCH   5  31
HETATM   31  C   UNL     1      42.362 -13.507   5.506  1.00  0.00     0.168 C 
BRANCH  31  32
HETATM   32  C   UNL     1      43.318 -13.780   6.673  1.00  0.00     0.140 C 
HETATM   33  O   UNL     1      44.632 -14.152   6.194  1.00  0.00    -0.384 OA
HETATM   34  C   UNL     1      45.602 -13.595   7.101  1.00  0.00     0.168 C 
HETATM   35  C   UNL     1      44.842 -12.920   8.224  1.00  0.00     0.029 C 
HETATM   36  C   UNL     1      43.536 -12.565   7.559  1.00  0.00     0.036 C 
ENDBRANCH  31  32
ENDBRANCH   5  31
TORSDOF 6
ENDMDL
MODEL 6
REMARK VINA RESULT:      -8.3      2.612      5.942
REMARK  6 active torsions:
REMARK  status: ('A' for Active; 'I' for Inactive)
REMARK    1  A    between atoms: C_6  and  C_7 
REMARK    2  A    between atoms: C_7  and  N_8 
REMARK    3  A    between atoms: C_12  and  C_13 
REMARK    4  A    between atoms: C_13  and  C_14 
REMARK    5  A    between atoms: N_23  and  C_24 
REMARK    6  A    between atoms: C_24  and  C_25 
ROOT
HETATM    1  C   UNL     1      40.669 -12.933   2.798  1.00  0.00     0.149 C 
HETATM    2  N   UNL     1      40.161 -13.713   3.917  1.00  0.00    -0.220 NA
HETATM    3  C   UNL     1      39.774 -12.897   4.957  1.00  0.00     0.304 C 
HETATM    4  O   UNL     1      39.103 -13.296   5.892  1.00  0.00    -0.253 OA
HETATM    5  N   UNL     1      40.247 -11.646   4.739  1.00  0.00    -0.270 N 
HETATM    6  C   UNL     1      40.722 -11.540   3.463  1.00  0.00     0.257 C 
HETATM    7  O   UNL     1      41.151 -10.524   2.931  1.00  0.00    -0.270 OA
HETATM    8  H   UNL     1      39.473 -14.435   3.709  1.00  0.00     0.134 HD
ENDROOT
BRANCH   1   9
HETATM    9  C   UNL     1      42.091 -13.393   2.335  1.00  0.00     0.028 C 
HETATM   10  C   UNL     1      42.114 -14.713   1.538  1.00  0.00     0.035 C 
HETATM   11  C   UNL     1      41.940 -15.962   2.394  1.00  0.00     0.235 C 
HETATM   12  N   UNL     1      42.969 -15.987   3.500  1.00  0.00    -0.067 N 
HETATM   13  H   UNL     1      43.887 -16.079   3.048  1.00  0.00     0.280 HD
HETATM   14  C   UNL     1      42.989 -14.735   4.341  1.00  0.00     0.235 C 
HETATM   15  C   UNL     1      43.144 -13.506   3.459  1.00  0.00     0.035 C 
BRANCH  12  16
HETATM   16  C   UNL     1      42.815 -17.207   4.397  1.00  0.00     0.273 C 
BRANCH  16  17
HETATM   17  C   UNL     1      43.317 -18.489   3.782  1.00  0.00    -0.027 A 
HETATM   18  C   UNL     1      44.309 -19.285   4.394  1.00  0.00    -0.054 A 
HETATM   19  C   UNL     1      44.736 -20.463   3.755  1.00  0.00     0.014 A 
HETATM   20  C   UNL     1      44.962 -18.908   5.698  1.00  0.00     0.049 C 
HETATM   21  C   UNL     1      44.201 -20.860   2.525  1.00  0.00    -0.061 A 
HETATM   22  C   UNL     1      44.677 -22.111   1.846  1.00  0.00     0.048 C 
HETATM   23  C   UNL     1      43.215 -20.073   1.929  1.00  0.00     0.007 A 
HETATM   24  C   UNL     1      42.779 -18.900   2.548  1.00  0.00     0.010 A 
ENDBRANCH  16  17
ENDBRANCH  12  16
ENDBRANCH   1   9
BRANCH   1  25
HETATM   25  C   UNL     1      39.646 -12.994   1.662  1.00  0.00     0.067 A 
HETATM   26  N   UNL     1      38.660 -13.928   1.819  1.00  0.00    -0.263 NA
HETATM   27  C   UNL     1      37.722 -14.018   0.846  1.00  0.00     0.117 A 
HETATM   28  C   UNL     1      37.726 -13.241  -0.296  1.00  0.00     0.019 A 
HETATM   29  C   UNL     1      38.751 -12.316  -0.457  1.00  0.00     0.003 A 
HETATM   30  C   UNL     1      39.728 -12.191   0.527  1.00  0.00     0.030 A 
ENDBRANCH   1  25
BRANCH   5  31
HETATM   31  C   UNL     1      40.114 -10.538   5.671  1.00  0.00     0.168 C 
BRANCH  31  32
HETATM   32  C   UNL     1      40.910 -10.763   6.961  1.00  0.00     0.140 C 
HETATM   33  O   UNL     1      41.792  -9.648   7.229  1.00  0.00    -0.384 OA
HETATM   34  C   UNL     1      41.837  -9.459   8.657  1.00  0.00     0.168 C 
HETATM   35  C   UNL     1      41.006 -10.557   9.288  1.00  0.00     0.029 C 
HETATM   36  C   UNL     1      40.026 -10.890   8.191  1.00  0.00     0.036 C 
ENDBRANCH  31  32
ENDBRANCH   5  31
TORSDOF 6
ENDMDL
MODEL 7
REMARK VINA RESULT:      -8.2      3.835      7.223
REMARK  6 active torsions:
REMARK  status: ('A' for Active; 'I' for Inactive)
REMARK    1  A    between atoms: C_6  and  C_7 
REMARK    2  A    between atoms: C_7  and  N_8 
REMARK    3  A    between atoms: C_12  and  C_13 
REMARK    4  A    between atoms: C_13  and  C_14 
REMARK    5  A    between atoms: N_23  and  C_24 
REMARK    6  A    between atoms: C_24  and  C_25 
ROOT
HETATM    1  C   UNL     1      40.865 -11.496   5.392  1.00  0.00     0.149 C 
HETATM    2  N   UNL     1      40.061 -12.427   6.171  1.00  0.00    -0.220 NA
HETATM    3  C   UNL     1      39.743 -11.899   7.403  1.00  0.00     0.304 C 
HETATM    4  O   UNL     1      38.889 -12.381   8.125  1.00  0.00    -0.253 OA
HETATM    5  N   UNL     1      40.509 -10.804   7.627  1.00  0.00    -0.270 N 
HETATM    6  C   UNL     1      41.149 -10.436   6.479  1.00  0.00     0.257 C 
HETATM    7  O   UNL     1      41.858  -9.449   6.328  1.00  0.00    -0.270 OA
HETATM    8  H   UNL     1      39.258 -12.851   5.708  1.00  0.00     0.134 HD
ENDROOT
BRANCH   1   9
HETATM    9  C   UNL     1      42.193 -12.136   4.867  1.00  0.00     0.028 C 
HETATM   10  C   UNL     1      42.111 -12.707   3.436  1.00  0.00     0.035 C 
HETATM   11  C   UNL     1      41.378 -14.039   3.337  1.00  0.00     0.235 C 
HETATM   12  N   UNL     1      41.990 -15.047   4.280  1.00  0.00    -0.067 N 
HETATM   13  H   UNL     1      42.945 -15.225   3.946  1.00  0.00     0.280 HD
HETATM   14  C   UNL     1      42.081 -14.568   5.708  1.00  0.00     0.235 C 
HETATM   15  C   UNL     1      42.799 -13.230   5.774  1.00  0.00     0.035 C 
BRANCH  12  16
HETATM   16  C   UNL     1      41.270 -16.387   4.232  1.00  0.00     0.273 C 
BRANCH  16  17
HETATM   17  C   UNL     1      42.123 -17.526   3.734  1.00  0.00    -0.027 A 
HETATM   18  C   UNL     1      42.095 -17.963   2.392  1.00  0.00    -0.054 A 
HETATM   19  C   UNL     1      42.912 -19.040   2.003  1.00  0.00     0.014 A 
HETATM   20  C   UNL     1      41.196 -17.343   1.355  1.00  0.00     0.049 C 
HETATM   21  C   UNL     1      43.747 -19.689   2.918  1.00  0.00    -0.061 A 
HETATM   22  C   UNL     1      44.602 -20.848   2.494  1.00  0.00     0.048 C 
HETATM   23  C   UNL     1      43.776 -19.247   4.241  1.00  0.00     0.007 A 
HETATM   24  C   UNL     1      42.973 -18.180   4.647  1.00  0.00     0.010 A 
ENDBRANCH  16  17
ENDBRANCH  12  16
ENDBRANCH   1   9
BRANCH   1  25
HETATM   25  C   UNL     1      40.003 -10.945   4.255  1.00  0.00     0.067 A 
HETATM   26  N   UNL     1      40.528  -9.864   3.601  1.00  0.00    -0.263 NA
HETATM   27  C   UNL     1      39.810  -9.341   2.579  1.00  0.00     0.117 A 
HETATM   28  C   UNL     1      38.577  -9.823   2.185  1.00  0.00     0.019 A 
HETATM   29  C   UNL     1      38.042 -10.902   2.877  1.00  0.00     0.003 A 
HETATM   30  C   UNL     1      38.756 -11.470   3.929  1.00  0.00     0.030 A 
ENDBRANCH   1  25
BRANCH   5  31
HETATM   31  C   UNL     1      40.515 -10.039   8.863  1.00  0.00     0.168 C 
BRANCH  31  32
HETATM   32  C   UNL     1      41.562 -10.549   9.859  1.00  0.00     0.140 C 
HETATM   33  O   UNL     1      42.752 -11.006   9.175  1.00  0.00    -0.384 OA
HETATM   34  C   UNL     1      43.887 -10.669   9.997  1.00  0.00     0.168 C 
HETATM   35  C   UNL     1      43.356 -10.051  11.274  1.00  0.00     0.029 C 
HETATM   36  C   UNL     1      42.034  -9.478  10.828  1.00  0.00     0.036 C 
ENDBRANCH  31  32
ENDBRANCH   5  31
TORSDOF 6
ENDMDL
MODEL 8
REMARK VINA RESULT:      -8.1      2.975      8.509
REMARK  6 active torsions:
REMARK  status: ('A' for Active; 'I' for Inactive)
REMARK    1  A    between atoms: C_6  and  C_7 
REMARK    2  A    between atoms: C_7  and  N_8 
REMARK    3  A    between atoms: C_12  and  C_13 
REMARK    4  A    between atoms: C_13  and  C_14 
REMARK    5  A    between atoms: N_23  and  C_24 
REMARK    6  A    between atoms: C_24  and  C_25 
ROOT
HETATM    1  C   UNL     1      42.318 -17.228   2.536  1.00  0.00     0.149 C 
HETATM    2  N   UNL     1      43.229 -16.147   2.190  1.00  0.00    -0.220 NA
HETATM    3  C   UNL     1      43.376 -15.265   3.238  1.00  0.00     0.304 C 
HETATM    4  O   UNL     1      44.258 -14.427   3.275  1.00  0.00    -0.253 OA
HETATM    5  N   UNL     1      42.414 -15.511   4.162  1.00  0.00    -0.270 N 
HETATM    6  C   UNL     1      41.787 -16.691   3.883  1.00  0.00     0.257 C 
HETATM    7  O   UNL     1      40.923 -17.231   4.563  1.00  0.00    -0.270 OA
HETATM    8  H   UNL     1      44.120 -16.404   1.767  1.00  0.00     0.134 HD
ENDROOT
BRANCH   1   9
HETATM    9  C   UNL     1      41.159 -17.399   1.499  1.00  0.00     0.028 C 
HETATM   10  C   UNL     1      41.491 -16.910   0.075  1.00  0.00     0.035 C 
HETATM   11  C   UNL     1      41.471 -15.395  -0.086  1.00  0.00     0.235 C 
HETATM   12  N   UNL     1      40.146 -14.836   0.376  1.00  0.00    -0.067 N 
HETATM   13  H   UNL     1      39.431 -15.197  -0.268  1.00  0.00     0.280 HD
HETATM   14  C   UNL     1      39.763 -15.252   1.774  1.00  0.00     0.235 C 
HETATM   15  C   UNL     1      39.811 -16.766   1.910  1.00  0.00     0.035 C 
BRANCH  12  16
HETATM   16  C   UNL     1      40.092 -13.320   0.257  1.00  0.00     0.273 C 
BRANCH  16  17
HETATM   17  C   UNL     1      40.649 -12.784  -1.038  1.00  0.00    -0.027 A 
HETATM   18  C   UNL     1      39.952 -12.884  -2.262  1.00  0.00    -0.054 A 
HETATM   19  C   UNL     1      40.541 -12.371  -3.432  1.00  0.00     0.014 A 
HETATM   20  C   UNL     1      38.607 -13.552  -2.377  1.00  0.00     0.049 C 
HETATM   21  C   UNL     1      41.802 -11.769  -3.409  1.00  0.00    -0.061 A 
HETATM   22  C   UNL     1      42.427 -11.239  -4.667  1.00  0.00     0.048 C 
HETATM   23  C   UNL     1      42.482 -11.666  -2.195  1.00  0.00     0.007 A 
HETATM   24  C   UNL     1      41.915 -12.169  -1.023  1.00  0.00     0.010 A 
ENDBRANCH  16  17
ENDBRANCH  12  16
ENDBRANCH   1   9
BRANCH   1  25
HETATM   25  C   UNL     1      43.132 -18.512   2.705  1.00  0.00     0.067 A 
HETATM   26  N   UNL     1      43.890 -18.573   3.842  1.00  0.00    -0.263 NA
HETATM   27  C   UNL     1      44.625 -19.692   4.046  1.00  0.00     0.117 A 
HETATM   28  C   UNL     1      44.666 -20.752   3.162  1.00  0.00     0.019 A 
HETATM   29  C   UNL     1      43.914 -20.665   1.996  1.00  0.00     0.003 A 
HETATM   30  C   UNL     1      43.141 -19.532   1.757  1.00  0.00     0.030 A 
ENDBRANCH   1  25
BRANCH   5  31
HETATM   31  C   UNL     1      42.200 -14.719   5.362  1.00  0.00     0.168 C 
BRANCH  31  32
HETATM   32  C   UNL     1      42.798 -15.378   6.609  1.00  0.00     0.140 C 
HETATM   33  O   UNL     1      41.948 -16.444   7.092  1.00  0.00    -0.384 OA
HETATM   34  C   UNL     1      42.801 -17.487   7.603  1.00  0.00     0.168 C 
HETATM   35  C   UNL     1      44.231 -16.999   7.497  1.00  0.00     0.029 C 
HETATM   36  C   UNL     1      44.151 -16.019   6.353  1.00  0.00     0.036 C 
ENDBRANCH  31  32
ENDBRANCH   5  31
TORSDOF 6
ENDMDL
MODEL 9
REMARK VINA RESULT:      -8.0      1.893      2.331
REMARK  6 active torsions:
REMARK  status: ('A' for Active; 'I' for Inactive)
REMARK    1  A    between atoms: C_6  and  C_7 
REMARK    2  A    between atoms: C_7  and  N_8 
REMARK    3  A    between atoms: C_12  and  C_13 
REMARK    4  A    between atoms: C_13  and  C_14 
REMARK    5  A    between atoms: N_23  and  C_24 
REMARK    6  A    between atoms: C_24  and  C_25 
ROOT
HETATM    1  C   UNL     1      40.304 -11.399   1.901  1.00  0.00     0.149 C 
HETATM    2  N   UNL     1      41.739 -11.346   1.659  1.00  0.00    -0.220 NA
HETATM    3  C   UNL     1      42.016 -11.337   0.310  1.00  0.00     0.304 C 
HETATM    4  O   UNL     1      43.115 -11.055  -0.134  1.00  0.00    -0.253 OA
HETATM    5  N   UNL     1      40.895 -11.668  -0.375  1.00  0.00    -0.270 N 
HETATM    6  C   UNL     1      39.814 -11.651   0.458  1.00  0.00     0.257 C 
HETATM    7  O   UNL     1      38.646 -11.835   0.136  1.00  0.00    -0.270 OA
HETATM    8  H   UNL     1      42.273 -10.648   2.174  1.00  0.00     0.134 HD
ENDROOT
BRANCH   1   9
HETATM    9  C   UNL     1      39.893 -12.572   2.851  1.00  0.00     0.028 C 
HETATM   10  C   UNL     1      40.665 -12.622   4.186  1.00  0.00     0.035 C 
HETATM   11  C   UNL     1      42.086 -13.159   4.065  1.00  0.00     0.235 C 
HETATM   12  N   UNL     1      42.079 -14.515   3.400  1.00  0.00    -0.067 N 
HETATM   13  H   UNL     1      41.589 -15.155   4.037  1.00  0.00     0.280 HD
HETATM   14  C   UNL     1      41.361 -14.540   2.074  1.00  0.00     0.235 C 
HETATM   15  C   UNL     1      39.955 -13.981   2.221  1.00  0.00     0.035 C 
BRANCH  12  16
HETATM   16  C   UNL     1      43.483 -15.079   3.235  1.00  0.00     0.273 C 
BRANCH  16  17
HETATM   17  C   UNL     1      43.521 -16.556   2.938  1.00  0.00    -0.027 A 
HETATM   18  C   UNL     1      43.410 -17.536   3.947  1.00  0.00    -0.054 A 
HETATM   19  C   UNL     1      43.465 -18.897   3.594  1.00  0.00     0.014 A 
HETATM   20  C   UNL     1      43.265 -17.187   5.405  1.00  0.00     0.049 C 
HETATM   21  C   UNL     1      43.634 -19.298   2.266  1.00  0.00    -0.061 A 
HETATM   22  C   UNL     1      43.707 -20.754   1.903  1.00  0.00     0.048 C 
HETATM   23  C   UNL     1      43.736 -18.325   1.271  1.00  0.00     0.007 A 
HETATM   24  C   UNL     1      43.683 -16.970   1.601  1.00  0.00     0.010 A 
ENDBRANCH  16  17
ENDBRANCH  12  16
ENDBRANCH   1   9
BRANCH   1  25
HETATM   25  C   UNL     1      39.853 -10.039   2.437  1.00  0.00     0.067 A 
HETATM   26  N   UNL     1      40.862  -9.150   2.685  1.00  0.00    -0.263 NA
HETATM   27  C   UNL     1      40.518  -7.926   3.152  1.00  0.00     0.117 A 
HETATM   28  C   UNL     1      39.216  -7.545   3.413  1.00  0.00     0.019 A 
HETATM   29  C   UNL     1      38.203  -8.468   3.186  1.00  0.00     0.003 A 
HETATM   30  C   UNL     1      38.520  -9.734   2.698  1.00  0.00     0.030 A 
ENDBRANCH   1  25
BRANCH   5  31
HETATM   31  C   UNL     1      40.830 -11.848  -1.816  1.00  0.00     0.168 C 
BRANCH  31  32
HETATM   32  C   UNL     1      41.364 -13.216  -2.256  1.00  0.00     0.140 C 
HETATM   33  O   UNL     1      41.233 -14.192  -1.196  1.00  0.00    -0.384 OA
HETATM   34  C   UNL     1      40.919 -15.460  -1.804  1.00  0.00     0.168 C 
HETATM   35  C   UNL     1      40.938 -15.262  -3.306  1.00  0.00     0.029 C 
HETATM   36  C   UNL     1      40.609 -13.796  -3.440  1.00  0.00     0.036 C 
ENDBRANCH  31  32
ENDBRANCH   5  31
TORSDOF 6
ENDMDL
MODEL 10
REMARK VINA RESULT:      -8.0      1.640      2.621
REMARK  6 active torsions:
REMARK  status: ('A' for Active; 'I' for Inactive)
REMARK    1  A    between atoms: C_6  and  C_7 
REMARK    2  A    between atoms: C_7  and  N_8 
REMARK    3  A    between atoms: C_12  and  C_13 
REMARK    4  A    between atoms: C_13  and  C_14 
REMARK    5  A    between atoms: N_23  and  C_24 
REMARK    6  A    between atoms: C_24  and  C_25 
ROOT
HETATM    1  C   UNL     1      41.236 -12.587   4.356  1.00  0.00     0.149 C 
HETATM    2  N   UNL     1      42.371 -12.624   3.445  1.00  0.00    -0.220 NA
HETATM    3  C   UNL     1      41.967 -12.460   2.139  1.00  0.00     0.304 C 
HETATM    4  O   UNL     1      42.745 -12.216   1.235  1.00  0.00    -0.253 OA
HETATM    5  N   UNL     1      40.621 -12.602   2.070  1.00  0.00    -0.270 N 
HETATM    6  C   UNL     1      40.085 -12.604   3.326  1.00  0.00     0.257 C 
HETATM    7  O   UNL     1      38.893 -12.644   3.606  1.00  0.00    -0.270 OA
HETATM    8  H   UNL     1      43.177 -12.047   3.681  1.00  0.00     0.134 HD
ENDROOT
BRANCH   1   9
HETATM    9  C   UNL     1      41.172 -13.836   5.296  1.00  0.00     0.028 C 
HETATM   10  C   UNL     1      42.531 -14.274   5.878  1.00  0.00     0.035 C 
HETATM   11  C   UNL     1      43.427 -15.010   4.888  1.00  0.00     0.235 C 
HETATM   12  N   UNL     1      42.693 -16.190   4.295  1.00  0.00    -0.067 N 
HETATM   13  H   UNL     1      42.521 -16.849   5.064  1.00  0.00     0.280 HD
HETATM   14  C   UNL     1      41.362 -15.834   3.682  1.00  0.00     0.235 C 
HETATM   15  C   UNL     1      40.499 -15.085   4.685  1.00  0.00     0.035 C 
BRANCH  12  16
HETATM   16  C   UNL     1      43.543 -16.939   3.279  1.00  0.00     0.273 C 
BRANCH  16  17
HETATM   17  C   UNL     1      43.951 -18.322   3.720  1.00  0.00    -0.027 A 
HETATM   18  C   UNL     1      43.945 -19.429   2.844  1.00  0.00    -0.054 A 
HETATM   19  C   UNL     1      44.327 -20.693   3.330  1.00  0.00     0.014 A 
HETATM   20  C   UNL     1      43.510 -19.324   1.406  1.00  0.00     0.049 C 
HETATM   21  C   UNL     1      44.709 -20.875   4.663  1.00  0.00    -0.061 A 
HETATM   22  C   UNL     1      45.100 -22.232   5.174  1.00  0.00     0.048 C 
HETATM   23  C   UNL     1      44.720 -19.776   5.522  1.00  0.00     0.007 A 
HETATM   24  C   UNL     1      44.344 -18.514   5.058  1.00  0.00     0.010 A 
ENDBRANCH  16  17
ENDBRANCH  12  16
ENDBRANCH   1   9
BRANCH   1  25
HETATM   25  C   UNL     1      41.289 -11.277   5.143  1.00  0.00     0.067 A 
HETATM   26  N   UNL     1      41.211 -10.141   4.385  1.00  0.00    -0.263 NA
HETATM   27  C   UNL     1      41.245  -8.952   5.032  1.00  0.00     0.117 A 
HETATM   28  C   UNL     1      41.378  -8.829   6.402  1.00  0.00     0.019 A 
HETATM   29  C   UNL     1      41.486  -9.990   7.157  1.00  0.00     0.003 A 
HETATM   30  C   UNL     1      41.447 -11.231   6.526  1.00  0.00     0.030 A 
ENDBRANCH   1  25
BRANCH   5  31
HETATM   31  C   UNL     1      39.850 -12.585   0.838  1.00  0.00     0.168 C 
BRANCH  31  32
HETATM   32  C   UNL     1      39.824 -13.953   0.148  1.00  0.00     0.140 C 
HETATM   33  O   UNL     1      39.415 -13.832  -1.235  1.00  0.00    -0.384 OA
HETATM   34  C   UNL     1      40.159 -14.802  -1.998  1.00  0.00     0.168 C 
HETATM   35  C   UNL     1      40.999 -15.602  -1.023  1.00  0.00     0.029 C 
HETATM   36  C   UNL     1      41.185 -14.628   0.114  1.00  0.00     0.036 C 
ENDBRANCH  31  32
ENDBRANCH   5  31
TORSDOF 6
ENDMDL
