MODEL 1
REMARK VINA RESULT:      -9.1      0.000      0.000
REMARK  6 active torsions:
REMARK  status: ('A' for Active; 'I' for Inactive)
REMARK    1  A    between atoms: C_3  and  C_4 
REMARK    2  A    between atoms: C_9  and  N_10 
REMARK       I    between atoms: N_10  and  C_11 
REMARK       I    between atoms: C_11  and  N_12 
REMARK    3  A    between atoms: N_12  and  C_13 
REMARK    4  A    between atoms: C_13  and  C_14 
REMARK    5  A    between atoms: C_14  and  C_15 
REMARK    6  A    between atoms: N_17  and  C_18 
ROOT
HETATM    1  N   UNL     1      43.965 -12.597   8.740  1.00  0.00    -0.309 N 
HETATM    2  C   UNL     1      45.221 -12.807   8.249  1.00  0.00     0.320 C 
HETATM    3  N   UNL     1      45.328 -13.656   7.191  1.00  0.00    -0.343 N 
HETATM    4  O   UNL     1      46.259 -12.294   8.655  1.00  0.00    -0.247 OA
HETATM    5  H   UNL     1      43.221 -13.122   8.318  1.00  0.00     0.170 HD
HETATM    6  H   UNL     1      46.289 -13.709   6.873  1.00  0.00     0.164 HD
ENDROOT
BRANCH   3   7
HETATM    7  C   UNL     1      44.341 -14.416   6.435  1.00  0.00     0.129 C 
BRANCH   7   8
HETATM    8  C   UNL     1      43.932 -15.707   7.153  1.00  0.00     0.061 C 
BRANCH   8   9
HETATM    9  C   UNL     1      44.324 -16.942   6.418  1.00  0.00    -0.020 A 
HETATM   10  C   UNL     1      43.747 -17.483   5.287  1.00  0.00     0.127 A 
HETATM   11  N   UNL     1      44.427 -18.644   4.980  1.00  0.00    -0.245 N 
HETATM   12  N   UNL     1      45.433 -18.861   5.870  1.00  0.00    -0.180 NA
HETATM   13  C   UNL     1      45.359 -17.846   6.727  1.00  0.00     0.148 A 
BRANCH  11  14
HETATM   14  C   UNL     1      44.176 -19.556   3.916  1.00  0.00     0.058 A 
HETATM   15  C   UNL     1      44.719 -20.848   3.923  1.00  0.00     0.031 A 
HETATM   16  C   UNL     1      44.465 -21.718   2.858  1.00  0.00     0.002 A 
HETATM   17  C   UNL     1      43.674 -21.309   1.788  1.00  0.00     0.000 A 
HETATM   18  C   UNL     1      43.129 -20.027   1.776  1.00  0.00     0.002 A 
HETATM   19  C   UNL     1      43.376 -19.152   2.837  1.00  0.00     0.031 A 
ENDBRANCH  11  14
ENDBRANCH   8   9
ENDBRANCH   7   8
ENDBRANCH   3   7
BRANCH   1  20
HETATM   20  C   UNL     1      43.578 -11.731   9.784  1.00  0.00     0.036 A 
HETATM   21  C   UNL     1      44.042 -11.827  11.093  1.00  0.00     0.030 A 
HETATM   22  C   UNL     1      43.608 -10.922  12.069  1.00  0.00     0.018 A 
HETATM   23  C   UNL     1      42.712  -9.893  11.747  1.00  0.00     0.015 A 
HETATM   24  C   UNL     1      42.240  -9.773  10.426  1.00  0.00    -0.046 A 
HETATM   25  C   UNL     1      41.282  -8.694  10.003  1.00  0.00     0.049 C 
HETATM   26  C   UNL     1      42.673 -10.709   9.464  1.00  0.00     0.037 A 
BRANCH  23  27
HETATM   27  C   UNL     1      42.266  -8.960  12.825  1.00  0.00     0.156 C 
HETATM   28  C   UNL     1      41.001  -9.289  13.577  1.00  0.00     0.097 C 
HETATM   29  O   UNL     1      42.902  -7.940  13.073  1.00  0.00    -0.293 OA
ENDBRANCH  23  27
ENDBRANCH   1  20
TORSDOF 6
ENDMDL
MODEL 2
REMARK VINA RESULT:      -9.0      2.874     11.163
REMARK  6 active torsions:
REMARK  status: ('A' for Active; 'I' for Inactive)
REMARK    1  A    between atoms: C_3  and  C_4 
REMARK    2  A    between atoms: C_9  and  N_10 
REMARK       I    between atoms: N_10  and  C_11 
REMARK       I    between atoms: C_11  and  N_12 
REMARK    3  A    between atoms: N_12  and  C_13 
REMARK    4  A    between atoms: C_13  and  C_14 
REMARK    5  A    between atoms: C_14  and  C_15 
REMARK    6  A    between atoms: N_17  and  C_18 
ROOT
HETATM    1  N   UNL     1      44.180 -16.874   5.759  1.00  0.00    -0.309 N 
HETATM    2  C   UNL     1      43.595 -16.623   6.965  1.00  0.00     0.320 C 
HETATM    3  N   UNL     1      43.563 -15.323   7.369  1.00  0.00    -0.343 N 
HETATM    4  O   UNL     1      43.080 -17.448   7.714  1.00  0.00    -0.247 OA
HETATM    5  H   UNL     1      44.587 -16.091   5.282  1.00  0.00     0.170 HD
HETATM    6  H   UNL     1      43.069 -15.236   8.250  1.00  0.00     0.164 HD
ENDROOT
BRANCH   3   7
HETATM    7  C   UNL     1      44.035 -14.090   6.754  1.00  0.00     0.129 C 
BRANCH   7   8
HETATM    8  C   UNL     1      45.380 -13.635   7.332  1.00  0.00     0.061 C 
BRANCH   8   9
HETATM    9  C   UNL     1      45.257 -12.518   8.310  1.00  0.00    -0.020 A 
HETATM   10  C   UNL     1      44.167 -12.175   9.083  1.00  0.00     0.127 A 
HETATM   11  N   UNL     1      44.504 -11.058   9.818  1.00  0.00    -0.245 N 
HETATM   12  N   UNL     1      45.783 -10.677   9.553  1.00  0.00    -0.180 NA
HETATM   13  C   UNL     1      46.221 -11.549   8.648  1.00  0.00     0.148 A 
BRANCH  11  14
HETATM   14  C   UNL     1      43.694 -10.329  10.734  1.00  0.00     0.058 A 
HETATM   15  C   UNL     1      44.057 -10.201  12.082  1.00  0.00     0.031 A 
HETATM   16  C   UNL     1      43.235  -9.490  12.962  1.00  0.00     0.002 A 
HETATM   17  C   UNL     1      42.055  -8.906  12.507  1.00  0.00     0.000 A 
HETATM   18  C   UNL     1      41.690  -9.027  11.168  1.00  0.00     0.002 A 
HETATM   19  C   UNL     1      42.507  -9.734  10.282  1.00  0.00     0.031 A 
ENDBRANCH  11  14
ENDBRANCH   8   9
ENDBRANCH   7   8
ENDBRANCH   3   7
BRANCH   1  20
HETATM   20  C   UNL     1      44.293 -18.113   5.093  1.00  0.00     0.036 A 
HETATM   21  C   UNL     1      45.052 -19.184   5.556  1.00  0.00     0.030 A 
HETATM   22  C   UNL     1      45.107 -20.382   4.834  1.00  0.00     0.018 A 
HETATM   23  C   UNL     1      44.387 -20.534   3.641  1.00  0.00     0.015 A 
HETATM   24  C   UNL     1      43.604 -19.466   3.163  1.00  0.00    -0.046 A 
HETATM   25  C   UNL     1      42.801 -19.556   1.894  1.00  0.00     0.049 C 
HETATM   26  C   UNL     1      43.582 -18.261   3.894  1.00  0.00     0.037 A 
BRANCH  23  27
HETATM   27  C   UNL     1      44.487 -21.826   2.897  1.00  0.00     0.156 C 
HETATM   28  C   UNL     1      44.629 -21.778   1.397  1.00  0.00     0.097 C 
HETATM   29  O   UNL     1      44.431 -22.898   3.493  1.00  0.00    -0.293 OA
ENDBRANCH  23  27
ENDBRANCH   1  20
TORSDOF 6
ENDMDL
MODEL 3
REMARK VINA RESULT:      -8.8      5.241      8.817
REMARK  6 active torsions:
REMARK  status: ('A' for Active; 'I' for Inactive)
REMARK    1  A    between atoms: C_3  and  C_4 
REMARK    2  A    between atoms: C_9  and  N_10 
REMARK       I    between atoms: N_10  and  C_11 
REMARK       I    between atoms: C_11  and  N_12 
REMARK    3  A    between atoms: N_12  and  C_13 
REMARK    4  A    between atoms: C_13  and  C_14 
REMARK    5  A    between atoms: C_14  and  C_15 
REMARK    6  A    between atoms: N_17  and  C_18 
ROOT
HETATM    1  N   UNL     1      42.163 -14.883   2.843  1.00  0.00    -0.309 N 
HETATM    2  C   UNL     1      41.315 -14.697   3.895  1.00  0.00     0.320 C 
HETATM    3  N   UNL     1      41.888 -14.537   5.119  1.00  0.00    -0.343 N 
HETATM    4  O   UNL     1      40.090 -14.644   3.846  1.00  0.00    -0.247 OA
HETATM    5  H   UNL     1      43.143 -14.937   3.056  1.00  0.00     0.170 HD
HETATM    6  H   UNL     1      41.180 -14.360   5.823  1.00  0.00     0.164 HD
ENDROOT
BRANCH   3   7
HETATM    7  C   UNL     1      43.277 -14.512   5.561  1.00  0.00     0.129 C 
BRANCH   7   8
HETATM    8  C   UNL     1      43.560 -15.571   6.632  1.00  0.00     0.061 C 
BRANCH   8   9
HETATM    9  C   UNL     1      44.033 -16.869   6.071  1.00  0.00    -0.020 A 
HETATM   10  C   UNL     1      43.592 -17.522   4.938  1.00  0.00     0.127 A 
HETATM   11  N   UNL     1      44.300 -18.700   4.827  1.00  0.00    -0.245 N 
HETATM   12  N   UNL     1      45.194 -18.821   5.845  1.00  0.00    -0.180 NA
HETATM   13  C   UNL     1      45.023 -17.728   6.585  1.00  0.00     0.148 A 
BRANCH  11  14
HETATM   14  C   UNL     1      44.173 -19.713   3.835  1.00  0.00     0.058 A 
HETATM   15  C   UNL     1      43.495 -19.471   2.632  1.00  0.00     0.031 A 
HETATM   16  C   UNL     1      43.375 -20.488   1.680  1.00  0.00     0.002 A 
HETATM   17  C   UNL     1      43.926 -21.745   1.920  1.00  0.00     0.000 A 
HETATM   18  C   UNL     1      44.604 -21.991   3.112  1.00  0.00     0.002 A 
HETATM   19  C   UNL     1      44.730 -20.979   4.067  1.00  0.00     0.031 A 
ENDBRANCH  11  14
ENDBRANCH   8   9
ENDBRANCH   7   8
ENDBRANCH   3   7
BRANCH   1  20
HETATM   20  C   UNL     1      41.832 -15.017   1.478  1.00  0.00     0.036 A 
HETATM   21  C   UNL     1      41.574 -16.234   0.852  1.00  0.00     0.030 A 
HETATM   22  C   UNL     1      41.248 -16.278  -0.509  1.00  0.00     0.018 A 
HETATM   23  C   UNL     1      41.161 -15.100  -1.264  1.00  0.00     0.015 A 
HETATM   24  C   UNL     1      41.407 -13.860  -0.646  1.00  0.00    -0.046 A 
HETATM   25  C   UNL     1      41.327 -12.554  -1.389  1.00  0.00     0.049 C 
HETATM   26  C   UNL     1      41.755 -13.840   0.720  1.00  0.00     0.037 A 
BRANCH  23  27
HETATM   27  C   UNL     1      40.824 -15.198  -2.717  1.00  0.00     0.156 C 
HETATM   28  C   UNL     1      39.370 -15.220  -3.114  1.00  0.00     0.097 C 
HETATM   29  O   UNL     1      41.712 -15.281  -3.561  1.00  0.00    -0.293 OA
ENDBRANCH  23  27
ENDBRANCH   1  20
TORSDOF 6
ENDMDL
MODEL 4
REMARK VINA RESULT:      -8.7      2.880     11.388
REMARK  6 active torsions:
REMARK  status: ('A' for Active; 'I' for Inactive)
REMARK    1  A    between atoms: C_3  and  C_4 
REMARK    2  A    between atoms: C_9  and  N_10 
REMARK       I    between atoms: N_10  and  C_11 
REMARK       I    between atoms: C_11  and  N_12 
REMARK    3  A    between atoms: N_12  and  C_13 
REMARK    4  A    between atoms: C_13  and  C_14 
REMARK    5  A    between atoms: C_14  and  C_15 
REMARK    6  A    between atoms: N_17  and  C_18 
ROOT
HETATM    1  N   UNL     1      44.080 -16.530   5.577  1.00  0.00    -0.309 N 
HETATM    2  C   UNL     1      43.498 -16.394   6.804  1.00  0.00     0.320 C 
HETATM    3  N   UNL     1      43.612 -15.177   7.402  1.00  0.00    -0.343 N 
HETATM    4  O   UNL     1      42.869 -17.255   7.413  1.00  0.00    -0.247 OA
HETATM    5  H   UNL     1      44.591 -15.739   5.229  1.00  0.00     0.170 HD
HETATM    6  H   UNL     1      43.110 -15.165   8.283  1.00  0.00     0.164 HD
ENDROOT
BRANCH   3   7
HETATM    7  C   UNL     1      44.245 -13.932   6.987  1.00  0.00     0.129 C 
BRANCH   7   8
HETATM    8  C   UNL     1      45.035 -13.279   8.127  1.00  0.00     0.061 C 
BRANCH   8   9
HETATM    9  C   UNL     1      44.223 -12.333   8.943  1.00  0.00    -0.020 A 
HETATM   10  C   UNL     1      44.191 -12.199  10.317  1.00  0.00     0.127 A 
HETATM   11  N   UNL     1      43.275 -11.214  10.624  1.00  0.00    -0.245 N 
HETATM   12  N   UNL     1      42.725 -10.699   9.491  1.00  0.00    -0.180 NA
HETATM   13  C   UNL     1      43.292 -11.376   8.495  1.00  0.00     0.148 A 
BRANCH  11  14
HETATM   14  C   UNL     1      42.883 -10.748  11.910  1.00  0.00     0.058 A 
HETATM   15  C   UNL     1      41.691 -11.180  12.508  1.00  0.00     0.031 A 
HETATM   16  C   UNL     1      41.325 -10.695  13.767  1.00  0.00     0.002 A 
HETATM   17  C   UNL     1      42.139  -9.783  14.434  1.00  0.00     0.000 A 
HETATM   18  C   UNL     1      43.326  -9.351  13.847  1.00  0.00     0.002 A 
HETATM   19  C   UNL     1      43.700  -9.832  12.589  1.00  0.00     0.031 A 
ENDBRANCH  11  14
ENDBRANCH   8   9
ENDBRANCH   7   8
ENDBRANCH   3   7
BRANCH   1  20
HETATM   20  C   UNL     1      44.061 -17.658   4.730  1.00  0.00     0.036 A 
HETATM   21  C   UNL     1      43.711 -17.619   3.383  1.00  0.00     0.030 A 
HETATM   22  C   UNL     1      43.721 -18.787   2.612  1.00  0.00     0.018 A 
HETATM   23  C   UNL     1      44.096 -20.015   3.173  1.00  0.00     0.015 A 
HETATM   24  C   UNL     1      44.464 -20.073   4.531  1.00  0.00    -0.046 A 
HETATM   25  C   UNL     1      44.884 -21.351   5.203  1.00  0.00     0.049 C 
HETATM   26  C   UNL     1      44.426 -18.888   5.295  1.00  0.00     0.037 A 
BRANCH  23  27
HETATM   27  C   UNL     1      44.078 -21.238   2.315  1.00  0.00     0.156 C 
HETATM   28  C   UNL     1      42.811 -21.568   1.568  1.00  0.00     0.097 C 
HETATM   29  O   UNL     1      45.063 -21.966   2.241  1.00  0.00    -0.293 OA
ENDBRANCH  23  27
ENDBRANCH   1  20
TORSDOF 6
ENDMDL
MODEL 5
REMARK VINA RESULT:      -8.7      4.544      9.341
REMARK  6 active torsions:
REMARK  status: ('A' for Active; 'I' for Inactive)
REMARK    1  A    between atoms: C_3  and  C_4 
REMARK    2  A    between atoms: C_9  and  N_10 
REMARK       I    between atoms: N_10  and  C_11 
REMARK       I    between atoms: C_11  and  N_12 
REMARK    3  A    between atoms: N_12  and  C_13 
REMARK    4  A    between atoms: C_13  and  C_14 
REMARK    5  A    between atoms: C_14  and  C_15 
REMARK    6  A    between atoms: N_17  and  C_18 
ROOT
HETATM    1  N   UNL     1      44.251 -17.268   5.817  1.00  0.00    -0.309 N 
HETATM    2  C   UNL     1      43.474 -17.050   6.917  1.00  0.00     0.320 C 
HETATM    3  N   UNL     1      43.603 -15.839   7.525  1.00  0.00    -0.343 N 
HETATM    4  O   UNL     1      42.659 -17.829   7.403  1.00  0.00    -0.247 OA
HETATM    5  H   UNL     1      44.895 -16.540   5.567  1.00  0.00     0.170 HD
HETATM    6  H   UNL     1      42.954 -15.758   8.299  1.00  0.00     0.164 HD
ENDROOT
BRANCH   3   7
HETATM    7  C   UNL     1      44.426 -14.673   7.230  1.00  0.00     0.129 C 
BRANCH   7   8
HETATM    8  C   UNL     1      43.611 -13.535   6.603  1.00  0.00     0.061 C 
BRANCH   8   9
HETATM    9  C   UNL     1      42.693 -13.991   5.522  1.00  0.00    -0.020 A 
HETATM   10  C   UNL     1      43.016 -14.429   4.254  1.00  0.00     0.127 A 
HETATM   11  N   UNL     1      41.840 -14.721   3.595  1.00  0.00    -0.245 N 
HETATM   12  N   UNL     1      40.768 -14.499   4.403  1.00  0.00    -0.180 NA
HETATM   13  C   UNL     1      41.286 -14.057   5.547  1.00  0.00     0.148 A 
BRANCH  11  14
HETATM   14  C   UNL     1      41.671 -15.179   2.258  1.00  0.00     0.058 A 
HETATM   15  C   UNL     1      41.417 -16.529   1.978  1.00  0.00     0.031 A 
HETATM   16  C   UNL     1      41.268 -16.952   0.654  1.00  0.00     0.002 A 
HETATM   17  C   UNL     1      41.369 -16.039  -0.393  1.00  0.00     0.000 A 
HETATM   18  C   UNL     1      41.618 -14.695  -0.122  1.00  0.00     0.002 A 
HETATM   19  C   UNL     1      41.767 -14.264   1.199  1.00  0.00     0.031 A 
ENDBRANCH  11  14
ENDBRANCH   8   9
ENDBRANCH   7   8
ENDBRANCH   3   7
BRANCH   1  20
HETATM   20  C   UNL     1      44.268 -18.405   4.982  1.00  0.00     0.036 A 
HETATM   21  C   UNL     1      43.996 -18.377   3.616  1.00  0.00     0.030 A 
HETATM   22  C   UNL     1      44.038 -19.554   2.859  1.00  0.00     0.018 A 
HETATM   23  C   UNL     1      44.368 -20.779   3.454  1.00  0.00     0.015 A 
HETATM   24  C   UNL     1      44.658 -20.825   4.831  1.00  0.00    -0.046 A 
HETATM   25  C   UNL     1      45.025 -22.101   5.539  1.00  0.00     0.049 C 
HETATM   26  C   UNL     1      44.588 -19.633   5.579  1.00  0.00     0.037 A 
BRANCH  23  27
HETATM   27  C   UNL     1      44.386 -22.011   2.608  1.00  0.00     0.156 C 
HETATM   28  C   UNL     1      43.885 -21.912   1.190  1.00  0.00     0.097 C 
HETATM   29  O   UNL     1      44.778 -23.079   3.067  1.00  0.00    -0.293 OA
ENDBRANCH  23  27
ENDBRANCH   1  20
TORSDOF 6
ENDMDL
MODEL 6
REMARK VINA RESULT:      -8.7      6.158     10.105
REMARK  6 active torsions:
REMARK  status: ('A' for Active; 'I' for Inactive)
REMARK    1  A    between atoms: C_3  and  C_4 
REMARK    2  A    between atoms: C_9  and  N_10 
REMARK       I    between atoms: N_10  and  C_11 
REMARK       I    between atoms: C_11  and  N_12 
REMARK    3  A    between atoms: N_12  and  C_13 
REMARK    4  A    between atoms: C_13  and  C_14 
REMARK    5  A    between atoms: C_14  and  C_15 
REMARK    6  A    between atoms: N_17  and  C_18 
ROOT
HETATM    1  N   UNL     1      42.453 -14.811   2.874  1.00  0.00    -0.309 N 
HETATM    2  C   UNL     1      43.128 -13.700   3.289  1.00  0.00     0.320 C 
HETATM    3  N   UNL     1      42.420 -12.539   3.339  1.00  0.00    -0.343 N 
HETATM    4  O   UNL     1      44.304 -13.648   3.637  1.00  0.00    -0.247 OA
HETATM    5  H   UNL     1      41.499 -14.680   2.589  1.00  0.00     0.170 HD
HETATM    6  H   UNL     1      42.995 -11.787   3.702  1.00  0.00     0.164 HD
ENDROOT
BRANCH   3   7
HETATM    7  C   UNL     1      41.031 -12.220   3.037  1.00  0.00     0.129 C 
BRANCH   7   8
HETATM    8  C   UNL     1      40.893 -11.403   1.747  1.00  0.00     0.061 C 
BRANCH   8   9
HETATM    9  C   UNL     1      40.916 -12.237   0.513  1.00  0.00    -0.020 A 
HETATM   10  C   UNL     1      39.852 -12.826  -0.140  1.00  0.00     0.127 A 
HETATM   11  N   UNL     1      40.353 -13.523  -1.220  1.00  0.00    -0.245 N 
HETATM   12  N   UNL     1      41.704 -13.390  -1.293  1.00  0.00    -0.180 NA
HETATM   13  C   UNL     1      42.031 -12.628  -0.252  1.00  0.00     0.148 A 
BRANCH  11  14
HETATM   14  C   UNL     1      39.638 -14.308  -2.169  1.00  0.00     0.058 A 
HETATM   15  C   UNL     1      38.273 -14.098  -2.405  1.00  0.00     0.031 A 
HETATM   16  C   UNL     1      37.593 -14.893  -3.333  1.00  0.00     0.002 A 
HETATM   17  C   UNL     1      38.267 -15.896  -4.027  1.00  0.00     0.000 A 
HETATM   18  C   UNL     1      39.625 -16.109  -3.799  1.00  0.00     0.002 A 
HETATM   19  C   UNL     1      40.311 -15.317  -2.874  1.00  0.00     0.031 A 
ENDBRANCH  11  14
ENDBRANCH   8   9
ENDBRANCH   7   8
ENDBRANCH   3   7
BRANCH   1  20
HETATM   20  C   UNL     1      42.935 -16.134   2.787  1.00  0.00     0.036 A 
HETATM   21  C   UNL     1      43.445 -16.706   1.624  1.00  0.00     0.030 A 
HETATM   22  C   UNL     1      43.907 -18.028   1.626  1.00  0.00     0.018 A 
HETATM   23  C   UNL     1      43.879 -18.796   2.797  1.00  0.00     0.015 A 
HETATM   24  C   UNL     1      43.377 -18.232   3.985  1.00  0.00    -0.046 A 
HETATM   25  C   UNL     1      43.319 -18.992   5.282  1.00  0.00     0.049 C 
HETATM   26  C   UNL     1      42.897 -16.907   3.956  1.00  0.00     0.037 A 
BRANCH  23  27
HETATM   27  C   UNL     1      44.368 -20.207   2.747  1.00  0.00     0.156 C 
HETATM   28  C   UNL     1      43.666 -21.175   1.830  1.00  0.00     0.097 C 
HETATM   29  O   UNL     1      45.304 -20.571   3.454  1.00  0.00    -0.293 OA
ENDBRANCH  23  27
ENDBRANCH   1  20
TORSDOF 6
ENDMDL
MODEL 7
REMARK VINA RESULT:      -8.6      4.483      7.892
REMARK  6 active torsions:
REMARK  status: ('A' for Active; 'I' for Inactive)
REMARK    1  A    between atoms: C_3  and  C_4 
REMARK    2  A    between atoms: C_9  and  N_10 
REMARK       I    between atoms: N_10  and  C_11 
REMARK       I    between atoms: C_11  and  N_12 
REMARK    3  A    between atoms: N_12  and  C_13 
REMARK    4  A    between atoms: C_13  and  C_14 
REMARK    5  A    between atoms: C_14  and  C_15 
REMARK    6  A    between atoms: N_17  and  C_18 
ROOT
HETATM    1  N   UNL     1      42.862 -13.973   3.977  1.00  0.00    -0.309 N 
HETATM    2  C   UNL     1      42.289 -13.413   5.082  1.00  0.00     0.320 C 
HETATM    3  N   UNL     1      42.962 -13.553   6.256  1.00  0.00    -0.343 N 
HETATM    4  O   UNL     1      41.236 -12.782   5.118  1.00  0.00    -0.247 OA
HETATM    5  H   UNL     1      43.711 -14.488   4.120  1.00  0.00     0.170 HD
HETATM    6  H   UNL     1      42.480 -13.066   7.003  1.00  0.00     0.164 HD
ENDROOT
BRANCH   3   7
HETATM    7  C   UNL     1      44.225 -14.196   6.595  1.00  0.00     0.129 C 
BRANCH   7   8
HETATM    8  C   UNL     1      44.019 -15.486   7.398  1.00  0.00     0.061 C 
BRANCH   8   9
HETATM    9  C   UNL     1      44.320 -16.721   6.621  1.00  0.00    -0.020 A 
HETATM   10  C   UNL     1      43.783 -17.125   5.415  1.00  0.00     0.127 A 
HETATM   11  N   UNL     1      44.341 -18.344   5.092  1.00  0.00    -0.245 N 
HETATM   12  N   UNL     1      45.231 -18.733   6.044  1.00  0.00    -0.180 NA
HETATM   13  C   UNL     1      45.207 -17.763   6.954  1.00  0.00     0.148 A 
BRANCH  11  14
HETATM   14  C   UNL     1      44.075 -19.160   3.956  1.00  0.00     0.058 A 
HETATM   15  C   UNL     1      43.160 -18.760   2.972  1.00  0.00     0.031 A 
HETATM   16  C   UNL     1      42.909 -19.588   1.873  1.00  0.00     0.002 A 
HETATM   17  C   UNL     1      43.563 -20.811   1.749  1.00  0.00     0.000 A 
HETATM   18  C   UNL     1      44.476 -21.214   2.722  1.00  0.00     0.002 A 
HETATM   19  C   UNL     1      44.734 -20.391   3.822  1.00  0.00     0.031 A 
ENDBRANCH  11  14
ENDBRANCH   8   9
ENDBRANCH   7   8
ENDBRANCH   3   7
BRANCH   1  20
HETATM   20  C   UNL     1      42.401 -13.924   2.644  1.00  0.00     0.036 A 
HETATM   21  C   UNL     1      42.181 -12.745   1.936  1.00  0.00     0.030 A 
HETATM   22  C   UNL     1      41.725 -12.786   0.613  1.00  0.00     0.018 A 
HETATM   23  C   UNL     1      41.497 -14.011  -0.030  1.00  0.00     0.015 A 
HETATM   24  C   UNL     1      41.725 -15.213   0.666  1.00  0.00    -0.046 A 
HETATM   25  C   UNL     1      41.508 -16.564   0.042  1.00  0.00     0.049 C 
HETATM   26  C   UNL     1      42.163 -15.148   2.005  1.00  0.00     0.037 A 
BRANCH  23  27
HETATM   27  C   UNL     1      40.997 -14.005  -1.438  1.00  0.00     0.156 C 
HETATM   28  C   UNL     1      39.508 -13.957  -1.668  1.00  0.00     0.097 C 
HETATM   29  O   UNL     1      41.781 -14.062  -2.381  1.00  0.00    -0.293 OA
ENDBRANCH  23  27
ENDBRANCH   1  20
TORSDOF 6
ENDMDL
MODEL 8
REMARK VINA RESULT:      -8.6      3.030     10.969
REMARK  6 active torsions:
REMARK  status: ('A' for Active; 'I' for Inactive)
REMARK    1  A    between atoms: C_3  and  C_4 
REMARK    2  A    between atoms: C_9  and  N_10 
REMARK       I    between atoms: N_10  and  C_11 
REMARK       I    between atoms: C_11  and  N_12 
REMARK    3  A    between atoms: N_12  and  C_13 
REMARK    4  A    between atoms: C_13  and  C_14 
REMARK    5  A    between atoms: C_14  and  C_15 
REMARK    6  A    between atoms: N_17  and  C_18 
ROOT
HETATM    1  N   UNL     1      42.345 -14.913   5.123  1.00  0.00    -0.309 N 
HETATM    2  C   UNL     1      43.049 -14.038   5.898  1.00  0.00     0.320 C 
HETATM    3  N   UNL     1      42.401 -12.905   6.283  1.00  0.00    -0.343 N 
HETATM    4  O   UNL     1      44.202 -14.179   6.297  1.00  0.00    -0.247 OA
HETATM    5  H   UNL     1      41.419 -14.634   4.854  1.00  0.00     0.170 HD
HETATM    6  H   UNL     1      42.990 -12.346   6.891  1.00  0.00     0.164 HD
ENDROOT
BRANCH   3   7
HETATM    7  C   UNL     1      41.051 -12.412   6.038  1.00  0.00     0.129 C 
BRANCH   7   8
HETATM    8  C   UNL     1      40.858 -10.981   6.553  1.00  0.00     0.061 C 
BRANCH   8   9
HETATM    9  C   UNL     1      40.704 -10.901   8.033  1.00  0.00    -0.020 A 
HETATM   10  C   UNL     1      41.649 -10.541   8.973  1.00  0.00     0.127 A 
HETATM   11  N   UNL     1      41.064 -10.636  10.218  1.00  0.00    -0.245 N 
HETATM   12  N   UNL     1      39.767 -11.032  10.111  1.00  0.00    -0.180 NA
HETATM   13  C   UNL     1      39.564 -11.194   8.805  1.00  0.00     0.148 A 
BRANCH  11  14
HETATM   14  C   UNL     1      41.656 -10.390  11.489  1.00  0.00     0.058 A 
HETATM   15  C   UNL     1      43.013 -10.058  11.607  1.00  0.00     0.031 A 
HETATM   16  C   UNL     1      43.570  -9.835  12.870  1.00  0.00     0.002 A 
HETATM   17  C   UNL     1      42.784  -9.940  14.015  1.00  0.00     0.000 A 
HETATM   18  C   UNL     1      41.435 -10.268  13.905  1.00  0.00     0.002 A 
HETATM   19  C   UNL     1      40.870 -10.491  12.647  1.00  0.00     0.031 A 
ENDBRANCH  11  14
ENDBRANCH   8   9
ENDBRANCH   7   8
ENDBRANCH   3   7
BRANCH   1  20
HETATM   20  C   UNL     1      42.762 -16.172   4.642  1.00  0.00     0.036 A 
HETATM   21  C   UNL     1      42.663 -17.358   5.365  1.00  0.00     0.030 A 
HETATM   22  C   UNL     1      43.098 -18.567   4.810  1.00  0.00     0.018 A 
HETATM   23  C   UNL     1      43.628 -18.612   3.513  1.00  0.00     0.015 A 
HETATM   24  C   UNL     1      43.725 -17.425   2.763  1.00  0.00    -0.046 A 
HETATM   25  C   UNL     1      44.278 -17.394   1.364  1.00  0.00     0.049 C 
HETATM   26  C   UNL     1      43.302 -16.215   3.349  1.00  0.00     0.037 A 
BRANCH  23  27
HETATM   27  C   UNL     1      44.093 -19.923   2.969  1.00  0.00     0.156 C 
HETATM   28  C   UNL     1      43.242 -20.608   1.930  1.00  0.00     0.097 C 
HETATM   29  O   UNL     1      45.130 -20.438   3.376  1.00  0.00    -0.293 OA
ENDBRANCH  23  27
ENDBRANCH   1  20
TORSDOF 6
ENDMDL
MODEL 9
REMARK VINA RESULT:      -8.4      3.453     10.544
REMARK  6 active torsions:
REMARK  status: ('A' for Active; 'I' for Inactive)
REMARK    1  A    between atoms: C_3  and  C_4 
REMARK    2  A    between atoms: C_9  and  N_10 
REMARK       I    between atoms: N_10  and  C_11 
REMARK       I    between atoms: C_11  and  N_12 
REMARK    3  A    between atoms: N_12  and  C_13 
REMARK    4  A    between atoms: C_13  and  C_14 
REMARK    5  A    between atoms: C_14  and  C_15 
REMARK    6  A    between atoms: N_17  and  C_18 
ROOT
HETATM    1  N   UNL     1      42.461 -14.799   3.156  1.00  0.00    -0.309 N 
HETATM    2  C   UNL     1      43.184 -13.681   3.456  1.00  0.00     0.320 C 
HETATM    3  N   UNL     1      42.486 -12.522   3.597  1.00  0.00    -0.343 N 
HETATM    4  O   UNL     1      44.399 -13.621   3.627  1.00  0.00    -0.247 OA
HETATM    5  H   UNL     1      41.475 -14.674   3.014  1.00  0.00     0.170 HD
HETATM    6  H   UNL     1      43.105 -11.764   3.863  1.00  0.00     0.164 HD
ENDROOT
BRANCH   3   7
HETATM    7  C   UNL     1      41.066 -12.210   3.499  1.00  0.00     0.129 C 
BRANCH   7   8
HETATM    8  C   UNL     1      40.370 -12.254   4.864  1.00  0.00     0.061 C 
BRANCH   8   9
HETATM    9  C   UNL     1      41.061 -11.443   5.906  1.00  0.00    -0.020 A 
HETATM   10  C   UNL     1      41.702 -11.884   7.046  1.00  0.00     0.127 A 
HETATM   11  N   UNL     1      42.170 -10.776   7.723  1.00  0.00    -0.245 N 
HETATM   12  N   UNL     1      41.863  -9.636   7.048  1.00  0.00    -0.180 NA
HETATM   13  C   UNL     1      41.196 -10.043   5.970  1.00  0.00     0.148 A 
BRANCH  11  14
HETATM   14  C   UNL     1      42.869 -10.733   8.962  1.00  0.00     0.058 A 
HETATM   15  C   UNL     1      44.049 -11.464   9.157  1.00  0.00     0.031 A 
HETATM   16  C   UNL     1      44.708 -11.412  10.389  1.00  0.00     0.002 A 
HETATM   17  C   UNL     1      44.199 -10.636  11.427  1.00  0.00     0.000 A 
HETATM   18  C   UNL     1      43.028  -9.904  11.240  1.00  0.00     0.002 A 
HETATM   19  C   UNL     1      42.365  -9.949  10.011  1.00  0.00     0.031 A 
ENDBRANCH  11  14
ENDBRANCH   8   9
ENDBRANCH   7   8
ENDBRANCH   3   7
BRANCH   1  20
HETATM   20  C   UNL     1      42.931 -16.121   3.014  1.00  0.00     0.036 A 
HETATM   21  C   UNL     1      43.410 -16.657   1.821  1.00  0.00     0.030 A 
HETATM   22  C   UNL     1      43.862 -17.981   1.768  1.00  0.00     0.018 A 
HETATM   23  C   UNL     1      43.855 -18.789   2.913  1.00  0.00     0.015 A 
HETATM   24  C   UNL     1      43.385 -18.261   4.131  1.00  0.00    -0.046 A 
HETATM   25  C   UNL     1      43.352 -19.064   5.403  1.00  0.00     0.049 C 
HETATM   26  C   UNL     1      42.914 -16.933   4.158  1.00  0.00     0.037 A 
BRANCH  23  27
HETATM   27  C   UNL     1      44.333 -20.200   2.805  1.00  0.00     0.156 C 
HETATM   28  C   UNL     1      43.647 -21.114   1.821  1.00  0.00     0.097 C 
HETATM   29  O   UNL     1      45.246 -20.609   3.516  1.00  0.00    -0.293 OA
ENDBRANCH  23  27
ENDBRANCH   1  20
TORSDOF 6
ENDMDL
MODEL 10
REMARK VINA RESULT:      -8.2      5.277      9.525
REMARK  6 active torsions:
REMARK  status: ('A' for Active; 'I' for Inactive)
REMARK    1  A    between atoms: C_3  and  C_4 
REMARK    2  A    between atoms: C_9  and  N_10 
REMARK       I    between atoms: N_10  and  C_11 
REMARK       I    between atoms: C_11  and  N_12 
REMARK    3  A    between atoms: N_12  and  C_13 
REMARK    4  A    between atoms: C_13  and  C_14 
REMARK    5  A    between atoms: C_14  and  C_15 
REMARK    6  A    between atoms: N_17  and  C_18 
ROOT
HETATM    1  N   UNL     1      41.826 -15.886   4.894  1.00  0.00    -0.309 N 
HETATM    2  C   UNL     1      40.852 -15.873   5.850  1.00  0.00     0.320 C 
HETATM    3  N   UNL     1      40.416 -14.651   6.261  1.00  0.00    -0.343 N 
HETATM    4  O   UNL     1      40.319 -16.853   6.362  1.00  0.00    -0.247 OA
HETATM    5  H   UNL     1      42.184 -14.995   4.602  1.00  0.00     0.170 HD
HETATM    6  H   UNL     1      39.664 -14.749   6.934  1.00  0.00     0.164 HD
ENDROOT
BRANCH   3   7
HETATM    7  C   UNL     1      40.781 -13.295   5.873  1.00  0.00     0.129 C 
BRANCH   7   8
HETATM    8  C   UNL     1      40.011 -12.822   4.635  1.00  0.00     0.061 C 
BRANCH   8   9
HETATM    9  C   UNL     1      40.758 -13.021   3.361  1.00  0.00    -0.020 A 
HETATM   10  C   UNL     1      40.270 -13.437   2.139  1.00  0.00     0.127 A 
HETATM   11  N   UNL     1      41.330 -13.500   1.259  1.00  0.00    -0.245 N 
HETATM   12  N   UNL     1      42.485 -13.124   1.872  1.00  0.00    -0.180 NA
HETATM   13  C   UNL     1      42.136 -12.847   3.126  1.00  0.00     0.148 A 
BRANCH  11  14
HETATM   14  C   UNL     1      41.318 -13.903  -0.106  1.00  0.00     0.058 A 
HETATM   15  C   UNL     1      41.059 -15.232  -0.469  1.00  0.00     0.031 A 
HETATM   16  C   UNL     1      41.067 -15.602  -1.817  1.00  0.00     0.002 A 
HETATM   17  C   UNL     1      41.330 -14.656  -2.805  1.00  0.00     0.000 A 
HETATM   18  C   UNL     1      41.585 -13.333  -2.452  1.00  0.00     0.002 A 
HETATM   19  C   UNL     1      41.578 -12.955  -1.107  1.00  0.00     0.031 A 
ENDBRANCH  11  14
ENDBRANCH   8   9
ENDBRANCH   7   8
ENDBRANCH   3   7
BRANCH   1  20
HETATM   20  C   UNL     1      42.406 -17.007   4.264  1.00  0.00     0.036 A 
HETATM   21  C   UNL     1      42.290 -17.287   2.905  1.00  0.00     0.030 A 
HETATM   22  C   UNL     1      42.900 -18.423   2.359  1.00  0.00     0.018 A 
HETATM   23  C   UNL     1      43.652 -19.290   3.163  1.00  0.00     0.015 A 
HETATM   24  C   UNL     1      43.790 -19.017   4.537  1.00  0.00    -0.046 A 
HETATM   25  C   UNL     1      44.584 -19.898   5.462  1.00  0.00     0.049 C 
HETATM   26  C   UNL     1      43.148 -17.881   5.070  1.00  0.00     0.037 A 
BRANCH  23  27
HETATM   27  C   UNL     1      44.273 -20.497   2.538  1.00  0.00     0.156 C 
HETATM   28  C   UNL     1      43.367 -21.513   1.889  1.00  0.00     0.097 C 
HETATM   29  O   UNL     1      45.488 -20.666   2.576  1.00  0.00    -0.293 OA
ENDBRANCH  23  27
ENDBRANCH   1  20
TORSDOF 6
ENDMDL
