MODEL 1
REMARK VINA RESULT:      -8.1      0.000      0.000
REMARK  6 active torsions:
REMARK  status: ('A' for Active; 'I' for Inactive)
REMARK    1  A    between atoms: C_4  and  C_5 
REMARK    2  A    between atoms: C_5  and  N_6 
REMARK       I    between atoms: N_6  and  C_7 
REMARK       I    between atoms: C_7  and  N_8 
REMARK    3  A    between atoms: N_8  and  C_9 
REMARK    4  A    between atoms: C_9  and  C_10 
REMARK    5  A    between atoms: C_12  and  O_13 
REMARK    6  A    between atoms: O_13  and  C_14 
ROOT
HETATM    1  N   UNL     1      43.862 -16.975   6.078  1.00  0.00    -0.333 N 
HETATM    2  C   UNL     1      43.544 -16.601   7.341  1.00  0.00     0.317 C 
HETATM    3  N   UNL     1      43.838 -15.322   7.685  1.00  0.00    -0.339 N 
HETATM    4  O   UNL     1      43.012 -17.344   8.160  1.00  0.00    -0.247 OA
HETATM    5  H   UNL     1      44.066 -16.263   5.393  1.00  0.00     0.165 HD
HETATM    6  H   UNL     1      43.602 -15.120   8.648  1.00  0.00     0.164 HD
ENDROOT
BRANCH   3   7
HETATM    7  C   UNL     1      44.674 -14.369   6.985  1.00  0.00     0.163 C 
BRANCH   7   8
HETATM    8  C   UNL     1      45.057 -13.148   7.782  1.00  0.00    -0.035 A 
HETATM    9  C   UNL     1      44.149 -12.447   8.581  1.00  0.00     0.066 A 
HETATM   10  C   UNL     1      44.581 -11.304   9.235  1.00  0.00     0.164 A 
HETATM   11  N   UNL     1      45.847 -10.838   9.192  1.00  0.00    -0.237 NA
HETATM   12  C   UNL     1      46.720 -11.548   8.451  1.00  0.00     0.120 A 
HETATM   13  C   UNL     1      46.378 -12.688   7.737  1.00  0.00     0.028 A 
BRANCH  10  14
HETATM   14  O   UNL     1      43.631 -10.608   9.957  1.00  0.00    -0.329 OA
BRANCH  14  15
HETATM   15  C   UNL     1      43.938 -10.391  11.350  1.00  0.00     0.130 C 
HETATM   16  C   UNL     1      43.152  -9.264  12.075  1.00  0.00     0.032 C 
HETATM   17  C   UNL     1      43.066 -10.192  13.298  1.00  0.00     0.005 C 
HETATM   18  C   UNL     1      43.242 -11.375  12.328  1.00  0.00     0.032 C 
ENDBRANCH  14  15
ENDBRANCH  10  14
ENDBRANCH   7   8
ENDBRANCH   3   7
BRANCH   1  19
HETATM   19  C   UNL     1      43.498 -18.272   5.539  1.00  0.00     0.139 C 
HETATM   20  C   UNL     1      44.632 -19.274   5.719  1.00  0.00     0.039 C 
BRANCH  19  21
HETATM   21  C   UNL     1      43.157 -18.094   4.093  1.00  0.00     0.075 A 
HETATM   22  O   UNL     1      41.969 -17.480   3.801  1.00  0.00    -0.318 OA
HETATM   23  C   UNL     1      41.847 -17.464   2.445  1.00  0.00     0.049 A 
HETATM   24  C   UNL     1      40.615 -16.860   1.901  1.00  0.00     0.076 C 
HETATM   25  C   UNL     1      42.953 -18.042   1.862  1.00  0.00     0.035 A 
HETATM   26  C   UNL     1      43.796 -18.452   2.923  1.00  0.00     0.037 A 
ENDBRANCH  19  21
ENDBRANCH   1  19
TORSDOF 6
ENDMDL
MODEL 2
REMARK VINA RESULT:      -8.1      1.756      2.340
REMARK  6 active torsions:
REMARK  status: ('A' for Active; 'I' for Inactive)
REMARK    1  A    between atoms: C_4  and  C_5 
REMARK    2  A    between atoms: C_5  and  N_6 
REMARK       I    between atoms: N_6  and  C_7 
REMARK       I    between atoms: C_7  and  N_8 
REMARK    3  A    between atoms: N_8  and  C_9 
REMARK    4  A    between atoms: C_9  and  C_10 
REMARK    5  A    between atoms: C_12  and  O_13 
REMARK    6  A    between atoms: O_13  and  C_14 
ROOT
HETATM    1  N   UNL     1      43.261 -16.068   5.460  1.00  0.00    -0.333 N 
HETATM    2  C   UNL     1      43.558 -14.823   5.015  1.00  0.00     0.317 C 
HETATM    3  N   UNL     1      44.285 -14.040   5.852  1.00  0.00    -0.339 N 
HETATM    4  O   UNL     1      43.214 -14.389   3.921  1.00  0.00    -0.247 OA
HETATM    5  H   UNL     1      43.772 -16.442   6.246  1.00  0.00     0.165 HD
HETATM    6  H   UNL     1      44.444 -13.116   5.470  1.00  0.00     0.164 HD
ENDROOT
BRANCH   3   7
HETATM    7  C   UNL     1      44.576 -14.245   7.256  1.00  0.00     0.163 C 
BRANCH   7   8
HETATM    8  C   UNL     1      45.053 -13.021   7.995  1.00  0.00    -0.035 A 
HETATM    9  C   UNL     1      44.231 -12.280   8.849  1.00  0.00     0.066 A 
HETATM   10  C   UNL     1      44.744 -11.139   9.444  1.00  0.00     0.164 A 
HETATM   11  N   UNL     1      46.014 -10.709   9.292  1.00  0.00    -0.237 NA
HETATM   12  C   UNL     1      46.806 -11.457   8.498  1.00  0.00     0.120 A 
HETATM   13  C   UNL     1      46.379 -12.600   7.837  1.00  0.00     0.028 A 
BRANCH  10  14
HETATM   14  O   UNL     1      43.873 -10.404  10.225  1.00  0.00    -0.329 OA
BRANCH  14  15
HETATM   15  C   UNL     1      43.946 -10.649  11.645  1.00  0.00     0.130 C 
HETATM   16  C   UNL     1      43.459  -9.509  12.581  1.00  0.00     0.032 C 
HETATM   17  C   UNL     1      42.816 -10.589  13.466  1.00  0.00     0.005 C 
HETATM   18  C   UNL     1      42.773 -11.489  12.218  1.00  0.00     0.032 C 
ENDBRANCH  14  15
ENDBRANCH  10  14
ENDBRANCH   7   8
ENDBRANCH   3   7
BRANCH   1  19
HETATM   19  C   UNL     1      42.595 -17.051   4.626  1.00  0.00     0.139 C 
HETATM   20  C   UNL     1      41.262 -17.466   5.235  1.00  0.00     0.039 C 
BRANCH  19  21
HETATM   21  C   UNL     1      43.509 -18.225   4.472  1.00  0.00     0.075 A 
HETATM   22  O   UNL     1      43.357 -18.995   3.350  1.00  0.00    -0.318 OA
HETATM   23  C   UNL     1      44.252 -20.016   3.438  1.00  0.00     0.049 A 
HETATM   24  C   UNL     1      44.247 -20.994   2.332  1.00  0.00     0.076 C 
HETATM   25  C   UNL     1      44.992 -19.901   4.594  1.00  0.00     0.035 A 
HETATM   26  C   UNL     1      44.512 -18.749   5.262  1.00  0.00     0.037 A 
ENDBRANCH  19  21
ENDBRANCH   1  19
TORSDOF 6
ENDMDL
MODEL 3
REMARK VINA RESULT:      -7.9      2.299      9.229
REMARK  6 active torsions:
REMARK  status: ('A' for Active; 'I' for Inactive)
REMARK    1  A    between atoms: C_4  and  C_5 
REMARK    2  A    between atoms: C_5  and  N_6 
REMARK       I    between atoms: N_6  and  C_7 
REMARK       I    between atoms: C_7  and  N_8 
REMARK    3  A    between atoms: N_8  and  C_9 
REMARK    4  A    between atoms: C_9  and  C_10 
REMARK    5  A    between atoms: C_12  and  O_13 
REMARK    6  A    between atoms: O_13  and  C_14 
ROOT
HETATM    1  N   UNL     1      44.349 -12.996   8.637  1.00  0.00    -0.333 N 
HETATM    2  C   UNL     1      45.162 -13.470   7.661  1.00  0.00     0.317 C 
HETATM    3  N   UNL     1      44.739 -14.584   7.012  1.00  0.00    -0.339 N 
HETATM    4  O   UNL     1      46.226 -12.949   7.346  1.00  0.00    -0.247 OA
HETATM    5  H   UNL     1      43.394 -13.318   8.678  1.00  0.00     0.165 HD
HETATM    6  H   UNL     1      45.406 -14.899   6.319  1.00  0.00     0.164 HD
ENDROOT
BRANCH   3   7
HETATM    7  C   UNL     1      43.670 -15.490   7.375  1.00  0.00     0.163 C 
BRANCH   7   8
HETATM    8  C   UNL     1      43.845 -16.910   6.900  1.00  0.00    -0.035 A 
HETATM    9  C   UNL     1      44.130 -17.236   5.570  1.00  0.00     0.066 A 
HETATM   10  C   UNL     1      44.221 -18.573   5.217  1.00  0.00     0.164 A 
HETATM   11  N   UNL     1      44.099 -19.598   6.086  1.00  0.00    -0.237 NA
HETATM   12  C   UNL     1      43.865 -19.265   7.372  1.00  0.00     0.120 A 
HETATM   13  C   UNL     1      43.730 -17.959   7.819  1.00  0.00     0.028 A 
BRANCH  10  14
HETATM   14  O   UNL     1      44.437 -18.846   3.880  1.00  0.00    -0.329 OA
BRANCH  14  15
HETATM   15  C   UNL     1      43.843 -20.065   3.386  1.00  0.00     0.130 C 
HETATM   16  C   UNL     1      43.155 -19.997   1.995  1.00  0.00     0.032 C 
HETATM   17  C   UNL     1      43.757 -21.380   1.696  1.00  0.00     0.005 C 
HETATM   18  C   UNL     1      44.844 -21.056   2.736  1.00  0.00     0.032 C 
ENDBRANCH  14  15
ENDBRANCH  10  14
ENDBRANCH   7   8
ENDBRANCH   3   7
BRANCH   1  19
HETATM   19  C   UNL     1      44.616 -11.750   9.330  1.00  0.00     0.139 C 
HETATM   20  C   UNL     1      45.237 -12.010  10.697  1.00  0.00     0.039 C 
BRANCH  19  21
HETATM   21  C   UNL     1      43.327 -11.002   9.455  1.00  0.00     0.075 A 
HETATM   22  O   UNL     1      42.883 -10.329   8.349  1.00  0.00    -0.318 OA
HETATM   23  C   UNL     1      41.731  -9.695   8.699  1.00  0.00     0.049 A 
HETATM   24  C   UNL     1      41.082  -8.880   7.652  1.00  0.00     0.076 C 
HETATM   25  C   UNL     1      41.417  -9.969  10.011  1.00  0.00     0.035 A 
HETATM   26  C   UNL     1      42.447 -10.808  10.501  1.00  0.00     0.037 A 
ENDBRANCH  19  21
ENDBRANCH   1  19
TORSDOF 6
ENDMDL
MODEL 4
REMARK VINA RESULT:      -7.8      4.413      7.934
REMARK  6 active torsions:
REMARK  status: ('A' for Active; 'I' for Inactive)
REMARK    1  A    between atoms: C_4  and  C_5 
REMARK    2  A    between atoms: C_5  and  N_6 
REMARK       I    between atoms: N_6  and  C_7 
REMARK       I    between atoms: C_7  and  N_8 
REMARK    3  A    between atoms: N_8  and  C_9 
REMARK    4  A    between atoms: C_9  and  C_10 
REMARK    5  A    between atoms: C_12  and  O_13 
REMARK    6  A    between atoms: O_13  and  C_14 
ROOT
HETATM    1  N   UNL     1      42.212 -15.029   5.096  1.00  0.00    -0.333 N 
HETATM    2  C   UNL     1      43.456 -14.536   5.313  1.00  0.00     0.317 C 
HETATM    3  N   UNL     1      44.194 -15.160   6.266  1.00  0.00    -0.339 N 
HETATM    4  O   UNL     1      43.930 -13.586   4.702  1.00  0.00    -0.247 OA
HETATM    5  H   UNL     1      41.979 -15.945   5.449  1.00  0.00     0.165 HD
HETATM    6  H   UNL     1      45.097 -14.723   6.397  1.00  0.00     0.164 HD
ENDROOT
BRANCH   3   7
HETATM    7  C   UNL     1      43.759 -16.115   7.264  1.00  0.00     0.163 C 
BRANCH   7   8
HETATM    8  C   UNL     1      43.923 -17.562   6.878  1.00  0.00    -0.035 A 
HETATM    9  C   UNL     1      44.377 -17.967   5.619  1.00  0.00     0.066 A 
HETATM   10  C   UNL     1      44.445 -19.322   5.338  1.00  0.00     0.164 A 
HETATM   11  N   UNL     1      44.143 -20.296   6.222  1.00  0.00    -0.237 NA
HETATM   12  C   UNL     1      43.746 -19.891   7.444  1.00  0.00     0.120 A 
HETATM   13  C   UNL     1      43.620 -18.559   7.813  1.00  0.00     0.028 A 
BRANCH  10  14
HETATM   14  O   UNL     1      44.834 -19.669   4.059  1.00  0.00    -0.329 OA
BRANCH  14  15
HETATM   15  C   UNL     1      43.932 -20.541   3.345  1.00  0.00     0.130 C 
HETATM   16  C   UNL     1      43.713 -20.242   1.837  1.00  0.00     0.032 C 
HETATM   17  C   UNL     1      43.737 -21.760   1.592  1.00  0.00     0.005 C 
HETATM   18  C   UNL     1      44.558 -21.886   2.889  1.00  0.00     0.032 C 
ENDBRANCH  14  15
ENDBRANCH  10  14
ENDBRANCH   7   8
ENDBRANCH   3   7
BRANCH   1  19
HETATM   19  C   UNL     1      41.360 -14.538   4.029  1.00  0.00     0.139 C 
HETATM   20  C   UNL     1      39.955 -14.250   4.544  1.00  0.00     0.039 C 
BRANCH  19  21
HETATM   21  C   UNL     1      41.338 -15.565   2.942  1.00  0.00     0.075 A 
HETATM   22  O   UNL     1      41.340 -15.112   1.650  1.00  0.00    -0.318 OA
HETATM   23  C   UNL     1      41.276 -16.203   0.840  1.00  0.00     0.049 A 
HETATM   24  C   UNL     1      41.244 -15.944  -0.614  1.00  0.00     0.076 C 
HETATM   25  C   UNL     1      41.254 -17.355   1.594  1.00  0.00     0.035 A 
HETATM   26  C   UNL     1      41.290 -16.945   2.949  1.00  0.00     0.037 A 
ENDBRANCH  19  21
ENDBRANCH   1  19
TORSDOF 6
ENDMDL
MODEL 5
REMARK VINA RESULT:      -7.8      4.164      8.092
REMARK  6 active torsions:
REMARK  status: ('A' for Active; 'I' for Inactive)
REMARK    1  A    between atoms: C_4  and  C_5 
REMARK    2  A    between atoms: C_5  and  N_6 
REMARK       I    between atoms: N_6  and  C_7 
REMARK       I    between atoms: C_7  and  N_8 
REMARK    3  A    between atoms: N_8  and  C_9 
REMARK    4  A    between atoms: C_9  and  C_10 
REMARK    5  A    between atoms: C_12  and  O_13 
REMARK    6  A    between atoms: O_13  and  C_14 
ROOT
HETATM    1  N   UNL     1      42.021 -15.614   6.328  1.00  0.00    -0.333 N 
HETATM    2  C   UNL     1      40.770 -16.133   6.363  1.00  0.00     0.317 C 
HETATM    3  N   UNL     1      39.868 -15.593   5.504  1.00  0.00    -0.339 N 
HETATM    4  O   UNL     1      40.429 -17.044   7.109  1.00  0.00    -0.247 OA
HETATM    5  H   UNL     1      42.296 -15.049   5.538  1.00  0.00     0.165 HD
HETATM    6  H   UNL     1      38.950 -16.005   5.604  1.00  0.00     0.164 HD
ENDROOT
BRANCH   3   7
HETATM    7  C   UNL     1      39.975 -14.372   4.732  1.00  0.00     0.163 C 
BRANCH   7   8
HETATM    8  C   UNL     1      40.071 -14.565   3.241  1.00  0.00    -0.035 A 
HETATM    9  C   UNL     1      40.795 -15.607   2.654  1.00  0.00     0.066 A 
HETATM   10  C   UNL     1      40.869 -15.673   1.272  1.00  0.00     0.164 A 
HETATM   11  N   UNL     1      40.244 -14.816   0.437  1.00  0.00    -0.237 NA
HETATM   12  C   UNL     1      39.516 -13.842   1.018  1.00  0.00     0.120 A 
HETATM   13  C   UNL     1      39.403 -13.676   2.391  1.00  0.00     0.028 A 
BRANCH  10  14
HETATM   14  O   UNL     1      41.652 -16.679   0.741  1.00  0.00    -0.329 OA
BRANCH  14  15
HETATM   15  C   UNL     1      42.566 -17.312   1.661  1.00  0.00     0.130 C 
HETATM   16  C   UNL     1      42.518 -18.862   1.745  1.00  0.00     0.032 C 
HETATM   17  C   UNL     1      44.053 -18.847   1.834  1.00  0.00     0.005 C 
HETATM   18  C   UNL     1      44.012 -17.482   1.123  1.00  0.00     0.032 C 
ENDBRANCH  14  15
ENDBRANCH  10  14
ENDBRANCH   7   8
ENDBRANCH   3   7
BRANCH   1  19
HETATM   19  C   UNL     1      43.114 -16.172   7.103  1.00  0.00     0.139 C 
HETATM   20  C   UNL     1      44.306 -15.224   7.124  1.00  0.00     0.039 C 
BRANCH  19  21
HETATM   21  C   UNL     1      43.482 -17.492   6.502  1.00  0.00     0.075 A 
HETATM   22  O   UNL     1      43.300 -18.606   7.277  1.00  0.00    -0.318 OA
HETATM   23  C   UNL     1      43.735 -19.674   6.555  1.00  0.00     0.049 A 
HETATM   24  C   UNL     1      43.651 -20.993   7.213  1.00  0.00     0.076 C 
HETATM   25  C   UNL     1      44.176 -19.263   5.317  1.00  0.00     0.035 A 
HETATM   26  C   UNL     1      44.017 -17.857   5.283  1.00  0.00     0.037 A 
ENDBRANCH  19  21
ENDBRANCH   1  19
TORSDOF 6
ENDMDL
MODEL 6
REMARK VINA RESULT:      -7.5      5.319      8.376
REMARK  6 active torsions:
REMARK  status: ('A' for Active; 'I' for Inactive)
REMARK    1  A    between atoms: C_4  and  C_5 
REMARK    2  A    between atoms: C_5  and  N_6 
REMARK       I    between atoms: N_6  and  C_7 
REMARK       I    between atoms: C_7  and  N_8 
REMARK    3  A    between atoms: N_8  and  C_9 
REMARK    4  A    between atoms: C_9  and  C_10 
REMARK    5  A    between atoms: C_12  and  O_13 
REMARK    6  A    between atoms: O_13  and  C_14 
ROOT
HETATM    1  N   UNL     1      41.637 -16.010  -0.451  1.00  0.00    -0.333 N 
HETATM    2  C   UNL     1      41.217 -16.253   0.815  1.00  0.00     0.317 C 
HETATM    3  N   UNL     1      42.045 -16.995   1.593  1.00  0.00    -0.339 N 
HETATM    4  O   UNL     1      40.158 -15.839   1.274  1.00  0.00    -0.247 OA
HETATM    5  H   UNL     1      42.606 -16.165  -0.684  1.00  0.00     0.165 HD
HETATM    6  H   UNL     1      41.657 -17.162   2.513  1.00  0.00     0.164 HD
ENDROOT
BRANCH   3   7
HETATM    7  C   UNL     1      43.194 -17.781   1.196  1.00  0.00     0.163 C 
BRANCH   7   8
HETATM    8  C   UNL     1      43.702 -18.743   2.239  1.00  0.00    -0.035 A 
HETATM    9  C   UNL     1      44.016 -18.352   3.544  1.00  0.00     0.066 A 
HETATM   10  C   UNL     1      44.528 -19.298   4.419  1.00  0.00     0.164 A 
HETATM   11  N   UNL     1      44.704 -20.600   4.110  1.00  0.00    -0.237 NA
HETATM   12  C   UNL     1      44.358 -20.969   2.861  1.00  0.00     0.120 A 
HETATM   13  C   UNL     1      43.864 -20.093   1.905  1.00  0.00     0.028 A 
BRANCH  10  14
HETATM   14  O   UNL     1      44.886 -18.849   5.675  1.00  0.00    -0.329 OA
BRANCH  14  15
HETATM   15  C   UNL     1      43.848 -18.178   6.420  1.00  0.00     0.130 C 
HETATM   16  C   UNL     1      43.722 -18.535   7.926  1.00  0.00     0.032 C 
HETATM   17  C   UNL     1      43.458 -17.044   8.197  1.00  0.00     0.005 C 
HETATM   18  C   UNL     1      44.211 -16.743   6.888  1.00  0.00     0.032 C 
ENDBRANCH  14  15
ENDBRANCH  10  14
ENDBRANCH   7   8
ENDBRANCH   3   7
BRANCH   1  19
HETATM   19  C   UNL     1      40.912 -15.134  -1.353  1.00  0.00     0.139 C 
HETATM   20  C   UNL     1      40.979 -15.652  -2.784  1.00  0.00     0.039 C 
BRANCH  19  21
HETATM   21  C   UNL     1      41.502 -13.764  -1.244  1.00  0.00     0.075 A 
HETATM   22  O   UNL     1      41.743 -13.091  -2.411  1.00  0.00    -0.318 OA
HETATM   23  C   UNL     1      42.312 -11.900  -2.079  1.00  0.00     0.049 A 
HETATM   24  C   UNL     1      42.681 -11.011  -3.199  1.00  0.00     0.076 C 
HETATM   25  C   UNL     1      42.420 -11.790  -0.711  1.00  0.00     0.035 A 
HETATM   26  C   UNL     1      41.901 -12.992  -0.172  1.00  0.00     0.037 A 
ENDBRANCH  19  21
ENDBRANCH   1  19
TORSDOF 6
ENDMDL
MODEL 7
REMARK VINA RESULT:      -7.5      2.883      9.467
REMARK  6 active torsions:
REMARK  status: ('A' for Active; 'I' for Inactive)
REMARK    1  A    between atoms: C_4  and  C_5 
REMARK    2  A    between atoms: C_5  and  N_6 
REMARK       I    between atoms: N_6  and  C_7 
REMARK       I    between atoms: C_7  and  N_8 
REMARK    3  A    between atoms: N_8  and  C_9 
REMARK    4  A    between atoms: C_9  and  C_10 
REMARK    5  A    between atoms: C_12  and  O_13 
REMARK    6  A    between atoms: O_13  and  C_14 
ROOT
HETATM    1  N   UNL     1      41.353 -11.315   7.490  1.00  0.00    -0.333 N 
HETATM    2  C   UNL     1      40.267 -11.895   6.925  1.00  0.00     0.317 C 
HETATM    3  N   UNL     1      40.493 -13.012   6.188  1.00  0.00    -0.339 N 
HETATM    4  O   UNL     1      39.123 -11.471   7.051  1.00  0.00    -0.247 OA
HETATM    5  H   UNL     1      42.213 -11.840   7.552  1.00  0.00     0.165 HD
HETATM    6  H   UNL     1      39.645 -13.374   5.772  1.00  0.00     0.164 HD
ENDROOT
BRANCH   3   7
HETATM    7  C   UNL     1      41.755 -13.535   5.705  1.00  0.00     0.163 C 
BRANCH   7   8
HETATM    8  C   UNL     1      41.795 -15.029   5.512  1.00  0.00    -0.035 A 
HETATM    9  C   UNL     1      42.759 -15.668   4.726  1.00  0.00     0.066 A 
HETATM   10  C   UNL     1      42.684 -17.042   4.565  1.00  0.00     0.164 A 
HETATM   11  N   UNL     1      41.758 -17.826   5.157  1.00  0.00    -0.237 NA
HETATM   12  C   UNL     1      40.861 -17.200   5.944  1.00  0.00     0.120 A 
HETATM   13  C   UNL     1      40.836 -15.827   6.147  1.00  0.00     0.028 A 
BRANCH  10  14
HETATM   14  O   UNL     1      43.617 -17.618   3.726  1.00  0.00    -0.329 OA
BRANCH  14  15
HETATM   15  C   UNL     1      43.356 -18.985   3.342  1.00  0.00     0.130 C 
HETATM   16  C   UNL     1      43.612 -19.359   1.857  1.00  0.00     0.032 C 
HETATM   17  C   UNL     1      44.198 -20.690   2.354  1.00  0.00     0.005 C 
HETATM   18  C   UNL     1      44.492 -19.984   3.689  1.00  0.00     0.032 C 
ENDBRANCH  14  15
ENDBRANCH  10  14
ENDBRANCH   7   8
ENDBRANCH   3   7
BRANCH   1  19
HETATM   19  C   UNL     1      41.246 -10.189   8.398  1.00  0.00     0.139 C 
HETATM   20  C   UNL     1      41.389  -8.870   7.648  1.00  0.00     0.039 C 
BRANCH  19  21
HETATM   21  C   UNL     1      42.305 -10.334   9.445  1.00  0.00     0.075 A 
HETATM   22  O   UNL     1      43.583 -10.570   9.016  1.00  0.00    -0.318 OA
HETATM   23  C   UNL     1      44.361 -10.708  10.124  1.00  0.00     0.049 A 
HETATM   24  C   UNL     1      45.791 -10.994   9.894  1.00  0.00     0.076 C 
HETATM   25  C   UNL     1      43.603 -10.542  11.261  1.00  0.00     0.035 A 
HETATM   26  C   UNL     1      42.277 -10.304  10.825  1.00  0.00     0.037 A 
ENDBRANCH  19  21
ENDBRANCH   1  19
TORSDOF 6
ENDMDL
MODEL 8
REMARK VINA RESULT:      -7.4      4.098      6.773
REMARK  6 active torsions:
REMARK  status: ('A' for Active; 'I' for Inactive)
REMARK    1  A    between atoms: C_4  and  C_5 
REMARK    2  A    between atoms: C_5  and  N_6 
REMARK       I    between atoms: N_6  and  C_7 
REMARK       I    between atoms: C_7  and  N_8 
REMARK    3  A    between atoms: N_8  and  C_9 
REMARK    4  A    between atoms: C_9  and  C_10 
REMARK    5  A    between atoms: C_12  and  O_13 
REMARK    6  A    between atoms: O_13  and  C_14 
ROOT
HETATM    1  N   UNL     1      43.830 -16.678   5.778  1.00  0.00    -0.333 N 
HETATM    2  C   UNL     1      43.301 -16.100   6.884  1.00  0.00     0.317 C 
HETATM    3  N   UNL     1      42.941 -14.797   6.770  1.00  0.00    -0.339 N 
HETATM    4  O   UNL     1      43.133 -16.687   7.947  1.00  0.00    -0.247 OA
HETATM    5  H   UNL     1      43.716 -16.223   4.885  1.00  0.00     0.165 HD
HETATM    6  H   UNL     1      42.582 -14.422   7.639  1.00  0.00     0.164 HD
ENDROOT
BRANCH   3   7
HETATM    7  C   UNL     1      43.271 -13.857   5.719  1.00  0.00     0.163 C 
BRANCH   7   8
HETATM    8  C   UNL     1      42.140 -13.526   4.779  1.00  0.00    -0.035 A 
HETATM    9  C   UNL     1      41.329 -14.503   4.193  1.00  0.00     0.066 A 
HETATM   10  C   UNL     1      40.347 -14.105   3.299  1.00  0.00     0.164 A 
HETATM   11  N   UNL     1      40.084 -12.820   2.983  1.00  0.00    -0.237 NA
HETATM   12  C   UNL     1      40.848 -11.888   3.588  1.00  0.00     0.120 A 
HETATM   13  C   UNL     1      41.872 -12.186   4.475  1.00  0.00     0.028 A 
BRANCH  10  14
HETATM   14  O   UNL     1      39.617 -15.111   2.695  1.00  0.00    -0.329 OA
BRANCH  14  15
HETATM   15  C   UNL     1      40.083 -15.528   1.394  1.00  0.00     0.130 C 
HETATM   16  C   UNL     1      41.503 -15.061   0.974  1.00  0.00     0.032 C 
HETATM   17  C   UNL     1      41.716 -16.457   0.363  1.00  0.00     0.005 C 
HETATM   18  C   UNL     1      40.646 -16.973   1.341  1.00  0.00     0.032 C 
ENDBRANCH  14  15
ENDBRANCH  10  14
ENDBRANCH   7   8
ENDBRANCH   3   7
BRANCH   1  19
HETATM   19  C   UNL     1      44.149 -18.092   5.720  1.00  0.00     0.139 C 
HETATM   20  C   UNL     1      45.539 -18.360   6.283  1.00  0.00     0.039 C 
BRANCH  19  21
HETATM   21  C   UNL     1      44.047 -18.533   4.294  1.00  0.00     0.075 A 
HETATM   22  O   UNL     1      44.216 -19.866   4.036  1.00  0.00    -0.318 OA
HETATM   23  C   UNL     1      44.126 -20.031   2.688  1.00  0.00     0.049 A 
HETATM   24  C   UNL     1      44.302 -21.405   2.178  1.00  0.00     0.076 C 
HETATM   25  C   UNL     1      43.881 -18.821   2.077  1.00  0.00     0.035 A 
HETATM   26  C   UNL     1      43.833 -17.855   3.110  1.00  0.00     0.037 A 
ENDBRANCH  19  21
ENDBRANCH   1  19
TORSDOF 6
ENDMDL
MODEL 9
REMARK VINA RESULT:      -7.4      4.887      8.235
REMARK  6 active torsions:
REMARK  status: ('A' for Active; 'I' for Inactive)
REMARK    1  A    between atoms: C_4  and  C_5 
REMARK    2  A    between atoms: C_5  and  N_6 
REMARK       I    between atoms: N_6  and  C_7 
REMARK       I    between atoms: C_7  and  N_8 
REMARK    3  A    between atoms: N_8  and  C_9 
REMARK    4  A    between atoms: C_9  and  C_10 
REMARK    5  A    between atoms: C_12  and  O_13 
REMARK    6  A    between atoms: O_13  and  C_14 
ROOT
HETATM    1  N   UNL     1      43.227 -16.936   5.078  1.00  0.00    -0.333 N 
HETATM    2  C   UNL     1      42.599 -16.274   6.079  1.00  0.00     0.317 C 
HETATM    3  N   UNL     1      42.117 -15.041   5.780  1.00  0.00    -0.339 N 
HETATM    4  O   UNL     1      42.447 -16.728   7.208  1.00  0.00    -0.247 OA
HETATM    5  H   UNL     1      43.104 -16.619   4.128  1.00  0.00     0.165 HD
HETATM    6  H   UNL     1      41.688 -14.593   6.579  1.00  0.00     0.164 HD
ENDROOT
BRANCH   3   7
HETATM    7  C   UNL     1      42.395 -14.221   4.619  1.00  0.00     0.163 C 
BRANCH   7   8
HETATM    8  C   UNL     1      41.548 -14.518   3.408  1.00  0.00    -0.035 A 
HETATM    9  C   UNL     1      42.088 -14.744   2.139  1.00  0.00     0.066 A 
HETATM   10  C   UNL     1      41.227 -14.957   1.075  1.00  0.00     0.164 A 
HETATM   11  N   UNL     1      39.882 -15.009   1.186  1.00  0.00    -0.237 NA
HETATM   12  C   UNL     1      39.379 -14.830   2.424  1.00  0.00     0.120 A 
HETATM   13  C   UNL     1      40.156 -14.583   3.546  1.00  0.00     0.028 A 
BRANCH  10  14
HETATM   14  O   UNL     1      41.806 -15.107  -0.170  1.00  0.00    -0.329 OA
BRANCH  14  15
HETATM   15  C   UNL     1      41.052 -14.575  -1.280  1.00  0.00     0.130 C 
HETATM   16  C   UNL     1      41.783 -13.564  -2.205  1.00  0.00     0.032 C 
HETATM   17  C   UNL     1      41.097 -14.250  -3.398  1.00  0.00     0.005 C 
HETATM   18  C   UNL     1      40.977 -15.507  -2.518  1.00  0.00     0.032 C 
ENDBRANCH  14  15
ENDBRANCH  10  14
ENDBRANCH   7   8
ENDBRANCH   3   7
BRANCH   1  19
HETATM   19  C   UNL     1      43.685 -18.305   5.222  1.00  0.00     0.139 C 
HETATM   20  C   UNL     1      45.103 -18.348   5.779  1.00  0.00     0.039 C 
BRANCH  19  21
HETATM   21  C   UNL     1      43.610 -18.964   3.880  1.00  0.00     0.075 A 
HETATM   22  O   UNL     1      44.174 -20.205   3.759  1.00  0.00    -0.318 OA
HETATM   23  C   UNL     1      44.028 -20.589   2.461  1.00  0.00     0.049 A 
HETATM   24  C   UNL     1      44.590 -21.904   2.095  1.00  0.00     0.076 C 
HETATM   25  C   UNL     1      43.358 -19.617   1.751  1.00  0.00     0.035 A 
HETATM   26  C   UNL     1      43.092 -18.568   2.664  1.00  0.00     0.037 A 
ENDBRANCH  19  21
ENDBRANCH   1  19
TORSDOF 6
ENDMDL
MODEL 10
REMARK VINA RESULT:      -7.1      5.953      8.626
REMARK  6 active torsions:
REMARK  status: ('A' for Active; 'I' for Inactive)
REMARK    1  A    between atoms: C_4  and  C_5 
REMARK    2  A    between atoms: C_5  and  N_6 
REMARK       I    between atoms: N_6  and  C_7 
REMARK       I    between atoms: C_7  and  N_8 
REMARK    3  A    between atoms: N_8  and  C_9 
REMARK    4  A    between atoms: C_9  and  C_10 
REMARK    5  A    between atoms: C_12  and  O_13 
REMARK    6  A    between atoms: O_13  and  C_14 
ROOT
HETATM    1  N   UNL     1      42.896 -18.443   4.945  1.00  0.00    -0.333 N 
HETATM    2  C   UNL     1      41.937 -17.605   5.408  1.00  0.00     0.317 C 
HETATM    3  N   UNL     1      41.052 -17.136   4.492  1.00  0.00    -0.339 N 
HETATM    4  O   UNL     1      41.835 -17.267   6.582  1.00  0.00    -0.247 OA
HETATM    5  H   UNL     1      42.780 -18.868   4.037  1.00  0.00     0.165 HD
HETATM    6  H   UNL     1      40.384 -16.494   4.899  1.00  0.00     0.164 HD
ENDROOT
BRANCH   3   7
HETATM    7  C   UNL     1      41.130 -17.197   3.047  1.00  0.00     0.163 C 
BRANCH   7   8
HETATM    8  C   UNL     1      41.146 -15.860   2.352  1.00  0.00    -0.035 A 
HETATM    9  C   UNL     1      40.207 -15.496   1.381  1.00  0.00     0.066 A 
HETATM   10  C   UNL     1      40.335 -14.265   0.758  1.00  0.00     0.164 A 
HETATM   11  N   UNL     1      41.289 -13.359   1.057  1.00  0.00    -0.237 NA
HETATM   12  C   UNL     1      42.162 -13.707   2.023  1.00  0.00     0.120 A 
HETATM   13  C   UNL     1      42.134 -14.926   2.686  1.00  0.00     0.028 A 
BRANCH  10  14
HETATM   14  O   UNL     1      39.424 -13.980  -0.240  1.00  0.00    -0.329 OA
BRANCH  14  15
HETATM   15  C   UNL     1      39.950 -13.974  -1.584  1.00  0.00     0.130 C 
HETATM   16  C   UNL     1      40.756 -15.224  -2.029  1.00  0.00     0.032 C 
HETATM   17  C   UNL     1      40.063 -15.111  -3.398  1.00  0.00     0.005 C 
HETATM   18  C   UNL     1      38.924 -14.363  -2.682  1.00  0.00     0.032 C 
ENDBRANCH  14  15
ENDBRANCH  10  14
ENDBRANCH   7   8
ENDBRANCH   3   7
BRANCH   1  19
HETATM   19  C   UNL     1      43.833 -19.112   5.828  1.00  0.00     0.139 C 
HETATM   20  C   UNL     1      45.053 -18.237   6.090  1.00  0.00     0.039 C 
BRANCH  19  21
HETATM   21  C   UNL     1      44.224 -20.410   5.194  1.00  0.00     0.075 A 
HETATM   22  O   UNL     1      44.229 -20.463   3.827  1.00  0.00    -0.318 OA
HETATM   23  C   UNL     1      44.569 -21.733   3.474  1.00  0.00     0.049 A 
HETATM   24  C   UNL     1      44.615 -22.026   2.028  1.00  0.00     0.076 C 
HETATM   25  C   UNL     1      44.802 -22.492   4.599  1.00  0.00     0.035 A 
HETATM   26  C   UNL     1      44.577 -21.641   5.708  1.00  0.00     0.037 A 
ENDBRANCH  19  21
ENDBRANCH   1  19
TORSDOF 6
ENDMDL
