MODEL 1
REMARK VINA RESULT:      -9.2      0.000      0.000
REMARK  5 active torsions:
REMARK  status: ('A' for Active; 'I' for Inactive)
REMARK    1  A    between atoms: C_7  and  C_8 
REMARK    2  A    between atoms: N_9  and  N_10 
REMARK       I    between atoms: N_10  and  C_11 
REMARK    3  A    between atoms: C_11  and  C_12 
REMARK    4  A    between atoms: C_12  and  O_13 
REMARK    5  A    between atoms: O_13  and  C_14 
ROOT
HETATM    1  N   UNL     1      42.945 -15.168   2.491  1.00  0.00    -0.246 N 
HETATM    2  C   UNL     1      43.236 -13.903   2.989  1.00  0.00     0.261 C 
HETATM    3  O   UNL     1      44.207 -13.610   3.688  1.00  0.00    -0.269 OA
HETATM    4  H   UNL     1      41.988 -15.321   2.176  1.00  0.00     0.192 HD
ENDROOT
BRANCH   1   5
HETATM    5  N   UNL     1      43.630 -16.322   2.805  1.00  0.00    -0.184 NA
HETATM    6  C   UNL     1      43.168 -17.052   3.772  1.00  0.00     0.153 C 
BRANCH   6   7
HETATM    7  C   UNL     1      43.797 -18.313   4.126  1.00  0.00     0.018 A 
HETATM    8  C   UNL     1      44.472 -18.517   5.326  1.00  0.00     0.018 A 
HETATM    9  C   UNL     1      44.703 -17.606   6.478  1.00  0.00     0.069 C 
HETATM   10  N   UNL     1      44.940 -19.806   5.330  1.00  0.00    -0.358 N 
HETATM   11  H   UNL     1      45.466 -20.233   6.080  1.00  0.00     0.166 HD
HETATM   12  C   UNL     1      44.589 -20.452   4.170  1.00  0.00     0.043 A 
HETATM   13  C   UNL     1      43.866 -19.545   3.394  1.00  0.00     0.004 A 
HETATM   14  C   UNL     1      44.859 -21.764   3.760  1.00  0.00     0.030 A 
HETATM   15  C   UNL     1      43.388 -19.983   2.140  1.00  0.00     0.014 A 
HETATM   16  C   UNL     1      43.647 -21.292   1.714  1.00  0.00     0.001 A 
HETATM   17  C   UNL     1      44.374 -22.167   2.515  1.00  0.00     0.002 A 
ENDBRANCH   6   7
ENDBRANCH   1   5
BRANCH   2  18
HETATM   18  C   UNL     1      42.256 -12.825   2.533  1.00  0.00     0.280 C 
BRANCH  18  19
HETATM   19  O   UNL     1      41.279 -13.319   1.610  1.00  0.00    -0.341 OA
BRANCH  19  20
HETATM   20  C   UNL     1      41.484 -12.729   0.381  1.00  0.00     0.080 A 
HETATM   21  C   UNL     1      41.389 -13.469  -0.819  1.00  0.00     0.009 A 
HETATM   22  C   UNL     1      41.704 -12.827  -2.047  1.00  0.00    -0.006 A 
HETATM   23  C   UNL     1      40.994 -14.826  -0.836  1.00  0.00     0.015 A 
HETATM   24  C   UNL     1      41.646 -13.601  -3.232  1.00  0.00     0.014 A 
HETATM   25  C   UNL     1      42.057 -11.451  -2.013  1.00  0.00     0.022 A 
HETATM   26  C   UNL     1      41.275 -14.948  -3.218  1.00  0.00     0.001 A 
HETATM   27  C   UNL     1      40.940 -15.558  -2.020  1.00  0.00     0.001 A 
HETATM   28 BR   UNL     1      42.511 -10.472  -3.586  1.00  0.00    -0.050 Br
HETATM   29  C   UNL     1      42.088 -10.732  -0.813  1.00  0.00     0.023 A 
HETATM   30  C   UNL     1      41.796 -11.370   0.385  1.00  0.00     0.039 A 
ENDBRANCH  19  20
ENDBRANCH  18  19
ENDBRANCH   2  18
TORSDOF 5
ENDMDL
MODEL 2
REMARK VINA RESULT:      -9.1      6.163      8.766
REMARK  5 active torsions:
REMARK  status: ('A' for Active; 'I' for Inactive)
REMARK    1  A    between atoms: C_7  and  C_8 
REMARK    2  A    between atoms: N_9  and  N_10 
REMARK       I    between atoms: N_10  and  C_11 
REMARK    3  A    between atoms: C_11  and  C_12 
REMARK    4  A    between atoms: C_12  and  O_13 
REMARK    5  A    between atoms: O_13  and  C_14 
ROOT
HETATM    1  N   UNL     1      43.814 -14.365   7.203  1.00  0.00    -0.246 N 
HETATM    2  C   UNL     1      44.854 -13.546   7.630  1.00  0.00     0.261 C 
HETATM    3  O   UNL     1      45.900 -13.331   7.017  1.00  0.00    -0.269 OA
HETATM    4  H   UNL     1      43.154 -14.668   7.918  1.00  0.00     0.192 HD
ENDROOT
BRANCH   1   5
HETATM    5  N   UNL     1      43.846 -15.167   6.082  1.00  0.00    -0.184 NA
HETATM    6  C   UNL     1      42.979 -16.129   6.006  1.00  0.00     0.153 C 
BRANCH   6   7
HETATM    7  C   UNL     1      42.906 -16.981   4.831  1.00  0.00     0.018 A 
HETATM    8  C   UNL     1      42.057 -16.726   3.758  1.00  0.00     0.018 A 
HETATM    9  C   UNL     1      41.098 -15.615   3.520  1.00  0.00     0.069 C 
HETATM   10  N   UNL     1      42.239 -17.722   2.833  1.00  0.00    -0.358 N 
HETATM   11  H   UNL     1      41.756 -17.792   1.949  1.00  0.00     0.166 HD
HETATM   12  C   UNL     1      43.183 -18.620   3.268  1.00  0.00     0.043 A 
HETATM   13  C   UNL     1      43.626 -18.181   4.517  1.00  0.00     0.004 A 
HETATM   14  C   UNL     1      43.671 -19.777   2.648  1.00  0.00     0.030 A 
HETATM   15  C   UNL     1      44.612 -18.947   5.174  1.00  0.00     0.014 A 
HETATM   16  C   UNL     1      45.113 -20.107   4.569  1.00  0.00     0.001 A 
HETATM   17  C   UNL     1      44.645 -20.514   3.322  1.00  0.00     0.002 A 
ENDBRANCH   6   7
ENDBRANCH   1   5
BRANCH   2  18
HETATM   18  C   UNL     1      44.570 -12.836   8.951  1.00  0.00     0.280 C 
BRANCH  18  19
HETATM   19  O   UNL     1      44.568 -11.410   8.826  1.00  0.00    -0.341 OA
BRANCH  19  20
HETATM   20  C   UNL     1      43.315 -10.933   9.145  1.00  0.00     0.080 A 
HETATM   21  C   UNL     1      43.013 -10.457  10.441  1.00  0.00     0.009 A 
HETATM   22  C   UNL     1      41.679 -10.066  10.733  1.00  0.00    -0.006 A 
HETATM   23  C   UNL     1      43.994 -10.360  11.453  1.00  0.00     0.015 A 
HETATM   24  C   UNL     1      41.389  -9.637  12.053  1.00  0.00     0.014 A 
HETATM   25  C   UNL     1      40.717 -10.130   9.690  1.00  0.00     0.022 A 
HETATM   26  C   UNL     1      42.374  -9.573  13.042  1.00  0.00     0.001 A 
HETATM   27  C   UNL     1      43.679  -9.926  12.739  1.00  0.00     0.001 A 
HETATM   28 BR   UNL     1      38.890  -9.644   9.950  1.00  0.00    -0.050 Br
HETATM   29  C   UNL     1      41.061 -10.553   8.402  1.00  0.00     0.023 A 
HETATM   30  C   UNL     1      42.362 -10.950   8.127  1.00  0.00     0.039 A 
ENDBRANCH  19  20
ENDBRANCH  18  19
ENDBRANCH   2  18
TORSDOF 5
ENDMDL
MODEL 3
REMARK VINA RESULT:      -9.0      6.954     10.481
REMARK  5 active torsions:
REMARK  status: ('A' for Active; 'I' for Inactive)
REMARK    1  A    between atoms: C_7  and  C_8 
REMARK    2  A    between atoms: N_9  and  N_10 
REMARK       I    between atoms: N_10  and  C_11 
REMARK    3  A    between atoms: C_11  and  C_12 
REMARK    4  A    between atoms: C_12  and  O_13 
REMARK    5  A    between atoms: O_13  and  C_14 
ROOT
HETATM    1  N   UNL     1      43.689 -12.157   8.065  1.00  0.00    -0.246 N 
HETATM    2  C   UNL     1      44.798 -12.993   8.134  1.00  0.00     0.261 C 
HETATM    3  O   UNL     1      45.690 -12.938   8.980  1.00  0.00    -0.269 OA
HETATM    4  H   UNL     1      43.195 -12.132   7.174  1.00  0.00     0.192 HD
ENDROOT
BRANCH   1   5
HETATM    5  N   UNL     1      43.478 -11.052   8.862  1.00  0.00    -0.184 NA
HETATM    6  C   UNL     1      42.253 -10.748   9.158  1.00  0.00     0.153 C 
BRANCH   6   7
HETATM    7  C   UNL     1      41.949  -9.636  10.043  1.00  0.00     0.018 A 
HETATM    8  C   UNL     1      41.149  -8.562   9.666  1.00  0.00     0.018 A 
HETATM    9  C   UNL     1      40.433  -8.282   8.393  1.00  0.00     0.069 C 
HETATM   10  N   UNL     1      41.075  -7.700  10.730  1.00  0.00    -0.358 N 
HETATM   11  H   UNL     1      40.556  -6.833  10.744  1.00  0.00     0.166 HD
HETATM   12  C   UNL     1      41.801  -8.180  11.793  1.00  0.00     0.043 A 
HETATM   13  C   UNL     1      42.358  -9.397  11.396  1.00  0.00     0.004 A 
HETATM   14  C   UNL     1      41.999  -7.627  13.064  1.00  0.00     0.030 A 
HETATM   15  C   UNL     1      43.156 -10.093  12.330  1.00  0.00     0.014 A 
HETATM   16  C   UNL     1      43.365  -9.556  13.607  1.00  0.00     0.001 A 
HETATM   17  C   UNL     1      42.793  -8.338  13.965  1.00  0.00     0.002 A 
ENDBRANCH   6   7
ENDBRANCH   1   5
BRANCH   2  18
HETATM   18  C   UNL     1      44.804 -14.089   7.070  1.00  0.00     0.280 C 
BRANCH  18  19
HETATM   19  O   UNL     1      44.045 -15.240   7.456  1.00  0.00    -0.341 OA
BRANCH  19  20
HETATM   20  C   UNL     1      43.352 -15.708   6.359  1.00  0.00     0.080 A 
HETATM   21  C   UNL     1      43.682 -16.938   5.746  1.00  0.00     0.009 A 
HETATM   22  C   UNL     1      42.993 -17.320   4.564  1.00  0.00    -0.006 A 
HETATM   23  C   UNL     1      44.675 -17.796   6.270  1.00  0.00     0.015 A 
HETATM   24  C   UNL     1      43.373 -18.535   3.941  1.00  0.00     0.014 A 
HETATM   25  C   UNL     1      41.969 -16.464   4.078  1.00  0.00     0.022 A 
HETATM   26  C   UNL     1      44.375 -19.354   4.467  1.00  0.00     0.001 A 
HETATM   27  C   UNL     1      45.020 -18.988   5.638  1.00  0.00     0.001 A 
HETATM   28 BR   UNL     1      40.973 -16.854   2.497  1.00  0.00    -0.050 Br
HETATM   29  C   UNL     1      41.628 -15.280   4.740  1.00  0.00     0.023 A 
HETATM   30  C   UNL     1      42.317 -14.903   5.885  1.00  0.00     0.039 A 
ENDBRANCH  19  20
ENDBRANCH  18  19
ENDBRANCH   2  18
TORSDOF 5
ENDMDL
MODEL 4
REMARK VINA RESULT:      -9.0      1.520      2.080
REMARK  5 active torsions:
REMARK  status: ('A' for Active; 'I' for Inactive)
REMARK    1  A    between atoms: C_7  and  C_8 
REMARK    2  A    between atoms: N_9  and  N_10 
REMARK       I    between atoms: N_10  and  C_11 
REMARK    3  A    between atoms: C_11  and  C_12 
REMARK    4  A    between atoms: C_12  and  O_13 
REMARK    5  A    between atoms: O_13  and  C_14 
ROOT
HETATM    1  N   UNL     1      42.874 -15.213   2.379  1.00  0.00    -0.246 N 
HETATM    2  C   UNL     1      43.136 -13.935   2.862  1.00  0.00     0.261 C 
HETATM    3  O   UNL     1      44.089 -13.615   3.572  1.00  0.00    -0.269 OA
HETATM    4  H   UNL     1      41.926 -15.387   2.050  1.00  0.00     0.192 HD
ENDROOT
BRANCH   1   5
HETATM    5  N   UNL     1      43.574 -16.350   2.723  1.00  0.00    -0.184 NA
HETATM    6  C   UNL     1      43.136 -17.047   3.724  1.00  0.00     0.153 C 
BRANCH   6   7
HETATM    7  C   UNL     1      43.780 -18.290   4.112  1.00  0.00     0.018 A 
HETATM    8  C   UNL     1      44.441 -18.458   5.325  1.00  0.00     0.018 A 
HETATM    9  C   UNL     1      44.640 -17.521   6.462  1.00  0.00     0.069 C 
HETATM   10  N   UNL     1      44.931 -19.739   5.362  1.00  0.00    -0.358 N 
HETATM   11  H   UNL     1      45.452 -20.142   6.127  1.00  0.00     0.166 HD
HETATM   12  C   UNL     1      44.608 -20.414   4.210  1.00  0.00     0.043 A 
HETATM   13  C   UNL     1      43.880 -19.535   3.406  1.00  0.00     0.004 A 
HETATM   14  C   UNL     1      44.905 -21.729   3.830  1.00  0.00     0.030 A 
HETATM   15  C   UNL     1      43.428 -20.006   2.154  1.00  0.00     0.014 A 
HETATM   16  C   UNL     1      43.716 -21.318   1.758  1.00  0.00     0.001 A 
HETATM   17  C   UNL     1      44.445 -22.165   2.587  1.00  0.00     0.002 A 
ENDBRANCH   6   7
ENDBRANCH   1   5
BRANCH   2  18
HETATM   18  C   UNL     1      42.144 -12.882   2.373  1.00  0.00     0.280 C 
BRANCH  18  19
HETATM   19  O   UNL     1      42.463 -12.384   1.070  1.00  0.00    -0.341 OA
BRANCH  19  20
HETATM   20  C   UNL     1      41.496 -12.802   0.180  1.00  0.00     0.080 A 
HETATM   21  C   UNL     1      41.605 -12.546  -1.205  1.00  0.00     0.009 A 
HETATM   22  C   UNL     1      40.531 -12.919  -2.057  1.00  0.00    -0.006 A 
HETATM   23  C   UNL     1      42.745 -11.929  -1.767  1.00  0.00     0.015 A 
HETATM   24  C   UNL     1      40.643 -12.610  -3.436  1.00  0.00     0.014 A 
HETATM   25  C   UNL     1      39.413 -13.576  -1.479  1.00  0.00     0.022 A 
HETATM   26  C   UNL     1      41.772 -11.978  -3.962  1.00  0.00     0.001 A 
HETATM   27  C   UNL     1      42.828 -11.645  -3.129  1.00  0.00     0.001 A 
HETATM   28 BR   UNL     1      37.901 -14.122  -2.507  1.00  0.00    -0.050 Br
HETATM   29  C   UNL     1      39.360 -13.866  -0.111  1.00  0.00     0.023 A 
HETATM   30  C   UNL     1      40.405 -13.483   0.719  1.00  0.00     0.039 A 
ENDBRANCH  19  20
ENDBRANCH  18  19
ENDBRANCH   2  18
TORSDOF 5
ENDMDL
MODEL 5
REMARK VINA RESULT:      -8.9      3.642      9.405
REMARK  5 active torsions:
REMARK  status: ('A' for Active; 'I' for Inactive)
REMARK    1  A    between atoms: C_7  and  C_8 
REMARK    2  A    between atoms: N_9  and  N_10 
REMARK       I    between atoms: N_10  and  C_11 
REMARK    3  A    between atoms: C_11  and  C_12 
REMARK    4  A    between atoms: C_12  and  O_13 
REMARK    5  A    between atoms: O_13  and  C_14 
ROOT
HETATM    1  N   UNL     1      40.390 -15.517   0.255  1.00  0.00    -0.246 N 
HETATM    2  C   UNL     1      39.842 -15.741   1.514  1.00  0.00     0.261 C 
HETATM    3  O   UNL     1      38.953 -15.071   2.042  1.00  0.00    -0.269 OA
HETATM    4  H   UNL     1      41.288 -15.960   0.068  1.00  0.00     0.192 HD
ENDROOT
BRANCH   1   5
HETATM    5  N   UNL     1      40.113 -14.432  -0.549  1.00  0.00    -0.184 NA
HETATM    6  C   UNL     1      40.492 -14.489  -1.788  1.00  0.00     0.153 C 
BRANCH   6   7
HETATM    7  C   UNL     1      40.184 -13.415  -2.717  1.00  0.00     0.018 A 
HETATM    8  C   UNL     1      38.992 -13.345  -3.431  1.00  0.00     0.018 A 
HETATM    9  C   UNL     1      37.806 -14.243  -3.435  1.00  0.00     0.069 C 
HETATM   10  N   UNL     1      39.035 -12.217  -4.209  1.00  0.00    -0.358 N 
HETATM   11  H   UNL     1      38.300 -11.909  -4.832  1.00  0.00     0.166 HD
HETATM   12  C   UNL     1      40.218 -11.544  -4.023  1.00  0.00     0.043 A 
HETATM   13  C   UNL     1      40.960 -12.268  -3.088  1.00  0.00     0.004 A 
HETATM   14  C   UNL     1      40.676 -10.359  -4.611  1.00  0.00     0.030 A 
HETATM   15  C   UNL     1      42.230 -11.769  -2.725  1.00  0.00     0.014 A 
HETATM   16  C   UNL     1      42.705 -10.584  -3.302  1.00  0.00     0.001 A 
HETATM   17  C   UNL     1      41.936  -9.891  -4.233  1.00  0.00     0.002 A 
ENDBRANCH   6   7
ENDBRANCH   1   5
BRANCH   2  18
HETATM   18  C   UNL     1      40.397 -16.980   2.211  1.00  0.00     0.280 C 
BRANCH  18  19
HETATM   19  O   UNL     1      41.674 -17.378   1.699  1.00  0.00    -0.341 OA
BRANCH  19  20
HETATM   20  C   UNL     1      42.527 -17.615   2.756  1.00  0.00     0.080 A 
HETATM   21  C   UNL     1      43.237 -18.831   2.875  1.00  0.00     0.009 A 
HETATM   22  C   UNL     1      44.028 -19.051   4.035  1.00  0.00    -0.006 A 
HETATM   23  C   UNL     1      43.183 -19.833   1.881  1.00  0.00     0.015 A 
HETATM   24  C   UNL     1      44.693 -20.297   4.155  1.00  0.00     0.014 A 
HETATM   25  C   UNL     1      44.103 -18.014   5.003  1.00  0.00     0.022 A 
HETATM   26  C   UNL     1      44.604 -21.280   3.167  1.00  0.00     0.001 A 
HETATM   27  C   UNL     1      43.855 -21.044   2.025  1.00  0.00     0.001 A 
HETATM   28 BR   UNL     1      45.121 -18.184   6.608  1.00  0.00    -0.050 Br
HETATM   29  C   UNL     1      43.433 -16.799   4.828  1.00  0.00     0.023 A 
HETATM   30  C   UNL     1      42.648 -16.596   3.701  1.00  0.00     0.039 A 
ENDBRANCH  19  20
ENDBRANCH  18  19
ENDBRANCH   2  18
TORSDOF 5
ENDMDL
MODEL 6
REMARK VINA RESULT:      -8.8      2.192      2.548
REMARK  5 active torsions:
REMARK  status: ('A' for Active; 'I' for Inactive)
REMARK    1  A    between atoms: C_7  and  C_8 
REMARK    2  A    between atoms: N_9  and  N_10 
REMARK       I    between atoms: N_10  and  C_11 
REMARK    3  A    between atoms: C_11  and  C_12 
REMARK    4  A    between atoms: C_12  and  O_13 
REMARK    5  A    between atoms: O_13  and  C_14 
ROOT
HETATM    1  N   UNL     1      42.050 -15.865   2.423  1.00  0.00    -0.246 N 
HETATM    2  C   UNL     1      41.945 -15.718   1.044  1.00  0.00     0.261 C 
HETATM    3  O   UNL     1      42.005 -16.627   0.216  1.00  0.00    -0.269 OA
HETATM    4  H   UNL     1      42.262 -15.021   2.953  1.00  0.00     0.192 HD
ENDROOT
BRANCH   1   5
HETATM    5  N   UNL     1      42.365 -17.038   3.074  1.00  0.00    -0.184 NA
HETATM    6  C   UNL     1      43.620 -17.305   3.260  1.00  0.00     0.153 C 
BRANCH   6   7
HETATM    7  C   UNL     1      44.035 -18.491   3.991  1.00  0.00     0.018 A 
HETATM    8  C   UNL     1      44.381 -18.472   5.338  1.00  0.00     0.018 A 
HETATM    9  C   UNL     1      44.402 -17.356   6.321  1.00  0.00     0.069 C 
HETATM   10  N   UNL     1      44.722 -19.749   5.702  1.00  0.00    -0.358 N 
HETATM   11  H   UNL     1      45.013 -20.034   6.627  1.00  0.00     0.166 HD
HETATM   12  C   UNL     1      44.608 -20.604   4.633  1.00  0.00     0.043 A 
HETATM   13  C   UNL     1      44.173 -19.846   3.543  1.00  0.00     0.004 A 
HETATM   14  C   UNL     1      44.856 -21.980   4.556  1.00  0.00     0.030 A 
HETATM   15  C   UNL     1      43.978 -20.511   2.314  1.00  0.00     0.014 A 
HETATM   16  C   UNL     1      44.220 -21.887   2.218  1.00  0.00     0.001 A 
HETATM   17  C   UNL     1      44.654 -22.609   3.327  1.00  0.00     0.002 A 
ENDBRANCH   6   7
ENDBRANCH   1   5
BRANCH   2  18
HETATM   18  C   UNL     1      41.667 -14.284   0.601  1.00  0.00     0.280 C 
BRANCH  18  19
HETATM   19  O   UNL     1      41.777 -14.110  -0.816  1.00  0.00    -0.341 OA
BRANCH  19  20
HETATM   20  C   UNL     1      40.566 -13.673  -1.309  1.00  0.00     0.080 A 
HETATM   21  C   UNL     1      39.857 -14.409  -2.286  1.00  0.00     0.009 A 
HETATM   22  C   UNL     1      38.662 -13.860  -2.823  1.00  0.00    -0.006 A 
HETATM   23  C   UNL     1      40.301 -15.669  -2.746  1.00  0.00     0.015 A 
HETATM   24  C   UNL     1      37.993 -14.594  -3.835  1.00  0.00     0.014 A 
HETATM   25  C   UNL     1      38.209 -12.612  -2.316  1.00  0.00     0.022 A 
HETATM   26  C   UNL     1      38.467 -15.827  -4.288  1.00  0.00     0.001 A 
HETATM   27  C   UNL     1      39.617 -16.369  -3.737  1.00  0.00     0.001 A 
HETATM   28 BR   UNL     1      36.626 -11.761  -2.956  1.00  0.00    -0.050 Br
HETATM   29  C   UNL     1      38.904 -11.936  -1.309  1.00  0.00     0.023 A 
HETATM   30  C   UNL     1      40.081 -12.469  -0.800  1.00  0.00     0.039 A 
ENDBRANCH  19  20
ENDBRANCH  18  19
ENDBRANCH   2  18
TORSDOF 5
ENDMDL
MODEL 7
REMARK VINA RESULT:      -8.7      6.846      9.184
REMARK  5 active torsions:
REMARK  status: ('A' for Active; 'I' for Inactive)
REMARK    1  A    between atoms: C_7  and  C_8 
REMARK    2  A    between atoms: N_9  and  N_10 
REMARK       I    between atoms: N_10  and  C_11 
REMARK    3  A    between atoms: C_11  and  C_12 
REMARK    4  A    between atoms: C_12  and  O_13 
REMARK    5  A    between atoms: O_13  and  C_14 
ROOT
HETATM    1  N   UNL     1      44.423 -13.785   7.782  1.00  0.00    -0.246 N 
HETATM    2  C   UNL     1      45.390 -12.825   8.061  1.00  0.00     0.261 C 
HETATM    3  O   UNL     1      46.511 -12.764   7.556  1.00  0.00    -0.269 OA
HETATM    4  H   UNL     1      43.671 -13.880   8.462  1.00  0.00     0.192 HD
ENDROOT
BRANCH   1   5
HETATM    5  N   UNL     1      44.614 -14.895   6.987  1.00  0.00    -0.184 NA
HETATM    6  C   UNL     1      43.616 -15.710   6.841  1.00  0.00     0.153 C 
BRANCH   6   7
HETATM    7  C   UNL     1      43.715 -16.869   5.971  1.00  0.00     0.018 A 
HETATM    8  C   UNL     1      43.924 -18.161   6.446  1.00  0.00     0.018 A 
HETATM    9  C   UNL     1      44.069 -18.675   7.833  1.00  0.00     0.069 C 
HETATM   10  N   UNL     1      43.970 -19.002   5.364  1.00  0.00    -0.358 N 
HETATM   11  H   UNL     1      44.106 -20.003   5.409  1.00  0.00     0.166 HD
HETATM   12  C   UNL     1      43.794 -18.301   4.196  1.00  0.00     0.043 A 
HETATM   13  C   UNL     1      43.627 -16.958   4.543  1.00  0.00     0.004 A 
HETATM   14  C   UNL     1      43.772 -18.757   2.873  1.00  0.00     0.030 A 
HETATM   15  C   UNL     1      43.425 -16.029   3.500  1.00  0.00     0.014 A 
HETATM   16  C   UNL     1      43.399 -16.466   2.170  1.00  0.00     0.001 A 
HETATM   17  C   UNL     1      43.572 -17.813   1.864  1.00  0.00     0.002 A 
ENDBRANCH   6   7
ENDBRANCH   1   5
BRANCH   2  18
HETATM   18  C   UNL     1      44.922 -11.753   9.042  1.00  0.00     0.280 C 
BRANCH  18  19
HETATM   19  O   UNL     1      43.500 -11.584   9.041  1.00  0.00    -0.341 OA
BRANCH  19  20
HETATM   20  C   UNL     1      43.121 -10.968  10.214  1.00  0.00     0.080 A 
HETATM   21  C   UNL     1      41.795 -10.522  10.421  1.00  0.00     0.009 A 
HETATM   22  C   UNL     1      41.489  -9.811  11.612  1.00  0.00    -0.006 A 
HETATM   23  C   UNL     1      40.769 -10.759   9.479  1.00  0.00     0.015 A 
HETATM   24  C   UNL     1      40.165  -9.334  11.776  1.00  0.00     0.014 A 
HETATM   25  C   UNL     1      42.526  -9.621  12.565  1.00  0.00     0.022 A 
HETATM   26  C   UNL     1      39.174  -9.562  10.818  1.00  0.00     0.001 A 
HETATM   27  C   UNL     1      39.474 -10.283   9.673  1.00  0.00     0.001 A 
HETATM   28 BR   UNL     1      42.252  -8.678  14.200  1.00  0.00    -0.050 Br
HETATM   29  C   UNL     1      43.814 -10.124  12.356  1.00  0.00     0.023 A 
HETATM   30  C   UNL     1      44.111 -10.803  11.182  1.00  0.00     0.039 A 
ENDBRANCH  19  20
ENDBRANCH  18  19
ENDBRANCH   2  18
TORSDOF 5
ENDMDL
MODEL 8
REMARK VINA RESULT:      -8.7      3.743      8.156
REMARK  5 active torsions:
REMARK  status: ('A' for Active; 'I' for Inactive)
REMARK    1  A    between atoms: C_7  and  C_8 
REMARK    2  A    between atoms: N_9  and  N_10 
REMARK       I    between atoms: N_10  and  C_11 
REMARK    3  A    between atoms: C_11  and  C_12 
REMARK    4  A    between atoms: C_12  and  O_13 
REMARK    5  A    between atoms: O_13  and  C_14 
ROOT
HETATM    1  N   UNL     1      40.504 -15.883   3.766  1.00  0.00    -0.246 N 
HETATM    2  C   UNL     1      40.642 -15.220   4.981  1.00  0.00     0.261 C 
HETATM    3  O   UNL     1      40.096 -14.160   5.288  1.00  0.00    -0.269 OA
HETATM    4  H   UNL     1      41.215 -16.580   3.548  1.00  0.00     0.192 HD
ENDROOT
BRANCH   1   5
HETATM    5  N   UNL     1      39.832 -15.394   2.667  1.00  0.00    -0.184 NA
HETATM    6  C   UNL     1      40.511 -14.702   1.805  1.00  0.00     0.153 C 
BRANCH   6   7
HETATM    7  C   UNL     1      39.892 -14.201   0.589  1.00  0.00     0.018 A 
HETATM    8  C   UNL     1      38.899 -13.227   0.587  1.00  0.00     0.018 A 
HETATM    9  C   UNL     1      38.267 -12.480   1.706  1.00  0.00     0.069 C 
HETATM   10  N   UNL     1      38.541 -12.997  -0.717  1.00  0.00    -0.358 N 
HETATM   11  H   UNL     1      37.842 -12.333  -1.021  1.00  0.00     0.166 HD
HETATM   12  C   UNL     1      39.271 -13.791  -1.567  1.00  0.00     0.043 A 
HETATM   13  C   UNL     1      40.133 -14.556  -0.779  1.00  0.00     0.004 A 
HETATM   14  C   UNL     1      39.229 -13.881  -2.964  1.00  0.00     0.030 A 
HETATM   15  C   UNL     1      40.999 -15.458  -1.434  1.00  0.00     0.014 A 
HETATM   16  C   UNL     1      40.972 -15.563  -2.830  1.00  0.00     0.001 A 
HETATM   17  C   UNL     1      40.097 -14.784  -3.582  1.00  0.00     0.002 A 
ENDBRANCH   6   7
ENDBRANCH   1   5
BRANCH   2  18
HETATM   18  C   UNL     1      41.510 -15.967   5.990  1.00  0.00     0.280 C 
BRANCH  18  19
HETATM   19  O   UNL     1      42.907 -15.888   5.684  1.00  0.00    -0.341 OA
BRANCH  19  20
HETATM   20  C   UNL     1      43.391 -17.161   5.467  1.00  0.00     0.080 A 
HETATM   21  C   UNL     1      43.631 -17.648   4.162  1.00  0.00     0.009 A 
HETATM   22  C   UNL     1      44.040 -18.999   4.000  1.00  0.00    -0.006 A 
HETATM   23  C   UNL     1      43.474 -16.836   3.017  1.00  0.00     0.015 A 
HETATM   24  C   UNL     1      44.229 -19.479   2.680  1.00  0.00     0.014 A 
HETATM   25  C   UNL     1      44.234 -19.786   5.167  1.00  0.00     0.022 A 
HETATM   26  C   UNL     1      44.044 -18.661   1.563  1.00  0.00     0.001 A 
HETATM   27  C   UNL     1      43.675 -17.336   1.732  1.00  0.00     0.001 A 
HETATM   28 BR   UNL     1      44.772 -21.615   5.091  1.00  0.00    -0.050 Br
HETATM   29  C   UNL     1      44.042 -19.257   6.448  1.00  0.00     0.023 A 
HETATM   30  C   UNL     1      43.625 -17.941   6.599  1.00  0.00     0.039 A 
ENDBRANCH  19  20
ENDBRANCH  18  19
ENDBRANCH   2  18
TORSDOF 5
ENDMDL
MODEL 9
REMARK VINA RESULT:      -8.7      3.898      9.866
REMARK  5 active torsions:
REMARK  status: ('A' for Active; 'I' for Inactive)
REMARK    1  A    between atoms: C_7  and  C_8 
REMARK    2  A    between atoms: N_9  and  N_10 
REMARK       I    between atoms: N_10  and  C_11 
REMARK    3  A    between atoms: C_11  and  C_12 
REMARK    4  A    between atoms: C_12  and  O_13 
REMARK    5  A    between atoms: O_13  and  C_14 
ROOT
HETATM    1  N   UNL     1      41.097 -16.165  -0.379  1.00  0.00    -0.246 N 
HETATM    2  C   UNL     1      41.111 -16.393   0.993  1.00  0.00     0.261 C 
HETATM    3  O   UNL     1      40.603 -15.668   1.848  1.00  0.00    -0.269 OA
HETATM    4  H   UNL     1      41.781 -16.682  -0.931  1.00  0.00     0.192 HD
ENDROOT
BRANCH   1   5
HETATM    5  N   UNL     1      40.621 -15.025  -0.989  1.00  0.00    -0.184 NA
HETATM    6  C   UNL     1      40.793 -14.909  -2.269  1.00  0.00     0.153 C 
BRANCH   6   7
HETATM    7  C   UNL     1      40.267 -13.767  -2.997  1.00  0.00     0.018 A 
HETATM    8  C   UNL     1      38.922 -13.628  -3.326  1.00  0.00     0.018 A 
HETATM    9  C   UNL     1      37.755 -14.504  -3.040  1.00  0.00     0.069 C 
HETATM   10  N   UNL     1      38.778 -12.447  -4.009  1.00  0.00    -0.358 N 
HETATM   11  H   UNL     1      37.906 -12.085  -4.369  1.00  0.00     0.166 HD
HETATM   12  C   UNL     1      39.987 -11.809  -4.134  1.00  0.00     0.043 A 
HETATM   13  C   UNL     1      40.943 -12.609  -3.505  1.00  0.00     0.004 A 
HETATM   14  C   UNL     1      40.297 -10.592  -4.753  1.00  0.00     0.030 A 
HETATM   15  C   UNL     1      42.280 -12.157  -3.499  1.00  0.00     0.014 A 
HETATM   16  C   UNL     1      42.609 -10.941  -4.112  1.00  0.00     0.001 A 
HETATM   17  C   UNL     1      41.628 -10.172  -4.731  1.00  0.00     0.002 A 
ENDBRANCH   6   7
ENDBRANCH   1   5
BRANCH   2  18
HETATM   18  C   UNL     1      41.776 -17.709   1.387  1.00  0.00     0.280 C 
BRANCH  18  19
HETATM   19  O   UNL     1      43.169 -17.560   1.684  1.00  0.00    -0.341 OA
BRANCH  19  20
HETATM   20  C   UNL     1      43.562 -18.584   2.518  1.00  0.00     0.080 A 
HETATM   21  C   UNL     1      43.812 -18.365   3.892  1.00  0.00     0.009 A 
HETATM   22  C   UNL     1      44.305 -19.441   4.678  1.00  0.00    -0.006 A 
HETATM   23  C   UNL     1      43.589 -17.112   4.505  1.00  0.00     0.015 A 
HETATM   24  C   UNL     1      44.593 -19.185   6.043  1.00  0.00     0.014 A 
HETATM   25  C   UNL     1      44.482 -20.704   4.053  1.00  0.00     0.022 A 
HETATM   26  C   UNL     1      44.385 -17.929   6.619  1.00  0.00     0.001 A 
HETATM   27  C   UNL     1      43.874 -16.895   5.851  1.00  0.00     0.001 A 
HETATM   28 BR   UNL     1      45.145 -22.227   4.991  1.00  0.00    -0.050 Br
HETATM   29  C   UNL     1      44.172 -20.902   2.703  1.00  0.00     0.023 A 
HETATM   30  C   UNL     1      43.707 -19.843   1.936  1.00  0.00     0.039 A 
ENDBRANCH  19  20
ENDBRANCH  18  19
ENDBRANCH   2  18
TORSDOF 5
ENDMDL
MODEL 10
REMARK VINA RESULT:      -8.6      5.905      8.436
REMARK  5 active torsions:
REMARK  status: ('A' for Active; 'I' for Inactive)
REMARK    1  A    between atoms: C_7  and  C_8 
REMARK    2  A    between atoms: N_9  and  N_10 
REMARK       I    between atoms: N_10  and  C_11 
REMARK    3  A    between atoms: C_11  and  C_12 
REMARK    4  A    between atoms: C_12  and  O_13 
REMARK    5  A    between atoms: O_13  and  C_14 
ROOT
HETATM    1  N   UNL     1      41.205 -13.574   6.248  1.00  0.00    -0.246 N 
HETATM    2  C   UNL     1      41.559 -12.313   5.781  1.00  0.00     0.261 C 
HETATM    3  O   UNL     1      42.131 -12.074   4.717  1.00  0.00    -0.269 OA
HETATM    4  H   UNL     1      41.000 -13.647   7.243  1.00  0.00     0.192 HD
ENDROOT
BRANCH   1   5
HETATM    5  N   UNL     1      41.551 -14.767   5.651  1.00  0.00    -0.184 NA
HETATM    6  C   UNL     1      42.705 -15.277   5.947  1.00  0.00     0.153 C 
BRANCH   6   7
HETATM    7  C   UNL     1      43.120 -16.561   5.408  1.00  0.00     0.018 A 
HETATM    8  C   UNL     1      43.338 -17.684   6.200  1.00  0.00     0.018 A 
HETATM    9  C   UNL     1      43.204 -17.879   7.669  1.00  0.00     0.069 C 
HETATM   10  N   UNL     1      43.719 -18.711   5.376  1.00  0.00    -0.358 N 
HETATM   11  H   UNL     1      43.939 -19.650   5.677  1.00  0.00     0.166 HD
HETATM   12  C   UNL     1      43.755 -18.295   4.067  1.00  0.00     0.043 A 
HETATM   13  C   UNL     1      43.378 -16.950   4.052  1.00  0.00     0.004 A 
HETATM   14  C   UNL     1      44.089 -19.008   2.910  1.00  0.00     0.030 A 
HETATM   15  C   UNL     1      43.336 -16.291   2.805  1.00  0.00     0.014 A 
HETATM   16  C   UNL     1      43.666 -16.988   1.636  1.00  0.00     0.001 A 
HETATM   17  C   UNL     1      44.038 -18.329   1.692  1.00  0.00     0.002 A 
ENDBRANCH   6   7
ENDBRANCH   1   5
BRANCH   2  18
HETATM   18  C   UNL     1      41.110 -11.174   6.693  1.00  0.00     0.280 C 
BRANCH  18  19
HETATM   19  O   UNL     1      42.207 -10.478   7.293  1.00  0.00    -0.341 OA
BRANCH  19  20
HETATM   20  C   UNL     1      42.073 -10.525   8.664  1.00  0.00     0.080 A 
HETATM   21  C   UNL     1      43.073 -11.092   9.487  1.00  0.00     0.009 A 
HETATM   22  C   UNL     1      42.834 -11.195  10.883  1.00  0.00    -0.006 A 
HETATM   23  C   UNL     1      44.299 -11.559   8.963  1.00  0.00     0.015 A 
HETATM   24  C   UNL     1      43.831 -11.809  11.681  1.00  0.00     0.014 A 
HETATM   25  C   UNL     1      41.613 -10.680  11.395  1.00  0.00     0.022 A 
HETATM   26  C   UNL     1      45.026 -12.284  11.135  1.00  0.00     0.001 A 
HETATM   27  C   UNL     1      45.264 -12.151   9.776  1.00  0.00     0.001 A 
HETATM   28 BR   UNL     1      41.163 -10.764  13.247  1.00  0.00    -0.050 Br
HETATM   29  C   UNL     1      40.667 -10.075  10.561  1.00  0.00     0.023 A 
HETATM   30  C   UNL     1      40.899  -9.992   9.195  1.00  0.00     0.039 A 
ENDBRANCH  19  20
ENDBRANCH  18  19
ENDBRANCH   2  18
TORSDOF 5
ENDMDL
