MODEL 1
REMARK VINA RESULT:      -9.2      0.000      0.000
REMARK  6 active torsions:
REMARK  status: ('A' for Active; 'I' for Inactive)
REMARK    1  A    between atoms: C_4  and  C_5 
REMARK    2  A    between atoms: C_5  and  N_6 
REMARK    3  A    between atoms: C_7  and  N_8 
REMARK    4  A    between atoms: N_8  and  N_9 
REMARK       I    between atoms: N_9  and  C_10 
REMARK    5  A    between atoms: C_10  and  C_11 
REMARK    6  A    between atoms: C_19  and  C_20 
ROOT
HETATM    1  N   UNL     1      42.085 -14.541   3.084  1.00  0.00    -0.168 NA
HETATM    2  C   UNL     1      41.658 -14.877   4.359  1.00  0.00     0.250 C 
HETATM    3  O   UNL     1      40.454 -14.898   4.606  1.00  0.00    -0.272 OA
HETATM    4  H   UNL     1      41.299 -14.257   2.501  1.00  0.00     0.156 HD
ENDROOT
BRANCH   2   5
HETATM    5  C   UNL     1      42.658 -15.084   5.446  1.00  0.00     0.042 A 
HETATM    6  C   UNL     1      42.950 -16.398   5.897  1.00  0.00     0.008 A 
HETATM    7  C   UNL     1      43.928 -16.510   6.904  1.00  0.00     0.068 A 
HETATM    8  C   UNL     1      42.336 -17.589   5.425  1.00  0.00     0.015 A 
HETATM    9  C   UNL     1      44.271 -17.768   7.382  1.00  0.00     0.032 A 
HETATM   10  N   UNL     1      44.552 -15.451   7.442  1.00  0.00    -0.248 NA
HETATM   11  C   UNL     1      43.671 -18.933   6.900  1.00  0.00     0.002 A 
HETATM   12  C   UNL     1      42.697 -18.842   5.920  1.00  0.00     0.001 A 
HETATM   13  C   UNL     1      44.243 -14.206   7.015  1.00  0.00     0.069 A 
HETATM   14  C   UNL     1      43.331 -13.991   5.995  1.00  0.00     0.050 A 
BRANCH  13  15
HETATM   15  C   UNL     1      44.933 -13.109   7.715  1.00  0.00    -0.005 A 
HETATM   16  C   UNL     1      44.258 -12.325   8.662  1.00  0.00     0.033 A 
HETATM   17  C   UNL     1      44.932 -11.291   9.291  1.00  0.00     0.117 A 
HETATM   18  N   UNL     1      46.220 -10.975   9.047  1.00  0.00    -0.273 NA
HETATM   19  C   UNL     1      46.854 -11.720   8.119  1.00  0.00     0.117 A 
HETATM   20  C   UNL     1      46.267 -12.778   7.442  1.00  0.00     0.033 A 
ENDBRANCH  13  15
ENDBRANCH   2   5
BRANCH   1  21
HETATM   21  N   UNL     1      42.982 -15.389   2.403  1.00  0.00    -0.291 N 
HETATM   22  H   UNL     1      43.906 -15.435   2.813  1.00  0.00     0.183 HD
BRANCH  21  23
HETATM   23  C   UNL     1      42.545 -16.380   1.561  1.00  0.00     0.182 C 
HETATM   24  N   UNL     1      43.232 -17.555   1.589  1.00  0.00    -0.362 N 
HETATM   25  H   UNL     1      42.870 -18.243   0.936  1.00  0.00     0.162 HD
HETATM   26  S   UNL     1      41.298 -16.245   0.457  1.00  0.00    -0.040 SA
BRANCH  24  27
HETATM   27  C   UNL     1      44.293 -18.016   2.471  1.00  0.00     0.160 C 
BRANCH  27  28
HETATM   28  C   UNL     1      44.272 -19.514   2.615  1.00  0.00    -0.041 A 
HETATM   29  C   UNL     1      43.570 -20.308   1.696  1.00  0.00     0.009 A 
HETATM   30  C   UNL     1      43.559 -21.699   1.824  1.00  0.00     0.001 A 
HETATM   31  C   UNL     1      44.240 -22.309   2.875  1.00  0.00     0.000 A 
HETATM   32  C   UNL     1      44.934 -21.531   3.799  1.00  0.00     0.001 A 
HETATM   33  C   UNL     1      44.952 -20.141   3.670  1.00  0.00     0.009 A 
ENDBRANCH  27  28
ENDBRANCH  24  27
ENDBRANCH  21  23
ENDBRANCH   1  21
TORSDOF 6
ENDMDL
MODEL 2
REMARK VINA RESULT:      -8.9      2.815      7.273
REMARK  6 active torsions:
REMARK  status: ('A' for Active; 'I' for Inactive)
REMARK    1  A    between atoms: C_4  and  C_5 
REMARK    2  A    between atoms: C_5  and  N_6 
REMARK    3  A    between atoms: C_7  and  N_8 
REMARK    4  A    between atoms: N_8  and  N_9 
REMARK       I    between atoms: N_9  and  C_10 
REMARK    5  A    between atoms: C_10  and  C_11 
REMARK    6  A    between atoms: C_19  and  C_20 
ROOT
HETATM    1  N   UNL     1      44.121 -16.486   6.353  1.00  0.00    -0.168 NA
HETATM    2  C   UNL     1      43.074 -17.319   5.994  1.00  0.00     0.250 C 
HETATM    3  O   UNL     1      42.446 -17.911   6.869  1.00  0.00    -0.272 OA
HETATM    4  H   UNL     1      44.299 -16.538   7.355  1.00  0.00     0.156 HD
ENDROOT
BRANCH   2   5
HETATM    5  C   UNL     1      42.801 -17.588   4.552  1.00  0.00     0.042 A 
HETATM    6  C   UNL     1      43.367 -18.731   3.927  1.00  0.00     0.008 A 
HETATM    7  C   UNL     1      43.037 -18.930   2.572  1.00  0.00     0.068 A 
HETATM    8  C   UNL     1      44.232 -19.671   4.550  1.00  0.00     0.015 A 
HETATM    9  C   UNL     1      43.545 -20.035   1.904  1.00  0.00     0.032 A 
HETATM   10  N   UNL     1      42.252 -18.092   1.879  1.00  0.00    -0.248 NA
HETATM   11  C   UNL     1      44.384 -20.960   2.530  1.00  0.00     0.002 A 
HETATM   12  C   UNL     1      44.731 -20.774   3.858  1.00  0.00     0.001 A 
HETATM   13  C   UNL     1      41.743 -16.997   2.485  1.00  0.00     0.069 A 
HETATM   14  C   UNL     1      41.966 -16.737   3.827  1.00  0.00     0.050 A 
BRANCH  13  15
HETATM   15  C   UNL     1      40.950 -16.106   1.619  1.00  0.00    -0.005 A 
HETATM   16  C   UNL     1      41.440 -15.695   0.373  1.00  0.00     0.033 A 
HETATM   17  C   UNL     1      40.677 -14.844  -0.410  1.00  0.00     0.117 A 
HETATM   18  N   UNL     1      39.468 -14.370  -0.046  1.00  0.00    -0.273 NA
HETATM   19  C   UNL     1      39.014 -14.753   1.164  1.00  0.00     0.117 A 
HETATM   20  C   UNL     1      39.702 -15.606   2.015  1.00  0.00     0.033 A 
ENDBRANCH  13  15
ENDBRANCH   2   5
BRANCH   1  21
HETATM   21  N   UNL     1      44.157 -15.162   5.868  1.00  0.00    -0.291 N 
HETATM   22  H   UNL     1      44.115 -15.085   4.860  1.00  0.00     0.183 HD
BRANCH  21  23
HETATM   23  C   UNL     1      43.831 -14.091   6.660  1.00  0.00     0.182 C 
HETATM   24  N   UNL     1      42.588 -13.562   6.496  1.00  0.00    -0.362 N 
HETATM   25  H   UNL     1      42.412 -12.766   7.100  1.00  0.00     0.162 HD
HETATM   26  S   UNL     1      44.850 -13.335   7.748  1.00  0.00    -0.040 SA
BRANCH  24  27
HETATM   27  C   UNL     1      41.455 -14.022   5.709  1.00  0.00     0.160 C 
BRANCH  27  28
HETATM   28  C   UNL     1      41.306 -13.220   4.444  1.00  0.00    -0.041 A 
HETATM   29  C   UNL     1      40.170 -12.423   4.236  1.00  0.00     0.009 A 
HETATM   30  C   UNL     1      40.036 -11.671   3.067  1.00  0.00     0.001 A 
HETATM   31  C   UNL     1      41.029 -11.716   2.091  1.00  0.00     0.000 A 
HETATM   32  C   UNL     1      42.157 -12.511   2.281  1.00  0.00     0.001 A 
HETATM   33  C   UNL     1      42.297 -13.258   3.451  1.00  0.00     0.009 A 
ENDBRANCH  27  28
ENDBRANCH  24  27
ENDBRANCH  21  23
ENDBRANCH   1  21
TORSDOF 6
ENDMDL
MODEL 3
REMARK VINA RESULT:      -8.8      3.058      6.961
REMARK  6 active torsions:
REMARK  status: ('A' for Active; 'I' for Inactive)
REMARK    1  A    between atoms: C_4  and  C_5 
REMARK    2  A    between atoms: C_5  and  N_6 
REMARK    3  A    between atoms: C_7  and  N_8 
REMARK    4  A    between atoms: N_8  and  N_9 
REMARK       I    between atoms: N_9  and  C_10 
REMARK    5  A    between atoms: C_10  and  C_11 
REMARK    6  A    between atoms: C_19  and  C_20 
ROOT
HETATM    1  N   UNL     1      41.716 -12.918   3.569  1.00  0.00    -0.168 NA
HETATM    2  C   UNL     1      42.832 -13.690   3.283  1.00  0.00     0.250 C 
HETATM    3  O   UNL     1      43.945 -13.286   3.612  1.00  0.00    -0.272 OA
HETATM    4  H   UNL     1      41.988 -12.021   3.967  1.00  0.00     0.156 HD
ENDROOT
BRANCH   2   5
HETATM    5  C   UNL     1      42.685 -14.934   2.472  1.00  0.00     0.042 A 
HETATM    6  C   UNL     1      42.010 -14.888   1.224  1.00  0.00     0.008 A 
HETATM    7  C   UNL     1      41.940 -16.098   0.507  1.00  0.00     0.068 A 
HETATM    8  C   UNL     1      41.402 -13.737   0.654  1.00  0.00     0.015 A 
HETATM    9  C   UNL     1      41.306 -16.121  -0.728  1.00  0.00     0.032 A 
HETATM   10  N   UNL     1      42.454 -17.250   0.961  1.00  0.00    -0.248 NA
HETATM   11  C   UNL     1      40.724 -14.980  -1.284  1.00  0.00     0.002 A 
HETATM   12  C   UNL     1      40.770 -13.784  -0.588  1.00  0.00     0.001 A 
HETATM   13  C   UNL     1      43.073 -17.278   2.163  1.00  0.00     0.069 A 
HETATM   14  C   UNL     1      43.237 -16.133   2.925  1.00  0.00     0.050 A 
BRANCH  13  15
HETATM   15  C   UNL     1      43.542 -18.604   2.602  1.00  0.00    -0.005 A 
HETATM   16  C   UNL     1      44.093 -18.784   3.878  1.00  0.00     0.033 A 
HETATM   17  C   UNL     1      44.540 -20.040   4.254  1.00  0.00     0.117 A 
HETATM   18  N   UNL     1      44.485 -21.127   3.456  1.00  0.00    -0.273 NA
HETATM   19  C   UNL     1      43.975 -20.940   2.222  1.00  0.00     0.117 A 
HETATM   20  C   UNL     1      43.497 -19.723   1.759  1.00  0.00     0.033 A 
ENDBRANCH  13  15
ENDBRANCH   2   5
BRANCH   1  21
HETATM   21  N   UNL     1      40.622 -13.497   4.244  1.00  0.00    -0.291 N 
HETATM   22  H   UNL     1      40.185 -14.265   3.750  1.00  0.00     0.183 HD
BRANCH  21  23
HETATM   23  C   UNL     1      40.445 -13.350   5.596  1.00  0.00     0.182 C 
HETATM   24  N   UNL     1      40.378 -14.492   6.333  1.00  0.00    -0.362 N 
HETATM   25  H   UNL     1      40.233 -14.319   7.323  1.00  0.00     0.162 HD
HETATM   26  S   UNL     1      40.228 -11.902   6.401  1.00  0.00    -0.040 SA
BRANCH  24  27
HETATM   27  C   UNL     1      40.603 -15.880   5.960  1.00  0.00     0.160 C 
BRANCH  27  28
HETATM   28  C   UNL     1      41.945 -16.365   6.439  1.00  0.00    -0.041 A 
HETATM   29  C   UNL     1      42.083 -17.647   6.992  1.00  0.00     0.009 A 
HETATM   30  C   UNL     1      43.329 -18.101   7.428  1.00  0.00     0.001 A 
HETATM   31  C   UNL     1      44.448 -17.276   7.325  1.00  0.00     0.000 A 
HETATM   32  C   UNL     1      44.322 -15.997   6.786  1.00  0.00     0.001 A 
HETATM   33  C   UNL     1      43.078 -15.543   6.344  1.00  0.00     0.009 A 
ENDBRANCH  27  28
ENDBRANCH  24  27
ENDBRANCH  21  23
ENDBRANCH   1  21
TORSDOF 6
ENDMDL
MODEL 4
REMARK VINA RESULT:      -8.5      2.222      8.100
REMARK  6 active torsions:
REMARK  status: ('A' for Active; 'I' for Inactive)
REMARK    1  A    between atoms: C_4  and  C_5 
REMARK    2  A    between atoms: C_5  and  N_6 
REMARK    3  A    between atoms: C_7  and  N_8 
REMARK    4  A    between atoms: N_8  and  N_9 
REMARK       I    between atoms: N_9  and  C_10 
REMARK    5  A    between atoms: C_10  and  C_11 
REMARK    6  A    between atoms: C_19  and  C_20 
ROOT
HETATM    1  N   UNL     1      43.939 -16.326   6.173  1.00  0.00    -0.168 NA
HETATM    2  C   UNL     1      42.926 -17.187   5.778  1.00  0.00     0.250 C 
HETATM    3  O   UNL     1      42.246 -17.750   6.634  1.00  0.00    -0.272 OA
HETATM    4  H   UNL     1      44.049 -16.335   7.185  1.00  0.00     0.156 HD
ENDROOT
BRANCH   2   5
HETATM    5  C   UNL     1      42.754 -17.518   4.334  1.00  0.00     0.042 A 
HETATM    6  C   UNL     1      43.331 -18.704   3.807  1.00  0.00     0.008 A 
HETATM    7  C   UNL     1      43.098 -18.959   2.442  1.00  0.00     0.068 A 
HETATM    8  C   UNL     1      44.120 -19.634   4.537  1.00  0.00     0.015 A 
HETATM    9  C   UNL     1      43.622 -20.108   1.866  1.00  0.00     0.032 A 
HETATM   10  N   UNL     1      42.392 -18.135   1.653  1.00  0.00    -0.248 NA
HETATM   11  C   UNL     1      44.384 -21.022   2.596  1.00  0.00     0.002 A 
HETATM   12  C   UNL     1      44.637 -20.782   3.936  1.00  0.00     0.001 A 
HETATM   13  C   UNL     1      41.871 -16.999   2.168  1.00  0.00     0.069 A 
HETATM   14  C   UNL     1      42.001 -16.681   3.510  1.00  0.00     0.050 A 
BRANCH  13  15
HETATM   15  C   UNL     1      41.171 -16.132   1.204  1.00  0.00    -0.005 A 
HETATM   16  C   UNL     1      41.562 -16.093  -0.142  1.00  0.00     0.033 A 
HETATM   17  C   UNL     1      40.894 -15.254  -1.018  1.00  0.00     0.117 A 
HETATM   18  N   UNL     1      39.873 -14.450  -0.658  1.00  0.00    -0.273 NA
HETATM   19  C   UNL     1      39.518 -14.477   0.642  1.00  0.00     0.117 A 
HETATM   20  C   UNL     1      40.123 -15.287   1.592  1.00  0.00     0.033 A 
ENDBRANCH  13  15
ENDBRANCH   2   5
BRANCH   1  21
HETATM   21  N   UNL     1      43.995 -15.024   5.637  1.00  0.00    -0.291 N 
HETATM   22  H   UNL     1      44.410 -14.968   4.715  1.00  0.00     0.183 HD
BRANCH  21  23
HETATM   23  C   UNL     1      43.185 -14.016   6.095  1.00  0.00     0.182 C 
HETATM   24  N   UNL     1      43.627 -13.316   7.174  1.00  0.00    -0.362 N 
HETATM   25  H   UNL     1      42.980 -12.593   7.473  1.00  0.00     0.162 HD
HETATM   26  S   UNL     1      41.676 -13.625   5.492  1.00  0.00    -0.040 SA
BRANCH  24  27
HETATM   27  C   UNL     1      44.903 -13.349   7.872  1.00  0.00     0.160 C 
BRANCH  27  28
HETATM   28  C   UNL     1      44.905 -12.418   9.054  1.00  0.00    -0.041 A 
HETATM   29  C   UNL     1      45.818 -11.354   9.122  1.00  0.00     0.009 A 
HETATM   30  C   UNL     1      45.814 -10.484  10.213  1.00  0.00     0.001 A 
HETATM   31  C   UNL     1      44.906 -10.672  11.253  1.00  0.00     0.000 A 
HETATM   32  C   UNL     1      44.000 -11.730  11.202  1.00  0.00     0.001 A 
HETATM   33  C   UNL     1      43.998 -12.598  10.109  1.00  0.00     0.009 A 
ENDBRANCH  27  28
ENDBRANCH  24  27
ENDBRANCH  21  23
ENDBRANCH   1  21
TORSDOF 6
ENDMDL
MODEL 5
REMARK VINA RESULT:      -8.5      1.607      2.239
REMARK  6 active torsions:
REMARK  status: ('A' for Active; 'I' for Inactive)
REMARK    1  A    between atoms: C_4  and  C_5 
REMARK    2  A    between atoms: C_5  and  N_6 
REMARK    3  A    between atoms: C_7  and  N_8 
REMARK    4  A    between atoms: N_8  and  N_9 
REMARK       I    between atoms: N_9  and  C_10 
REMARK    5  A    between atoms: C_10  and  C_11 
REMARK    6  A    between atoms: C_19  and  C_20 
ROOT
HETATM    1  N   UNL     1      41.196 -13.612   3.931  1.00  0.00    -0.168 NA
HETATM    2  C   UNL     1      41.203 -14.529   4.970  1.00  0.00     0.250 C 
HETATM    3  O   UNL     1      40.151 -15.064   5.310  1.00  0.00    -0.272 OA
HETATM    4  H   UNL     1      40.244 -13.427   3.617  1.00  0.00     0.156 HD
ENDROOT
BRANCH   2   5
HETATM    5  C   UNL     1      42.457 -14.761   5.744  1.00  0.00     0.042 A 
HETATM    6  C   UNL     1      43.005 -16.069   5.827  1.00  0.00     0.008 A 
HETATM    7  C   UNL     1      44.206 -16.199   6.551  1.00  0.00     0.068 A 
HETATM    8  C   UNL     1      42.440 -17.239   5.252  1.00  0.00     0.015 A 
HETATM    9  C   UNL     1      44.802 -17.447   6.660  1.00  0.00     0.032 A 
HETATM   10  N   UNL     1      44.811 -15.167   7.158  1.00  0.00    -0.248 NA
HETATM   11  C   UNL     1      44.246 -18.588   6.079  1.00  0.00     0.002 A 
HETATM   12  C   UNL     1      43.057 -18.484   5.375  1.00  0.00     0.001 A 
HETATM   13  C   UNL     1      44.261 -13.934   7.087  1.00  0.00     0.069 A 
HETATM   14  C   UNL     1      43.108 -13.691   6.359  1.00  0.00     0.050 A 
BRANCH  13  15
HETATM   15  C   UNL     1      44.966 -12.883   7.842  1.00  0.00    -0.005 A 
HETATM   16  C   UNL     1      44.294 -12.119   8.806  1.00  0.00     0.033 A 
HETATM   17  C   UNL     1      44.982 -11.128   9.487  1.00  0.00     0.117 A 
HETATM   18  N   UNL     1      46.282 -10.838   9.280  1.00  0.00    -0.273 NA
HETATM   19  C   UNL     1      46.915 -11.563   8.336  1.00  0.00     0.117 A 
HETATM   20  C   UNL     1      46.313 -12.579   7.608  1.00  0.00     0.033 A 
ENDBRANCH  13  15
ENDBRANCH   2   5
BRANCH   1  21
HETATM   21  N   UNL     1      42.096 -13.767   2.857  1.00  0.00    -0.291 N 
HETATM   22  H   UNL     1      42.965 -14.224   3.103  1.00  0.00     0.183 HD
BRANCH  21  23
HETATM   23  C   UNL     1      41.681 -13.722   1.550  1.00  0.00     0.182 C 
HETATM   24  N   UNL     1      41.136 -14.860   1.040  1.00  0.00    -0.362 N 
HETATM   25  H   UNL     1      40.861 -14.768   0.068  1.00  0.00     0.162 HD
HETATM   26  S   UNL     1      41.855 -12.422   0.514  1.00  0.00    -0.040 SA
BRANCH  24  27
HETATM   27  C   UNL     1      40.776 -16.114   1.684  1.00  0.00     0.160 C 
BRANCH  27  28
HETATM   28  C   UNL     1      41.935 -17.074   1.701  1.00  0.00    -0.041 A 
HETATM   29  C   UNL     1      43.251 -16.604   1.570  1.00  0.00     0.009 A 
HETATM   30  C   UNL     1      44.327 -17.493   1.596  1.00  0.00     0.001 A 
HETATM   31  C   UNL     1      44.101 -18.860   1.741  1.00  0.00     0.000 A 
HETATM   32  C   UNL     1      42.799 -19.340   1.863  1.00  0.00     0.001 A 
HETATM   33  C   UNL     1      41.721 -18.453   1.844  1.00  0.00     0.009 A 
ENDBRANCH  27  28
ENDBRANCH  24  27
ENDBRANCH  21  23
ENDBRANCH   1  21
TORSDOF 6
ENDMDL
MODEL 6
REMARK VINA RESULT:      -8.4      3.282      7.463
REMARK  6 active torsions:
REMARK  status: ('A' for Active; 'I' for Inactive)
REMARK    1  A    between atoms: C_4  and  C_5 
REMARK    2  A    between atoms: C_5  and  N_6 
REMARK    3  A    between atoms: C_7  and  N_8 
REMARK    4  A    between atoms: N_8  and  N_9 
REMARK       I    between atoms: N_9  and  C_10 
REMARK    5  A    between atoms: C_10  and  C_11 
REMARK    6  A    between atoms: C_19  and  C_20 
ROOT
HETATM    1  N   UNL     1      42.099 -12.679   3.597  1.00  0.00    -0.168 NA
HETATM    2  C   UNL     1      42.970 -13.651   3.131  1.00  0.00     0.250 C 
HETATM    3  O   UNL     1      44.149 -13.620   3.477  1.00  0.00    -0.272 OA
HETATM    4  H   UNL     1      42.598 -11.971   4.134  1.00  0.00     0.156 HD
ENDROOT
BRANCH   2   5
HETATM    5  C   UNL     1      42.501 -14.644   2.122  1.00  0.00     0.042 A 
HETATM    6  C   UNL     1      42.811 -16.020   2.288  1.00  0.00     0.008 A 
HETATM    7  C   UNL     1      42.306 -16.896   1.308  1.00  0.00     0.068 A 
HETATM    8  C   UNL     1      43.585 -16.571   3.344  1.00  0.00     0.015 A 
HETATM    9  C   UNL     1      42.561 -18.257   1.416  1.00  0.00     0.032 A 
HETATM   10  N   UNL     1      41.588 -16.482   0.254  1.00  0.00    -0.248 NA
HETATM   11  C   UNL     1      43.312 -18.789   2.466  1.00  0.00     0.002 A 
HETATM   12  C   UNL     1      43.829 -17.942   3.432  1.00  0.00     0.001 A 
HETATM   13  C   UNL     1      41.323 -15.165   0.101  1.00  0.00     0.069 A 
HETATM   14  C   UNL     1      41.732 -14.227   1.035  1.00  0.00     0.050 A 
BRANCH  13  15
HETATM   15  C   UNL     1      40.586 -14.806  -1.123  1.00  0.00    -0.005 A 
HETATM   16  C   UNL     1      40.924 -15.378  -2.357  1.00  0.00     0.033 A 
HETATM   17  C   UNL     1      40.221 -15.007  -3.492  1.00  0.00     0.117 A 
HETATM   18  N   UNL     1      39.214 -14.110  -3.492  1.00  0.00    -0.273 NA
HETATM   19  C   UNL     1      38.911 -13.549  -2.305  1.00  0.00     0.117 A 
HETATM   20  C   UNL     1      39.552 -13.861  -1.115  1.00  0.00     0.033 A 
ENDBRANCH  13  15
ENDBRANCH   2   5
BRANCH   1  21
HETATM   21  N   UNL     1      40.887 -13.062   4.208  1.00  0.00    -0.291 N 
HETATM   22  H   UNL     1      40.345 -13.731   3.675  1.00  0.00     0.183 HD
BRANCH  21  23
HETATM   23  C   UNL     1      40.673 -12.909   5.554  1.00  0.00     0.182 C 
HETATM   24  N   UNL     1      40.457 -14.044   6.273  1.00  0.00    -0.362 N 
HETATM   25  H   UNL     1      40.293 -13.864   7.259  1.00  0.00     0.162 HD
HETATM   26  S   UNL     1      40.578 -11.453   6.368  1.00  0.00    -0.040 SA
BRANCH  24  27
HETATM   27  C   UNL     1      40.550 -15.444   5.892  1.00  0.00     0.160 C 
BRANCH  27  28
HETATM   28  C   UNL     1      41.850 -16.051   6.348  1.00  0.00    -0.041 A 
HETATM   29  C   UNL     1      43.007 -15.263   6.447  1.00  0.00     0.009 A 
HETATM   30  C   UNL     1      44.211 -15.823   6.879  1.00  0.00     0.001 A 
HETATM   31  C   UNL     1      44.274 -17.176   7.207  1.00  0.00     0.000 A 
HETATM   32  C   UNL     1      43.134 -17.971   7.104  1.00  0.00     0.001 A 
HETATM   33  C   UNL     1      41.928 -17.412   6.678  1.00  0.00     0.009 A 
ENDBRANCH  27  28
ENDBRANCH  24  27
ENDBRANCH  21  23
ENDBRANCH   1  21
TORSDOF 6
ENDMDL
MODEL 7
REMARK VINA RESULT:      -8.4      2.429      8.224
REMARK  6 active torsions:
REMARK  status: ('A' for Active; 'I' for Inactive)
REMARK    1  A    between atoms: C_4  and  C_5 
REMARK    2  A    between atoms: C_5  and  N_6 
REMARK    3  A    between atoms: C_7  and  N_8 
REMARK    4  A    between atoms: N_8  and  N_9 
REMARK       I    between atoms: N_9  and  C_10 
REMARK    5  A    between atoms: C_10  and  C_11 
REMARK    6  A    between atoms: C_19  and  C_20 
ROOT
HETATM    1  N   UNL     1      42.986 -13.460   5.218  1.00  0.00    -0.168 NA
HETATM    2  C   UNL     1      43.554 -14.124   4.141  1.00  0.00     0.250 C 
HETATM    3  O   UNL     1      44.559 -13.658   3.608  1.00  0.00    -0.272 OA
HETATM    4  H   UNL     1      43.457 -12.573   5.387  1.00  0.00     0.156 HD
ENDROOT
BRANCH   2   5
HETATM    5  C   UNL     1      42.873 -15.318   3.564  1.00  0.00     0.042 A 
HETATM    6  C   UNL     1      41.564 -15.195   3.028  1.00  0.00     0.008 A 
HETATM    7  C   UNL     1      41.003 -16.363   2.475  1.00  0.00     0.068 A 
HETATM    8  C   UNL     1      40.785 -14.007   3.013  1.00  0.00     0.015 A 
HETATM    9  C   UNL     1      39.731 -16.310   1.921  1.00  0.00     0.032 A 
HETATM   10  N   UNL     1      41.637 -17.545   2.460  1.00  0.00    -0.248 NA
HETATM   11  C   UNL     1      38.980 -15.133   1.900  1.00  0.00     0.002 A 
HETATM   12  C   UNL     1      39.508 -13.978   2.452  1.00  0.00     0.001 A 
HETATM   13  C   UNL     1      42.873 -17.647   2.997  1.00  0.00     0.069 A 
HETATM   14  C   UNL     1      43.533 -16.547   3.521  1.00  0.00     0.050 A 
BRANCH  13  15
HETATM   15  C   UNL     1      43.455 -19.000   2.991  1.00  0.00    -0.005 A 
HETATM   16  C   UNL     1      43.220 -19.878   1.923  1.00  0.00     0.033 A 
HETATM   17  C   UNL     1      43.768 -21.149   1.956  1.00  0.00     0.117 A 
HETATM   18  N   UNL     1      44.527 -21.614   2.970  1.00  0.00    -0.273 NA
HETATM   19  C   UNL     1      44.729 -20.772   4.003  1.00  0.00     0.117 A 
HETATM   20  C   UNL     1      44.227 -19.480   4.057  1.00  0.00     0.033 A 
ENDBRANCH  13  15
ENDBRANCH   2   5
BRANCH   1  21
HETATM   21  N   UNL     1      42.722 -14.164   6.410  1.00  0.00    -0.291 N 
HETATM   22  H   UNL     1      41.738 -14.322   6.593  1.00  0.00     0.183 HD
BRANCH  21  23
HETATM   23  C   UNL     1      43.674 -14.939   7.022  1.00  0.00     0.182 C 
HETATM   24  N   UNL     1      44.835 -14.321   7.373  1.00  0.00    -0.362 N 
HETATM   25  H   UNL     1      45.503 -14.949   7.808  1.00  0.00     0.162 HD
HETATM   26  S   UNL     1      43.564 -16.583   7.302  1.00  0.00    -0.040 SA
BRANCH  24  27
HETATM   27  C   UNL     1      45.212 -12.917   7.342  1.00  0.00     0.160 C 
BRANCH  27  28
HETATM   28  C   UNL     1      44.830 -12.220   8.620  1.00  0.00    -0.041 A 
HETATM   29  C   UNL     1      45.730 -12.157   9.694  1.00  0.00     0.009 A 
HETATM   30  C   UNL     1      45.379 -11.501  10.876  1.00  0.00     0.001 A 
HETATM   31  C   UNL     1      44.123 -10.911  11.000  1.00  0.00     0.000 A 
HETATM   32  C   UNL     1      43.217 -10.974   9.944  1.00  0.00     0.001 A 
HETATM   33  C   UNL     1      43.567 -11.623   8.759  1.00  0.00     0.009 A 
ENDBRANCH  27  28
ENDBRANCH  24  27
ENDBRANCH  21  23
ENDBRANCH   1  21
TORSDOF 6
ENDMDL
MODEL 8
REMARK VINA RESULT:      -8.2      3.345      7.543
REMARK  6 active torsions:
REMARK  status: ('A' for Active; 'I' for Inactive)
REMARK    1  A    between atoms: C_4  and  C_5 
REMARK    2  A    between atoms: C_5  and  N_6 
REMARK    3  A    between atoms: C_7  and  N_8 
REMARK    4  A    between atoms: N_8  and  N_9 
REMARK       I    between atoms: N_9  and  C_10 
REMARK    5  A    between atoms: C_10  and  C_11 
REMARK    6  A    between atoms: C_19  and  C_20 
ROOT
HETATM    1  N   UNL     1      41.694 -15.656   6.556  1.00  0.00    -0.168 NA
HETATM    2  C   UNL     1      41.030 -16.626   5.821  1.00  0.00     0.250 C 
HETATM    3  O   UNL     1      40.277 -17.409   6.396  1.00  0.00    -0.272 OA
HETATM    4  H   UNL     1      41.525 -15.778   7.554  1.00  0.00     0.156 HD
ENDROOT
BRANCH   2   5
HETATM    5  C   UNL     1      41.331 -16.791   4.369  1.00  0.00     0.042 A 
HETATM    6  C   UNL     1      42.313 -17.728   3.953  1.00  0.00     0.008 A 
HETATM    7  C   UNL     1      42.516 -17.845   2.564  1.00  0.00     0.068 A 
HETATM    8  C   UNL     1      43.100 -18.538   4.814  1.00  0.00     0.015 A 
HETATM    9  C   UNL     1      43.452 -18.752   2.087  1.00  0.00     0.032 A 
HETATM   10  N   UNL     1      41.849 -17.110   1.661  1.00  0.00    -0.248 NA
HETATM   11  C   UNL     1      44.210 -19.553   2.943  1.00  0.00     0.002 A 
HETATM   12  C   UNL     1      44.036 -19.443   4.312  1.00  0.00     0.001 A 
HETATM   13  C   UNL     1      40.934 -16.206   2.079  1.00  0.00     0.069 A 
HETATM   14  C   UNL     1      40.625 -16.049   3.421  1.00  0.00     0.050 A 
BRANCH  13  15
HETATM   15  C   UNL     1      40.307 -15.404   1.015  1.00  0.00    -0.005 A 
HETATM   16  C   UNL     1      40.868 -15.351  -0.269  1.00  0.00     0.033 A 
HETATM   17  C   UNL     1      40.262 -14.574  -1.243  1.00  0.00     0.117 A 
HETATM   18  N   UNL     1      39.146 -13.845  -1.036  1.00  0.00    -0.273 NA
HETATM   19  C   UNL     1      38.627 -13.884   0.208  1.00  0.00     0.117 A 
HETATM   20  C   UNL     1      39.158 -14.636   1.245  1.00  0.00     0.033 A 
ENDBRANCH  13  15
ENDBRANCH   2   5
BRANCH   1  21
HETATM   21  N   UNL     1      41.619 -14.306   6.158  1.00  0.00    -0.291 N 
HETATM   22  H   UNL     1      40.897 -13.772   6.625  1.00  0.00     0.183 HD
BRANCH  21  23
HETATM   23  C   UNL     1      42.673 -13.668   5.554  1.00  0.00     0.182 C 
HETATM   24  N   UNL     1      42.369 -12.784   4.566  1.00  0.00    -0.362 N 
HETATM   25  H   UNL     1      43.190 -12.354   4.151  1.00  0.00     0.162 HD
HETATM   26  S   UNL     1      44.291 -13.939   5.874  1.00  0.00    -0.040 SA
BRANCH  24  27
HETATM   27  C   UNL     1      41.087 -12.271   4.108  1.00  0.00     0.160 C 
BRANCH  27  28
HETATM   28  C   UNL     1      41.142 -11.874   2.658  1.00  0.00    -0.041 A 
HETATM   29  C   UNL     1      40.205 -10.973   2.130  1.00  0.00     0.009 A 
HETATM   30  C   UNL     1      40.262 -10.597   0.787  1.00  0.00     0.001 A 
HETATM   31  C   UNL     1      41.248 -11.123  -0.045  1.00  0.00     0.000 A 
HETATM   32  C   UNL     1      42.179 -12.025   0.465  1.00  0.00     0.001 A 
HETATM   33  C   UNL     1      42.129 -12.398   1.809  1.00  0.00     0.009 A 
ENDBRANCH  27  28
ENDBRANCH  24  27
ENDBRANCH  21  23
ENDBRANCH   1  21
TORSDOF 6
ENDMDL
MODEL 9
REMARK VINA RESULT:      -8.1      2.681      4.919
REMARK  6 active torsions:
REMARK  status: ('A' for Active; 'I' for Inactive)
REMARK    1  A    between atoms: C_4  and  C_5 
REMARK    2  A    between atoms: C_5  and  N_6 
REMARK    3  A    between atoms: C_7  and  N_8 
REMARK    4  A    between atoms: N_8  and  N_9 
REMARK       I    between atoms: N_9  and  C_10 
REMARK    5  A    between atoms: C_10  and  C_11 
REMARK    6  A    between atoms: C_19  and  C_20 
ROOT
HETATM    1  N   UNL     1      39.808 -13.936   0.655  1.00  0.00    -0.168 NA
HETATM    2  C   UNL     1      39.195 -14.384   1.816  1.00  0.00     0.250 C 
HETATM    3  O   UNL     1      38.142 -15.012   1.737  1.00  0.00    -0.272 OA
HETATM    4  H   UNL     1      39.226 -14.126  -0.159  1.00  0.00     0.156 HD
ENDROOT
BRANCH   2   5
HETATM    5  C   UNL     1      39.749 -13.993   3.144  1.00  0.00     0.042 A 
HETATM    6  C   UNL     1      39.443 -12.718   3.690  1.00  0.00     0.008 A 
HETATM    7  C   UNL     1      39.980 -12.438   4.962  1.00  0.00     0.068 A 
HETATM    8  C   UNL     1      38.658 -11.715   3.059  1.00  0.00     0.015 A 
HETATM    9  C   UNL     1      39.710 -11.214   5.559  1.00  0.00     0.032 A 
HETATM   10  N   UNL     1      40.757 -13.299   5.635  1.00  0.00    -0.248 NA
HETATM   11  C   UNL     1      38.925 -10.242   4.936  1.00  0.00     0.002 A 
HETATM   12  C   UNL     1      38.400 -10.493   3.679  1.00  0.00     0.001 A 
HETATM   13  C   UNL     1      41.055 -14.499   5.089  1.00  0.00     0.069 A 
HETATM   14  C   UNL     1      40.538 -14.891   3.865  1.00  0.00     0.050 A 
BRANCH  13  15
HETATM   15  C   UNL     1      41.969 -15.343   5.877  1.00  0.00    -0.005 A 
HETATM   16  C   UNL     1      41.533 -16.559   6.421  1.00  0.00     0.033 A 
HETATM   17  C   UNL     1      42.413 -17.322   7.171  1.00  0.00     0.117 A 
HETATM   18  N   UNL     1      43.688 -16.965   7.425  1.00  0.00    -0.273 NA
HETATM   19  C   UNL     1      44.093 -15.784   6.918  1.00  0.00     0.117 A 
HETATM   20  C   UNL     1      43.288 -14.955   6.150  1.00  0.00     0.033 A 
ENDBRANCH  13  15
ENDBRANCH   2   5
BRANCH   1  21
HETATM   21  N   UNL     1      41.167 -14.230   0.426  1.00  0.00    -0.291 N 
HETATM   22  H   UNL     1      41.809 -13.743   1.039  1.00  0.00     0.183 HD
BRANCH  21  23
HETATM   23  C   UNL     1      41.562 -15.368  -0.229  1.00  0.00     0.182 C 
HETATM   24  N   UNL     1      42.457 -16.167   0.413  1.00  0.00    -0.362 N 
HETATM   25  H   UNL     1      42.720 -16.985  -0.127  1.00  0.00     0.162 HD
HETATM   26  S   UNL     1      41.101 -15.817  -1.772  1.00  0.00    -0.040 SA
BRANCH  24  27
HETATM   27  C   UNL     1      42.986 -16.107   1.767  1.00  0.00     0.160 C 
BRANCH  27  28
HETATM   28  C   UNL     1      43.361 -17.475   2.270  1.00  0.00    -0.041 A 
HETATM   29  C   UNL     1      43.339 -18.581   1.408  1.00  0.00     0.009 A 
HETATM   30  C   UNL     1      43.696 -19.849   1.871  1.00  0.00     0.001 A 
HETATM   31  C   UNL     1      44.070 -20.026   3.202  1.00  0.00     0.000 A 
HETATM   32  C   UNL     1      44.088 -18.937   4.071  1.00  0.00     0.001 A 
HETATM   33  C   UNL     1      43.737 -17.667   3.608  1.00  0.00     0.009 A 
ENDBRANCH  27  28
ENDBRANCH  24  27
ENDBRANCH  21  23
ENDBRANCH   1  21
TORSDOF 6
ENDMDL
MODEL 10
REMARK VINA RESULT:      -8.1      3.600      5.969
REMARK  6 active torsions:
REMARK  status: ('A' for Active; 'I' for Inactive)
REMARK    1  A    between atoms: C_4  and  C_5 
REMARK    2  A    between atoms: C_5  and  N_6 
REMARK    3  A    between atoms: C_7  and  N_8 
REMARK    4  A    between atoms: N_8  and  N_9 
REMARK       I    between atoms: N_9  and  C_10 
REMARK    5  A    between atoms: C_10  and  C_11 
REMARK    6  A    between atoms: C_19  and  C_20 
ROOT
HETATM    1  N   UNL     1      40.806 -16.427   0.558  1.00  0.00    -0.168 NA
HETATM    2  C   UNL     1      41.079 -17.621   1.206  1.00  0.00     0.250 C 
HETATM    3  O   UNL     1      40.410 -18.618   0.941  1.00  0.00    -0.272 OA
HETATM    4  H   UNL     1      39.979 -16.514  -0.031  1.00  0.00     0.156 HD
ENDROOT
BRANCH   2   5
HETATM    5  C   UNL     1      42.090 -17.656   2.302  1.00  0.00     0.042 A 
HETATM    6  C   UNL     1      42.916 -18.799   2.466  1.00  0.00     0.008 A 
HETATM    7  C   UNL     1      43.865 -18.741   3.505  1.00  0.00     0.068 A 
HETATM    8  C   UNL     1      42.854 -19.983   1.682  1.00  0.00     0.015 A 
HETATM    9  C   UNL     1      44.714 -19.820   3.712  1.00  0.00     0.032 A 
HETATM   10  N   UNL     1      43.992 -17.686   4.323  1.00  0.00    -0.248 NA
HETATM   11  C   UNL     1      44.653 -20.972   2.926  1.00  0.00     0.002 A 
HETATM   12  C   UNL     1      43.717 -21.055   1.909  1.00  0.00     0.001 A 
HETATM   13  C   UNL     1      43.181 -16.616   4.166  1.00  0.00     0.069 A 
HETATM   14  C   UNL     1      42.247 -16.554   3.144  1.00  0.00     0.050 A 
BRANCH  13  15
HETATM   15  C   UNL     1      43.354 -15.540   5.156  1.00  0.00    -0.005 A 
HETATM   16  C   UNL     1      42.710 -14.305   4.995  1.00  0.00     0.033 A 
HETATM   17  C   UNL     1      42.907 -13.308   5.937  1.00  0.00     0.117 A 
HETATM   18  N   UNL     1      43.698 -13.444   7.020  1.00  0.00    -0.273 NA
HETATM   19  C   UNL     1      44.332 -14.627   7.156  1.00  0.00     0.117 A 
HETATM   20  C   UNL     1      44.192 -15.685   6.270  1.00  0.00     0.033 A 
ENDBRANCH  13  15
ENDBRANCH   2   5
BRANCH   1  21
HETATM   21  N   UNL     1      41.849 -15.724  -0.078  1.00  0.00    -0.291 N 
HETATM   22  H   UNL     1      42.398 -16.282  -0.720  1.00  0.00     0.183 HD
BRANCH  21  23
HETATM   23  C   UNL     1      41.850 -14.355  -0.173  1.00  0.00     0.182 C 
HETATM   24  N   UNL     1      41.893 -13.827  -1.426  1.00  0.00    -0.362 N 
HETATM   25  H   UNL     1      41.904 -12.812  -1.430  1.00  0.00     0.162 HD
HETATM   26  S   UNL     1      41.880 -13.288   1.113  1.00  0.00    -0.040 SA
BRANCH  24  27
HETATM   27  C   UNL     1      41.797 -14.464  -2.731  1.00  0.00     0.160 C 
BRANCH  27  28
HETATM   28  C   UNL     1      40.363 -14.691  -3.125  1.00  0.00    -0.041 A 
HETATM   29  C   UNL     1      39.432 -13.643  -3.060  1.00  0.00     0.009 A 
HETATM   30  C   UNL     1      38.103 -13.851  -3.436  1.00  0.00     0.001 A 
HETATM   31  C   UNL     1      37.689 -15.108  -3.870  1.00  0.00     0.000 A 
HETATM   32  C   UNL     1      38.601 -16.159  -3.931  1.00  0.00     0.001 A 
HETATM   33  C   UNL     1      39.932 -15.952  -3.562  1.00  0.00     0.009 A 
ENDBRANCH  27  28
ENDBRANCH  24  27
ENDBRANCH  21  23
ENDBRANCH   1  21
TORSDOF 6
ENDMDL
