MODEL 1
REMARK VINA RESULT:      -8.5      0.000      0.000
REMARK  9 active torsions:
REMARK  status: ('A' for Active; 'I' for Inactive)
REMARK    1  A    between atoms: C_2  and  O_3 
REMARK    2  A    between atoms: O_3  and  C_4 
REMARK    3  A    between atoms: C_4  and  C_5 
REMARK    4  A    between atoms: C_8  and  N_9 
REMARK       I    between atoms: N_9  and  C_10 
REMARK    5  A    between atoms: C_10  and  C_11 
REMARK    6  A    between atoms: C_11  and  C_12 
REMARK    7  A    between atoms: N_13  and  C_14 
REMARK    8  A    between atoms: C_14  and  C_15 
REMARK    9  A    between atoms: N_23  and  C_24 
ROOT
HETATM    1  C   UNL     1      41.652 -13.038   2.110  1.00  0.00     0.191 A 
HETATM    2  N   UNL     1      40.373 -13.223   2.763  1.00  0.00    -0.315 N 
HETATM    3  C   UNL     1      40.468 -14.009   3.904  1.00  0.00     0.333 A 
HETATM    4  O   UNL     1      39.492 -14.294   4.584  1.00  0.00    -0.246 OA
HETATM    5  N   UNL     1      41.785 -14.375   4.081  1.00  0.00    -0.232 N 
HETATM    6  C   UNL     1      42.552 -13.803   3.086  1.00  0.00     0.256 A 
HETATM    7  O   UNL     1      43.770 -13.846   2.935  1.00  0.00    -0.270 OA
ENDROOT
BRANCH   1   8
HETATM    8  C   UNL     1      41.830 -13.668   0.733  1.00  0.00     0.138 C 
BRANCH   8   9
HETATM    9  C   UNL     1      40.803 -14.706   0.382  1.00  0.00     0.224 C 
HETATM   10  N   UNL     1      40.956 -16.036   0.597  1.00  0.00    -0.327 N 
HETATM   11  H   UNL     1      40.198 -16.538   0.145  1.00  0.00     0.169 HD
HETATM   12  O   UNL     1      39.769 -14.356  -0.199  1.00  0.00    -0.273 OA
BRANCH  10  13
HETATM   13  C   UNL     1      41.868 -16.848   1.287  1.00  0.00     0.034 A 
HETATM   14  C   UNL     1      43.230 -16.960   1.021  1.00  0.00     0.030 A 
HETATM   15  C   UNL     1      44.043 -17.775   1.827  1.00  0.00     0.020 A 
HETATM   16  C   UNL     1      43.506 -18.485   2.909  1.00  0.00     0.039 A 
HETATM   17  C   UNL     1      42.139 -18.380   3.172  1.00  0.00     0.020 A 
HETATM   18  C   UNL     1      41.336 -17.562   2.373  1.00  0.00     0.030 A 
BRANCH  16  19
HETATM   19  C   UNL     1      44.418 -19.300   3.759  1.00  0.00     0.293 C 
HETATM   20  O   UNL     1      44.527 -19.151   4.965  1.00  0.00    -0.259 OA
BRANCH  19  21
HETATM   21  O   UNL     1      45.063 -20.224   3.004  1.00  0.00    -0.318 OA
BRANCH  21  22
HETATM   22  C   UNL     1      44.492 -21.541   2.992  1.00  0.00     0.174 C 
HETATM   23  C   UNL     1      43.979 -21.888   1.609  1.00  0.00     0.034 C 
ENDBRANCH  21  22
ENDBRANCH  19  21
ENDBRANCH  16  19
ENDBRANCH  10  13
ENDBRANCH   8   9
ENDBRANCH   1   8
BRANCH   2  24
HETATM   24  C   UNL     1      39.120 -12.608   2.346  1.00  0.00     0.168 C 
BRANCH  24  25
HETATM   25  C   UNL     1      38.906 -11.216   2.874  1.00  0.00    -0.023 A 
HETATM   26  C   UNL     1      38.431 -11.032   4.170  1.00  0.00     0.125 A 
HETATM   27  N   UNL     1      38.215  -9.825   4.741  1.00  0.00    -0.273 NA
HETATM   28  C   UNL     1      38.517  -8.742   3.995  1.00  0.00     0.116 A 
HETATM   29  C   UNL     1      39.027  -8.810   2.711  1.00  0.00     0.020 A 
HETATM   30  C   UNL     1      39.234 -10.067   2.149  1.00  0.00     0.012 A 
ENDBRANCH  24  25
ENDBRANCH   2  24
BRANCH   5  31
HETATM   31  C   UNL     1      42.264 -15.224   5.125  1.00  0.00     0.047 A 
HETATM   32  C   UNL     1      43.583 -15.133   5.600  1.00  0.00     0.031 A 
HETATM   33  C   UNL     1      44.046 -15.932   6.653  1.00  0.00     0.009 A 
HETATM   34  C   UNL     1      43.203 -16.858   7.265  1.00  0.00    -0.062 A 
HETATM   35  C   UNL     1      43.683 -17.669   8.430  1.00  0.00     0.048 C 
HETATM   36  C   UNL     1      41.888 -16.961   6.810  1.00  0.00     0.009 A 
HETATM   37  C   UNL     1      41.430 -16.164   5.750  1.00  0.00     0.031 A 
ENDBRANCH   5  31
TORSDOF 9
ENDMDL
MODEL 2
REMARK VINA RESULT:      -8.5      2.795      6.528
REMARK  9 active torsions:
REMARK  status: ('A' for Active; 'I' for Inactive)
REMARK    1  A    between atoms: C_2  and  O_3 
REMARK    2  A    between atoms: O_3  and  C_4 
REMARK    3  A    between atoms: C_4  and  C_5 
REMARK    4  A    between atoms: C_8  and  N_9 
REMARK       I    between atoms: N_9  and  C_10 
REMARK    5  A    between atoms: C_10  and  C_11 
REMARK    6  A    between atoms: C_11  and  C_12 
REMARK    7  A    between atoms: N_13  and  C_14 
REMARK    8  A    between atoms: C_14  and  C_15 
REMARK    9  A    between atoms: N_23  and  C_24 
ROOT
HETATM    1  C   UNL     1      43.257 -14.542   4.331  1.00  0.00     0.191 A 
HETATM    2  N   UNL     1      43.284 -15.229   5.606  1.00  0.00    -0.315 N 
HETATM    3  C   UNL     1      43.462 -16.598   5.468  1.00  0.00     0.333 A 
HETATM    4  O   UNL     1      43.495 -17.353   6.429  1.00  0.00    -0.246 OA
HETATM    5  N   UNL     1      43.575 -16.897   4.127  1.00  0.00    -0.232 N 
HETATM    6  C   UNL     1      43.508 -15.729   3.395  1.00  0.00     0.256 A 
HETATM    7  O   UNL     1      43.626 -15.574   2.182  1.00  0.00    -0.270 OA
ENDROOT
BRANCH   1   8
HETATM    8  C   UNL     1      41.940 -13.899   3.913  1.00  0.00     0.138 C 
BRANCH   8   9
HETATM    9  C   UNL     1      40.758 -14.825   3.929  1.00  0.00     0.224 C 
HETATM   10  N   UNL     1      40.116 -15.265   2.819  1.00  0.00    -0.327 N 
HETATM   11  H   UNL     1      39.269 -15.755   3.093  1.00  0.00     0.169 HD
HETATM   12  O   UNL     1      40.282 -15.172   5.016  1.00  0.00    -0.273 OA
BRANCH  10  13
HETATM   13  C   UNL     1      40.348 -15.223   1.436  1.00  0.00     0.034 A 
HETATM   14  C   UNL     1      41.015 -16.191   0.688  1.00  0.00     0.030 A 
HETATM   15  C   UNL     1      41.134 -16.050  -0.705  1.00  0.00     0.020 A 
HETATM   16  C   UNL     1      40.584 -14.944  -1.368  1.00  0.00     0.039 A 
HETATM   17  C   UNL     1      39.922 -13.970  -0.618  1.00  0.00     0.020 A 
HETATM   18  C   UNL     1      39.801 -14.118   0.766  1.00  0.00     0.030 A 
BRANCH  16  19
HETATM   19  C   UNL     1      40.698 -14.864  -2.850  1.00  0.00     0.293 C 
HETATM   20  O   UNL     1      41.709 -15.161  -3.465  1.00  0.00    -0.259 OA
BRANCH  19  21
HETATM   21  O   UNL     1      39.524 -14.449  -3.390  1.00  0.00    -0.318 OA
BRANCH  21  22
HETATM   22  C   UNL     1      38.645 -15.482  -3.859  1.00  0.00     0.174 C 
HETATM   23  C   UNL     1      37.198 -15.039  -3.756  1.00  0.00     0.034 C 
ENDBRANCH  21  22
ENDBRANCH  19  21
ENDBRANCH  16  19
ENDBRANCH  10  13
ENDBRANCH   8   9
ENDBRANCH   1   8
BRANCH   2  24
HETATM   24  C   UNL     1      43.213 -14.582   6.910  1.00  0.00     0.168 C 
BRANCH  24  25
HETATM   25  C   UNL     1      44.442 -13.798   7.282  1.00  0.00    -0.023 A 
HETATM   26  C   UNL     1      45.533 -13.770   6.417  1.00  0.00     0.125 A 
HETATM   27  N   UNL     1      46.678 -13.090   6.653  1.00  0.00    -0.273 NA
HETATM   28  C   UNL     1      46.729 -12.373   7.796  1.00  0.00     0.116 A 
HETATM   29  C   UNL     1      45.690 -12.303   8.707  1.00  0.00     0.020 A 
HETATM   30  C   UNL     1      44.527 -13.017   8.438  1.00  0.00     0.012 A 
ENDBRANCH  24  25
ENDBRANCH   2  24
BRANCH   5  31
HETATM   31  C   UNL     1      43.723 -18.213   3.592  1.00  0.00     0.047 A 
HETATM   32  C   UNL     1      42.979 -18.644   2.482  1.00  0.00     0.031 A 
HETATM   33  C   UNL     1      43.150 -19.918   1.926  1.00  0.00     0.009 A 
HETATM   34  C   UNL     1      44.070 -20.811   2.470  1.00  0.00    -0.062 A 
HETATM   35  C   UNL     1      44.295 -22.152   1.838  1.00  0.00     0.048 C 
HETATM   36  C   UNL     1      44.822 -20.402   3.572  1.00  0.00     0.009 A 
HETATM   37  C   UNL     1      44.643 -19.127   4.130  1.00  0.00     0.031 A 
ENDBRANCH   5  31
TORSDOF 9
ENDMDL
MODEL 3
REMARK VINA RESULT:      -8.4      2.431      6.845
REMARK  9 active torsions:
REMARK  status: ('A' for Active; 'I' for Inactive)
REMARK    1  A    between atoms: C_2  and  O_3 
REMARK    2  A    between atoms: O_3  and  C_4 
REMARK    3  A    between atoms: C_4  and  C_5 
REMARK    4  A    between atoms: C_8  and  N_9 
REMARK       I    between atoms: N_9  and  C_10 
REMARK    5  A    between atoms: C_10  and  C_11 
REMARK    6  A    between atoms: C_11  and  C_12 
REMARK    7  A    between atoms: N_13  and  C_14 
REMARK    8  A    between atoms: C_14  and  C_15 
REMARK    9  A    between atoms: N_23  and  C_24 
ROOT
HETATM    1  C   UNL     1      40.477 -13.307   2.976  1.00  0.00     0.191 A 
HETATM    2  N   UNL     1      41.480 -13.893   2.111  1.00  0.00    -0.315 N 
HETATM    3  C   UNL     1      41.159 -13.769   0.766  1.00  0.00     0.333 A 
HETATM    4  O   UNL     1      41.874 -14.216  -0.120  1.00  0.00    -0.246 OA
HETATM    5  N   UNL     1      39.959 -13.099   0.657  1.00  0.00    -0.232 N 
HETATM    6  C   UNL     1      39.516 -12.754   1.918  1.00  0.00     0.256 A 
HETATM    7  O   UNL     1      38.523 -12.104   2.232  1.00  0.00    -0.270 OA
ENDROOT
BRANCH   1   8
HETATM    8  C   UNL     1      39.682 -14.257   3.865  1.00  0.00     0.138 C 
BRANCH   8   9
HETATM    9  C   UNL     1      39.783 -13.971   5.336  1.00  0.00     0.224 C 
HETATM   10  N   UNL     1      40.500 -14.716   6.212  1.00  0.00    -0.327 N 
HETATM   11  H   UNL     1      40.294 -14.412   7.159  1.00  0.00     0.169 HD
HETATM   12  O   UNL     1      39.127 -13.037   5.812  1.00  0.00    -0.273 OA
BRANCH  10  13
HETATM   13  C   UNL     1      41.440 -15.753   6.121  1.00  0.00     0.034 A 
HETATM   14  C   UNL     1      41.154 -17.105   5.947  1.00  0.00     0.030 A 
HETATM   15  C   UNL     1      42.197 -18.038   5.819  1.00  0.00     0.020 A 
HETATM   16  C   UNL     1      43.538 -17.632   5.861  1.00  0.00     0.039 A 
HETATM   17  C   UNL     1      43.826 -16.278   6.043  1.00  0.00     0.020 A 
HETATM   18  C   UNL     1      42.785 -15.353   6.162  1.00  0.00     0.030 A 
BRANCH  16  19
HETATM   19  C   UNL     1      44.605 -18.653   5.676  1.00  0.00     0.293 C 
HETATM   20  O   UNL     1      45.781 -18.450   5.927  1.00  0.00    -0.259 OA
BRANCH  19  21
HETATM   21  O   UNL     1      44.070 -19.817   5.229  1.00  0.00    -0.318 OA
BRANCH  21  22
HETATM   22  C   UNL     1      44.960 -20.689   4.516  1.00  0.00     0.174 C 
HETATM   23  C   UNL     1      44.876 -22.101   5.064  1.00  0.00     0.034 C 
ENDBRANCH  21  22
ENDBRANCH  19  21
ENDBRANCH  16  19
ENDBRANCH  10  13
ENDBRANCH   8   9
ENDBRANCH   1   8
BRANCH   2  24
HETATM   24  C   UNL     1      42.734 -14.484   2.560  1.00  0.00     0.168 C 
BRANCH  24  25
HETATM   25  C   UNL     1      42.815 -15.976   2.385  1.00  0.00    -0.023 A 
HETATM   26  C   UNL     1      41.648 -16.737   2.378  1.00  0.00     0.125 A 
HETATM   27  N   UNL     1      41.612 -18.079   2.218  1.00  0.00    -0.273 NA
HETATM   28  C   UNL     1      42.797 -18.696   2.023  1.00  0.00     0.116 A 
HETATM   29  C   UNL     1      44.011 -18.033   1.976  1.00  0.00     0.020 A 
HETATM   30  C   UNL     1      44.015 -16.652   2.149  1.00  0.00     0.012 A 
ENDBRANCH  24  25
ENDBRANCH   2  24
BRANCH   5  31
HETATM   31  C   UNL     1      39.286 -12.824  -0.572  1.00  0.00     0.047 A 
HETATM   32  C   UNL     1      38.490 -13.793  -1.206  1.00  0.00     0.031 A 
HETATM   33  C   UNL     1      37.792 -13.517  -2.389  1.00  0.00     0.009 A 
HETATM   34  C   UNL     1      37.873 -12.260  -2.983  1.00  0.00    -0.062 A 
HETATM   35  C   UNL     1      37.078 -11.948  -4.215  1.00  0.00     0.048 C 
HETATM   36  C   UNL     1      38.655 -11.282  -2.367  1.00  0.00     0.009 A 
HETATM   37  C   UNL     1      39.359 -11.565  -1.187  1.00  0.00     0.031 A 
ENDBRANCH   5  31
TORSDOF 9
ENDMDL
MODEL 4
REMARK VINA RESULT:      -8.3      3.009      6.299
REMARK  9 active torsions:
REMARK  status: ('A' for Active; 'I' for Inactive)
REMARK    1  A    between atoms: C_2  and  O_3 
REMARK    2  A    between atoms: O_3  and  C_4 
REMARK    3  A    between atoms: C_4  and  C_5 
REMARK    4  A    between atoms: C_8  and  N_9 
REMARK       I    between atoms: N_9  and  C_10 
REMARK    5  A    between atoms: C_10  and  C_11 
REMARK    6  A    between atoms: C_11  and  C_12 
REMARK    7  A    between atoms: N_13  and  C_14 
REMARK    8  A    between atoms: C_14  and  C_15 
REMARK    9  A    between atoms: N_23  and  C_24 
ROOT
HETATM    1  C   UNL     1      42.226 -15.146   3.051  1.00  0.00     0.191 A 
HETATM    2  N   UNL     1      41.512 -15.746   4.159  1.00  0.00    -0.315 N 
HETATM    3  C   UNL     1      41.855 -17.077   4.353  1.00  0.00     0.333 A 
HETATM    4  O   UNL     1      41.346 -17.761   5.230  1.00  0.00    -0.246 OA
HETATM    5  N   UNL     1      42.802 -17.431   3.416  1.00  0.00    -0.232 N 
HETATM    6  C   UNL     1      43.106 -16.332   2.640  1.00  0.00     0.256 A 
HETATM    7  O   UNL     1      43.939 -16.230   1.743  1.00  0.00    -0.270 OA
ENDROOT
BRANCH   1   8
HETATM    8  C   UNL     1      41.407 -14.739   1.831  1.00  0.00     0.138 C 
BRANCH   8   9
HETATM    9  C   UNL     1      41.891 -13.500   1.135  1.00  0.00     0.224 C 
HETATM   10  N   UNL     1      41.666 -13.220  -0.172  1.00  0.00    -0.327 N 
HETATM   11  H   UNL     1      42.214 -12.408  -0.440  1.00  0.00     0.169 HD
HETATM   12  O   UNL     1      42.599 -12.700   1.758  1.00  0.00    -0.273 OA
BRANCH  10  13
HETATM   13  C   UNL     1      40.868 -13.753  -1.195  1.00  0.00     0.034 A 
HETATM   14  C   UNL     1      41.315 -14.531  -2.260  1.00  0.00     0.030 A 
HETATM   15  C   UNL     1      40.398 -15.048  -3.192  1.00  0.00     0.020 A 
HETATM   16  C   UNL     1      39.025 -14.796  -3.069  1.00  0.00     0.039 A 
HETATM   17  C   UNL     1      38.577 -14.010  -2.006  1.00  0.00     0.020 A 
HETATM   18  C   UNL     1      39.492 -13.505  -1.078  1.00  0.00     0.030 A 
BRANCH  16  19
HETATM   19  C   UNL     1      38.091 -15.403  -4.056  1.00  0.00     0.293 C 
HETATM   20  O   UNL     1      38.449 -16.149  -4.952  1.00  0.00    -0.259 OA
BRANCH  19  21
HETATM   21  O   UNL     1      36.815 -15.028  -3.788  1.00  0.00    -0.318 OA
BRANCH  21  22
HETATM   22  C   UNL     1      36.144 -14.287  -4.819  1.00  0.00     0.174 C 
HETATM   23  C   UNL     1      35.965 -12.839  -4.405  1.00  0.00     0.034 C 
ENDBRANCH  21  22
ENDBRANCH  19  21
ENDBRANCH  16  19
ENDBRANCH  10  13
ENDBRANCH   8   9
ENDBRANCH   1   8
BRANCH   2  24
HETATM   24  C   UNL     1      40.591 -15.043   5.043  1.00  0.00     0.168 C 
BRANCH  24  25
HETATM   25  C   UNL     1      40.633 -13.545   4.920  1.00  0.00    -0.023 A 
HETATM   26  C   UNL     1      39.611 -12.876   4.251  1.00  0.00     0.125 A 
HETATM   27  N   UNL     1      39.550 -11.534   4.095  1.00  0.00    -0.273 NA
HETATM   28  C   UNL     1      40.543 -10.815   4.661  1.00  0.00     0.116 A 
HETATM   29  C   UNL     1      41.586 -11.375   5.377  1.00  0.00     0.020 A 
HETATM   30  C   UNL     1      41.623 -12.759   5.516  1.00  0.00     0.012 A 
ENDBRANCH  24  25
ENDBRANCH   2  24
BRANCH   5  31
HETATM   31  C   UNL     1      43.362 -18.738   3.275  1.00  0.00     0.047 A 
HETATM   32  C   UNL     1      44.199 -19.289   4.259  1.00  0.00     0.031 A 
HETATM   33  C   UNL     1      44.717 -20.586   4.148  1.00  0.00     0.009 A 
HETATM   34  C   UNL     1      44.418 -21.376   3.039  1.00  0.00    -0.062 A 
HETATM   35  C   UNL     1      44.924 -22.784   2.951  1.00  0.00     0.048 C 
HETATM   36  C   UNL     1      43.586 -20.848   2.052  1.00  0.00     0.009 A 
HETATM   37  C   UNL     1      43.075 -19.546   2.164  1.00  0.00     0.031 A 
ENDBRANCH   5  31
TORSDOF 9
ENDMDL
MODEL 5
REMARK VINA RESULT:      -8.3      4.978      9.815
REMARK  9 active torsions:
REMARK  status: ('A' for Active; 'I' for Inactive)
REMARK    1  A    between atoms: C_2  and  O_3 
REMARK    2  A    between atoms: O_3  and  C_4 
REMARK    3  A    between atoms: C_4  and  C_5 
REMARK    4  A    between atoms: C_8  and  N_9 
REMARK       I    between atoms: N_9  and  C_10 
REMARK    5  A    between atoms: C_10  and  C_11 
REMARK    6  A    between atoms: C_11  and  C_12 
REMARK    7  A    between atoms: N_13  and  C_14 
REMARK    8  A    between atoms: C_14  and  C_15 
REMARK    9  A    between atoms: N_23  and  C_24 
ROOT
HETATM    1  C   UNL     1      43.941 -15.480   6.189  1.00  0.00     0.191 A 
HETATM    2  N   UNL     1      43.205 -16.720   6.325  1.00  0.00    -0.315 N 
HETATM    3  C   UNL     1      42.099 -16.776   5.488  1.00  0.00     0.333 A 
HETATM    4  O   UNL     1      41.343 -17.737   5.469  1.00  0.00    -0.246 OA
HETATM    5  N   UNL     1      42.040 -15.611   4.754  1.00  0.00    -0.232 N 
HETATM    6  C   UNL     1      43.118 -14.814   5.080  1.00  0.00     0.256 A 
HETATM    7  O   UNL     1      43.446 -13.731   4.604  1.00  0.00    -0.270 OA
ENDROOT
BRANCH   1   8
HETATM    8  C   UNL     1      43.943 -14.536   7.387  1.00  0.00     0.138 C 
BRANCH   8   9
HETATM    9  C   UNL     1      45.096 -13.576   7.426  1.00  0.00     0.224 C 
HETATM   10  N   UNL     1      45.157 -12.487   8.230  1.00  0.00    -0.327 N 
HETATM   11  H   UNL     1      45.960 -11.921   7.969  1.00  0.00     0.169 HD
HETATM   12  O   UNL     1      46.035 -13.733   6.636  1.00  0.00    -0.273 OA
BRANCH  10  13
HETATM   13  C   UNL     1      44.415 -11.987   9.310  1.00  0.00     0.034 A 
HETATM   14  C   UNL     1      44.710 -12.166  10.659  1.00  0.00     0.030 A 
HETATM   15  C   UNL     1      43.907 -11.564  11.644  1.00  0.00     0.020 A 
HETATM   16  C   UNL     1      42.804 -10.775  11.292  1.00  0.00     0.039 A 
HETATM   17  C   UNL     1      42.503 -10.601   9.940  1.00  0.00     0.020 A 
HETATM   18  C   UNL     1      43.308 -11.195   8.965  1.00  0.00     0.030 A 
BRANCH  16  19
HETATM   19  C   UNL     1      42.012 -10.123  12.372  1.00  0.00     0.293 C 
HETATM   20  O   UNL     1      41.061  -9.390  12.160  1.00  0.00    -0.259 OA
BRANCH  19  21
HETATM   21  O   UNL     1      42.487 -10.490  13.589  1.00  0.00    -0.318 OA
BRANCH  21  22
HETATM   22  C   UNL     1      42.801  -9.420  14.494  1.00  0.00     0.174 C 
HETATM   23  C   UNL     1      41.956  -9.518  15.749  1.00  0.00     0.034 C 
ENDBRANCH  21  22
ENDBRANCH  19  21
ENDBRANCH  16  19
ENDBRANCH  10  13
ENDBRANCH   8   9
ENDBRANCH   1   8
BRANCH   2  24
HETATM   24  C   UNL     1      43.595 -17.838   7.174  1.00  0.00     0.168 C 
BRANCH  24  25
HETATM   25  C   UNL     1      43.999 -19.077   6.424  1.00  0.00    -0.023 A 
HETATM   26  C   UNL     1      44.781 -18.968   5.276  1.00  0.00     0.125 A 
HETATM   27  N   UNL     1      45.204 -20.018   4.537  1.00  0.00    -0.273 NA
HETATM   28  C   UNL     1      44.859 -21.246   4.979  1.00  0.00     0.116 A 
HETATM   29  C   UNL     1      44.115 -21.470   6.124  1.00  0.00     0.020 A 
HETATM   30  C   UNL     1      43.690 -20.368   6.861  1.00  0.00     0.012 A 
ENDBRANCH  24  25
ENDBRANCH   2  24
BRANCH   5  31
HETATM   31  C   UNL     1      41.011 -15.287   3.818  1.00  0.00     0.047 A 
HETATM   32  C   UNL     1      40.129 -14.216   4.037  1.00  0.00     0.031 A 
HETATM   33  C   UNL     1      39.145 -13.865   3.103  1.00  0.00     0.009 A 
HETATM   34  C   UNL     1      39.007 -14.582   1.916  1.00  0.00    -0.062 A 
HETATM   35  C   UNL     1      37.993 -14.168   0.892  1.00  0.00     0.048 C 
HETATM   36  C   UNL     1      39.876 -15.648   1.677  1.00  0.00     0.009 A 
HETATM   37  C   UNL     1      40.855 -16.000   2.619  1.00  0.00     0.031 A 
ENDBRANCH   5  31
TORSDOF 9
ENDMDL
MODEL 6
REMARK VINA RESULT:      -8.1      0.711      1.350
REMARK  9 active torsions:
REMARK  status: ('A' for Active; 'I' for Inactive)
REMARK    1  A    between atoms: C_2  and  O_3 
REMARK    2  A    between atoms: O_3  and  C_4 
REMARK    3  A    between atoms: C_4  and  C_5 
REMARK    4  A    between atoms: C_8  and  N_9 
REMARK       I    between atoms: N_9  and  C_10 
REMARK    5  A    between atoms: C_10  and  C_11 
REMARK    6  A    between atoms: C_11  and  C_12 
REMARK    7  A    between atoms: N_13  and  C_14 
REMARK    8  A    between atoms: C_14  and  C_15 
REMARK    9  A    between atoms: N_23  and  C_24 
ROOT
HETATM    1  C   UNL     1      41.755 -12.772   2.828  1.00  0.00     0.191 A 
HETATM    2  N   UNL     1      40.470 -13.150   3.379  1.00  0.00    -0.315 N 
HETATM    3  C   UNL     1      40.586 -14.062   4.420  1.00  0.00     0.333 A 
HETATM    4  O   UNL     1      39.611 -14.514   5.003  1.00  0.00    -0.246 OA
HETATM    5  N   UNL     1      41.922 -14.330   4.626  1.00  0.00    -0.232 N 
HETATM    6  C   UNL     1      42.677 -13.573   3.754  1.00  0.00     0.256 A 
HETATM    7  O   UNL     1      43.899 -13.490   3.669  1.00  0.00    -0.270 OA
ENDROOT
BRANCH   1   8
HETATM    8  C   UNL     1      42.055 -13.206   1.398  1.00  0.00     0.138 C 
BRANCH   8   9
HETATM    9  C   UNL     1      41.053 -14.157   0.809  1.00  0.00     0.224 C 
HETATM   10  N   UNL     1      41.109 -15.505   0.942  1.00  0.00    -0.327 N 
HETATM   11  H   UNL     1      40.412 -15.931   0.338  1.00  0.00     0.169 HD
HETATM   12  O   UNL     1      40.145 -13.709   0.099  1.00  0.00    -0.273 OA
BRANCH  10  13
HETATM   13  C   UNL     1      41.858 -16.413   1.705  1.00  0.00     0.034 A 
HETATM   14  C   UNL     1      41.365 -17.237   2.714  1.00  0.00     0.030 A 
HETATM   15  C   UNL     1      42.219 -18.143   3.367  1.00  0.00     0.020 A 
HETATM   16  C   UNL     1      43.572 -18.239   3.017  1.00  0.00     0.039 A 
HETATM   17  C   UNL     1      44.069 -17.409   2.011  1.00  0.00     0.020 A 
HETATM   18  C   UNL     1      43.215 -16.515   1.360  1.00  0.00     0.030 A 
BRANCH  16  19
HETATM   19  C   UNL     1      44.424 -19.246   3.708  1.00  0.00     0.293 C 
HETATM   20  O   UNL     1      44.682 -19.206   4.899  1.00  0.00    -0.259 OA
BRANCH  19  21
HETATM   21  O   UNL     1      44.827 -20.201   2.832  1.00  0.00    -0.318 OA
BRANCH  21  22
HETATM   22  C   UNL     1      43.924 -21.299   2.633  1.00  0.00     0.174 C 
HETATM   23  C   UNL     1      44.294 -22.074   1.384  1.00  0.00     0.034 C 
ENDBRANCH  21  22
ENDBRANCH  19  21
ENDBRANCH  16  19
ENDBRANCH  10  13
ENDBRANCH   8   9
ENDBRANCH   1   8
BRANCH   2  24
HETATM   24  C   UNL     1      39.186 -12.598   2.969  1.00  0.00     0.168 C 
BRANCH  24  25
HETATM   25  C   UNL     1      38.798 -11.331   3.681  1.00  0.00    -0.023 A 
HETATM   26  C   UNL     1      39.261 -11.093   4.973  1.00  0.00     0.125 A 
HETATM   27  N   UNL     1      38.979  -9.985   5.694  1.00  0.00    -0.273 NA
HETATM   28  C   UNL     1      38.221  -9.047   5.087  1.00  0.00     0.116 A 
HETATM   29  C   UNL     1      37.738  -9.165   3.796  1.00  0.00     0.020 A 
HETATM   30  C   UNL     1      38.042 -10.320   3.081  1.00  0.00     0.012 A 
ENDBRANCH  24  25
ENDBRANCH   2  24
BRANCH   5  31
HETATM   31  C   UNL     1      42.430 -15.259   5.586  1.00  0.00     0.047 A 
HETATM   32  C   UNL     1      41.597 -16.207   6.203  1.00  0.00     0.031 A 
HETATM   33  C   UNL     1      42.096 -17.149   7.112  1.00  0.00     0.009 A 
HETATM   34  C   UNL     1      43.449 -17.170   7.440  1.00  0.00    -0.062 A 
HETATM   35  C   UNL     1      43.992 -18.216   8.367  1.00  0.00     0.048 C 
HETATM   36  C   UNL     1      44.295 -16.238   6.836  1.00  0.00     0.009 A 
HETATM   37  C   UNL     1      43.790 -15.292   5.931  1.00  0.00     0.031 A 
ENDBRANCH   5  31
TORSDOF 9
ENDMDL
MODEL 7
REMARK VINA RESULT:      -8.1      1.848      5.242
REMARK  9 active torsions:
REMARK  status: ('A' for Active; 'I' for Inactive)
REMARK    1  A    between atoms: C_2  and  O_3 
REMARK    2  A    between atoms: O_3  and  C_4 
REMARK    3  A    between atoms: C_4  and  C_5 
REMARK    4  A    between atoms: C_8  and  N_9 
REMARK       I    between atoms: N_9  and  C_10 
REMARK    5  A    between atoms: C_10  and  C_11 
REMARK    6  A    between atoms: C_11  and  C_12 
REMARK    7  A    between atoms: N_13  and  C_14 
REMARK    8  A    between atoms: C_14  and  C_15 
REMARK    9  A    between atoms: N_23  and  C_24 
ROOT
HETATM    1  C   UNL     1      41.080 -14.008   3.236  1.00  0.00     0.191 A 
HETATM    2  N   UNL     1      42.186 -14.011   4.170  1.00  0.00    -0.315 N 
HETATM    3  C   UNL     1      42.137 -12.942   5.056  1.00  0.00     0.333 A 
HETATM    4  O   UNL     1      42.993 -12.762   5.910  1.00  0.00    -0.246 OA
HETATM    5  N   UNL     1      41.016 -12.190   4.778  1.00  0.00    -0.232 N 
HETATM    6  C   UNL     1      40.317 -12.780   3.745  1.00  0.00     0.256 A 
HETATM    7  O   UNL     1      39.244 -12.444   3.253  1.00  0.00    -0.270 OA
ENDROOT
BRANCH   1   8
HETATM    8  C   UNL     1      41.408 -13.767   1.767  1.00  0.00     0.138 C 
BRANCH   8   9
HETATM    9  C   UNL     1      40.741 -14.714   0.812  1.00  0.00     0.224 C 
HETATM   10  N   UNL     1      41.107 -16.007   0.638  1.00  0.00    -0.327 N 
HETATM   11  H   UNL     1      40.608 -16.393  -0.159  1.00  0.00     0.169 HD
HETATM   12  O   UNL     1      39.839 -14.292   0.080  1.00  0.00    -0.273 OA
BRANCH  10  13
HETATM   13  C   UNL     1      41.962 -16.910   1.287  1.00  0.00     0.034 A 
HETATM   14  C   UNL     1      43.295 -17.152   0.964  1.00  0.00     0.030 A 
HETATM   15  C   UNL     1      44.058 -18.049   1.733  1.00  0.00     0.020 A 
HETATM   16  C   UNL     1      43.498 -18.712   2.833  1.00  0.00     0.039 A 
HETATM   17  C   UNL     1      42.160 -18.476   3.153  1.00  0.00     0.020 A 
HETATM   18  C   UNL     1      41.409 -17.578   2.391  1.00  0.00     0.030 A 
BRANCH  16  19
HETATM   19  C   UNL     1      44.360 -19.618   3.642  1.00  0.00     0.293 C 
HETATM   20  O   UNL     1      44.376 -19.621   4.861  1.00  0.00    -0.259 OA
BRANCH  19  21
HETATM   21  O   UNL     1      45.078 -20.433   2.828  1.00  0.00    -0.318 OA
BRANCH  21  22
HETATM   22  C   UNL     1      44.600 -21.781   2.703  1.00  0.00     0.174 C 
HETATM   23  C   UNL     1      43.839 -21.959   1.404  1.00  0.00     0.034 C 
ENDBRANCH  21  22
ENDBRANCH  19  21
ENDBRANCH  16  19
ENDBRANCH  10  13
ENDBRANCH   8   9
ENDBRANCH   1   8
BRANCH   2  24
HETATM   24  C   UNL     1      43.211 -15.043   4.255  1.00  0.00     0.168 C 
BRANCH  24  25
HETATM   25  C   UNL     1      43.127 -15.903   5.486  1.00  0.00    -0.023 A 
HETATM   26  C   UNL     1      41.884 -16.322   5.954  1.00  0.00     0.125 A 
HETATM   27  N   UNL     1      41.700 -17.102   7.043  1.00  0.00    -0.273 NA
HETATM   28  C   UNL     1      42.814 -17.516   7.684  1.00  0.00     0.116 A 
HETATM   29  C   UNL     1      44.098 -17.189   7.284  1.00  0.00     0.020 A 
HETATM   30  C   UNL     1      44.253 -16.380   6.161  1.00  0.00     0.012 A 
ENDBRANCH  24  25
ENDBRANCH   2  24
BRANCH   5  31
HETATM   31  C   UNL     1      40.655 -10.983   5.452  1.00  0.00     0.047 A 
HETATM   32  C   UNL     1      39.746 -10.983   6.523  1.00  0.00     0.031 A 
HETATM   33  C   UNL     1      39.421  -9.810   7.217  1.00  0.00     0.009 A 
HETATM   34  C   UNL     1      39.992  -8.592   6.856  1.00  0.00    -0.062 A 
HETATM   35  C   UNL     1      39.689  -7.349   7.638  1.00  0.00     0.048 C 
HETATM   36  C   UNL     1      40.901  -8.570   5.798  1.00  0.00     0.009 A 
HETATM   37  C   UNL     1      41.218  -9.746   5.101  1.00  0.00     0.031 A 
ENDBRANCH   5  31
TORSDOF 9
ENDMDL
MODEL 8
REMARK VINA RESULT:      -8.0      4.457      7.783
REMARK  9 active torsions:
REMARK  status: ('A' for Active; 'I' for Inactive)
REMARK    1  A    between atoms: C_2  and  O_3 
REMARK    2  A    between atoms: O_3  and  C_4 
REMARK    3  A    between atoms: C_4  and  C_5 
REMARK    4  A    between atoms: C_8  and  N_9 
REMARK       I    between atoms: N_9  and  C_10 
REMARK    5  A    between atoms: C_10  and  C_11 
REMARK    6  A    between atoms: C_11  and  C_12 
REMARK    7  A    between atoms: N_13  and  C_14 
REMARK    8  A    between atoms: C_14  and  C_15 
REMARK    9  A    between atoms: N_23  and  C_24 
ROOT
HETATM    1  C   UNL     1      40.291 -14.150   4.823  1.00  0.00     0.191 A 
HETATM    2  N   UNL     1      40.988 -13.928   3.573  1.00  0.00    -0.315 N 
HETATM    3  C   UNL     1      41.884 -14.946   3.276  1.00  0.00     0.333 A 
HETATM    4  O   UNL     1      42.580 -14.931   2.271  1.00  0.00    -0.246 OA
HETATM    5  N   UNL     1      41.830 -15.889   4.280  1.00  0.00    -0.232 N 
HETATM    6  C   UNL     1      40.881 -15.511   5.207  1.00  0.00     0.256 A 
HETATM    7  O   UNL     1      40.502 -16.113   6.208  1.00  0.00    -0.270 OA
ENDROOT
BRANCH   1   8
HETATM    8  C   UNL     1      40.585 -13.184   5.965  1.00  0.00     0.138 C 
BRANCH   8   9
HETATM    9  C   UNL     1      39.529 -12.141   6.191  1.00  0.00     0.224 C 
HETATM   10  N   UNL     1      39.486 -11.318   7.267  1.00  0.00    -0.327 N 
HETATM   11  H   UNL     1      38.606 -10.809   7.266  1.00  0.00     0.169 HD
HETATM   12  O   UNL     1      38.592 -12.051   5.389  1.00  0.00    -0.273 OA
BRANCH  10  13
HETATM   13  C   UNL     1      40.345 -10.999   8.329  1.00  0.00     0.034 A 
HETATM   14  C   UNL     1      40.018 -11.022   9.682  1.00  0.00     0.030 A 
HETATM   15  C   UNL     1      40.994 -10.729  10.651  1.00  0.00     0.020 A 
HETATM   16  C   UNL     1      42.307 -10.412  10.278  1.00  0.00     0.039 A 
HETATM   17  C   UNL     1      42.634 -10.380   8.922  1.00  0.00     0.020 A 
HETATM   18  C   UNL     1      41.662 -10.680   7.963  1.00  0.00     0.030 A 
BRANCH  16  19
HETATM   19  C   UNL     1      43.314 -10.152  11.344  1.00  0.00     0.293 C 
HETATM   20  O   UNL     1      44.435 -10.634  11.343  1.00  0.00    -0.259 OA
BRANCH  19  21
HETATM   21  O   UNL     1      42.810  -9.297  12.269  1.00  0.00    -0.318 OA
BRANCH  21  22
HETATM   22  C   UNL     1      43.313  -9.443  13.606  1.00  0.00     0.174 C 
HETATM   23  C   UNL     1      42.335 -10.224  14.462  1.00  0.00     0.034 C 
ENDBRANCH  21  22
ENDBRANCH  19  21
ENDBRANCH  16  19
ENDBRANCH  10  13
ENDBRANCH   8   9
ENDBRANCH   1   8
BRANCH   2  24
HETATM   24  C   UNL     1      40.747 -12.815   2.663  1.00  0.00     0.168 C 
BRANCH  24  25
HETATM   25  C   UNL     1      39.752 -13.109   1.574  1.00  0.00    -0.023 A 
HETATM   26  C   UNL     1      40.199 -13.442   0.298  1.00  0.00     0.125 A 
HETATM   27  N   UNL     1      39.389 -13.732  -0.745  1.00  0.00    -0.273 NA
HETATM   28  C   UNL     1      38.061 -13.721  -0.499  1.00  0.00     0.116 A 
HETATM   29  C   UNL     1      37.511 -13.439   0.739  1.00  0.00     0.020 A 
HETATM   30  C   UNL     1      38.372 -13.140   1.791  1.00  0.00     0.012 A 
ENDBRANCH  24  25
ENDBRANCH   2  24
BRANCH   5  31
HETATM   31  C   UNL     1      42.645 -17.061   4.345  1.00  0.00     0.047 A 
HETATM   32  C   UNL     1      42.527 -18.092   3.398  1.00  0.00     0.031 A 
HETATM   33  C   UNL     1      43.352 -19.223   3.430  1.00  0.00     0.009 A 
HETATM   34  C   UNL     1      44.323 -19.364   4.419  1.00  0.00    -0.062 A 
HETATM   35  C   UNL     1      45.245 -20.547   4.416  1.00  0.00     0.048 C 
HETATM   36  C   UNL     1      44.460 -18.350   5.367  1.00  0.00     0.009 A 
HETATM   37  C   UNL     1      43.626 -17.221   5.336  1.00  0.00     0.031 A 
ENDBRANCH   5  31
TORSDOF 9
ENDMDL
MODEL 9
REMARK VINA RESULT:      -8.0      2.694      5.588
REMARK  9 active torsions:
REMARK  status: ('A' for Active; 'I' for Inactive)
REMARK    1  A    between atoms: C_2  and  O_3 
REMARK    2  A    between atoms: O_3  and  C_4 
REMARK    3  A    between atoms: C_4  and  C_5 
REMARK    4  A    between atoms: C_8  and  N_9 
REMARK       I    between atoms: N_9  and  C_10 
REMARK    5  A    between atoms: C_10  and  C_11 
REMARK    6  A    between atoms: C_11  and  C_12 
REMARK    7  A    between atoms: N_13  and  C_14 
REMARK    8  A    between atoms: C_14  and  C_15 
REMARK    9  A    between atoms: N_23  and  C_24 
ROOT
HETATM    1  C   UNL     1      40.383 -12.871   4.438  1.00  0.00     0.191 A 
HETATM    2  N   UNL     1      41.567 -12.879   5.273  1.00  0.00    -0.315 N 
HETATM    3  C   UNL     1      41.460 -12.014   6.353  1.00  0.00     0.333 A 
HETATM    4  O   UNL     1      42.364 -11.867   7.164  1.00  0.00    -0.246 OA
HETATM    5  N   UNL     1      40.225 -11.403   6.311  1.00  0.00    -0.232 N 
HETATM    6  C   UNL     1      39.515 -11.890   5.233  1.00  0.00     0.256 A 
HETATM    7  O   UNL     1      38.362 -11.637   4.895  1.00  0.00    -0.270 OA
ENDROOT
BRANCH   1   8
HETATM    8  C   UNL     1      40.529 -12.313   3.027  1.00  0.00     0.138 C 
BRANCH   8   9
HETATM    9  C   UNL     1      39.800 -13.090   1.968  1.00  0.00     0.224 C 
HETATM   10  N   UNL     1      40.170 -14.318   1.531  1.00  0.00    -0.327 N 
HETATM   11  H   UNL     1      39.614 -14.567   0.718  1.00  0.00     0.169 HD
HETATM   12  O   UNL     1      38.835 -12.568   1.398  1.00  0.00    -0.273 OA
BRANCH  10  13
HETATM   13  C   UNL     1      41.088 -15.299   1.934  1.00  0.00     0.034 A 
HETATM   14  C   UNL     1      42.476 -15.189   1.889  1.00  0.00     0.030 A 
HETATM   15  C   UNL     1      43.284 -16.231   2.375  1.00  0.00     0.020 A 
HETATM   16  C   UNL     1      42.716 -17.393   2.915  1.00  0.00     0.039 A 
HETATM   17  C   UNL     1      41.325 -17.507   2.954  1.00  0.00     0.020 A 
HETATM   18  C   UNL     1      40.526 -16.465   2.476  1.00  0.00     0.030 A 
BRANCH  16  19
HETATM   19  C   UNL     1      43.615 -18.449   3.457  1.00  0.00     0.293 C 
HETATM   20  O   UNL     1      44.456 -18.241   4.316  1.00  0.00    -0.259 OA
BRANCH  19  21
HETATM   21  O   UNL     1      43.334 -19.646   2.883  1.00  0.00    -0.318 OA
BRANCH  21  22
HETATM   22  C   UNL     1      44.283 -20.697   3.117  1.00  0.00     0.174 C 
HETATM   23  C   UNL     1      44.450 -21.551   1.876  1.00  0.00     0.034 C 
ENDBRANCH  21  22
ENDBRANCH  19  21
ENDBRANCH  16  19
ENDBRANCH  10  13
ENDBRANCH   8   9
ENDBRANCH   1   8
BRANCH   2  24
HETATM   24  C   UNL     1      42.726 -13.740   5.078  1.00  0.00     0.168 C 
BRANCH  24  25
HETATM   25  C   UNL     1      42.699 -15.010   5.883  1.00  0.00    -0.023 A 
HETATM   26  C   UNL     1      43.832 -15.408   6.588  1.00  0.00     0.125 A 
HETATM   27  N   UNL     1      43.907 -16.524   7.347  1.00  0.00    -0.273 NA
HETATM   28  C   UNL     1      42.785 -17.270   7.437  1.00  0.00     0.116 A 
HETATM   29  C   UNL     1      41.595 -16.948   6.808  1.00  0.00     0.020 A 
HETATM   30  C   UNL     1      41.551 -15.794   6.030  1.00  0.00     0.012 A 
ENDBRANCH  24  25
ENDBRANCH   2  24
BRANCH   5  31
HETATM   31  C   UNL     1      39.772 -10.412   7.235  1.00  0.00     0.047 A 
HETATM   32  C   UNL     1      39.802  -9.044   6.919  1.00  0.00     0.031 A 
HETATM   33  C   UNL     1      39.319  -8.070   7.803  1.00  0.00     0.009 A 
HETATM   34  C   UNL     1      38.794  -8.435   9.041  1.00  0.00    -0.062 A 
HETATM   35  C   UNL     1      38.223  -7.397   9.961  1.00  0.00     0.048 C 
HETATM   36  C   UNL     1      38.752  -9.789   9.374  1.00  0.00     0.009 A 
HETATM   37  C   UNL     1      39.244 -10.761   8.488  1.00  0.00     0.031 A 
ENDBRANCH   5  31
TORSDOF 9
ENDMDL
MODEL 10
REMARK VINA RESULT:      -7.9      2.457      5.362
REMARK  9 active torsions:
REMARK  status: ('A' for Active; 'I' for Inactive)
REMARK    1  A    between atoms: C_2  and  O_3 
REMARK    2  A    between atoms: O_3  and  C_4 
REMARK    3  A    between atoms: C_4  and  C_5 
REMARK    4  A    between atoms: C_8  and  N_9 
REMARK       I    between atoms: N_9  and  C_10 
REMARK    5  A    between atoms: C_10  and  C_11 
REMARK    6  A    between atoms: C_11  and  C_12 
REMARK    7  A    between atoms: N_13  and  C_14 
REMARK    8  A    between atoms: C_14  and  C_15 
REMARK    9  A    between atoms: N_23  and  C_24 
ROOT
HETATM    1  C   UNL     1      39.489 -13.943   1.306  1.00  0.00     0.191 A 
HETATM    2  N   UNL     1      40.256 -14.108   0.089  1.00  0.00    -0.315 N 
HETATM    3  C   UNL     1      41.226 -15.095   0.202  1.00  0.00     0.333 A 
HETATM    4  O   UNL     1      41.988 -15.371  -0.714  1.00  0.00    -0.246 OA
HETATM    5  N   UNL     1      41.156 -15.641   1.466  1.00  0.00    -0.232 N 
HETATM    6  C   UNL     1      40.126 -15.043   2.162  1.00  0.00     0.256 A 
HETATM    7  O   UNL     1      39.713 -15.295   3.291  1.00  0.00    -0.270 OA
ENDROOT
BRANCH   1   8
HETATM    8  C   UNL     1      39.649 -12.627   2.058  1.00  0.00     0.138 C 
BRANCH   8   9
HETATM    9  C   UNL     1      40.954 -11.923   1.818  1.00  0.00     0.224 C 
HETATM   10  N   UNL     1      42.047 -12.050   2.609  1.00  0.00    -0.327 N 
HETATM   11  H   UNL     1      42.746 -11.369   2.327  1.00  0.00     0.169 HD
HETATM   12  O   UNL     1      41.040 -11.122   0.881  1.00  0.00    -0.273 OA
BRANCH  10  13
HETATM   13  C   UNL     1      42.434 -12.883   3.670  1.00  0.00     0.034 A 
HETATM   14  C   UNL     1      41.844 -12.931   4.930  1.00  0.00     0.030 A 
HETATM   15  C   UNL     1      42.298 -13.853   5.889  1.00  0.00     0.020 A 
HETATM   16  C   UNL     1      43.345 -14.739   5.599  1.00  0.00     0.039 A 
HETATM   17  C   UNL     1      43.942 -14.686   4.338  1.00  0.00     0.020 A 
HETATM   18  C   UNL     1      43.482 -13.773   3.386  1.00  0.00     0.030 A 
BRANCH  16  19
HETATM   19  C   UNL     1      43.760 -15.726   6.633  1.00  0.00     0.293 C 
HETATM   20  O   UNL     1      43.992 -15.428   7.793  1.00  0.00    -0.259 OA
BRANCH  19  21
HETATM   21  O   UNL     1      43.806 -16.973   6.101  1.00  0.00    -0.318 OA
BRANCH  21  22
HETATM   22  C   UNL     1      44.665 -17.912   6.765  1.00  0.00     0.174 C 
HETATM   23  C   UNL     1      43.925 -19.204   7.050  1.00  0.00     0.034 C 
ENDBRANCH  21  22
ENDBRANCH  19  21
ENDBRANCH  16  19
ENDBRANCH  10  13
ENDBRANCH   8   9
ENDBRANCH   1   8
BRANCH   2  24
HETATM   24  C   UNL     1      40.016 -13.394  -1.159  1.00  0.00     0.168 C 
BRANCH  24  25
HETATM   25  C   UNL     1      39.306 -14.202  -2.210  1.00  0.00    -0.023 A 
HETATM   26  C   UNL     1      37.920 -14.126  -2.323  1.00  0.00     0.125 A 
HETATM   27  N   UNL     1      37.190 -14.802  -3.238  1.00  0.00    -0.273 NA
HETATM   28  C   UNL     1      37.876 -15.572  -4.108  1.00  0.00     0.116 A 
HETATM   29  C   UNL     1      39.254 -15.693  -4.108  1.00  0.00     0.020 A 
HETATM   30  C   UNL     1      39.978 -14.987  -3.151  1.00  0.00     0.012 A 
ENDBRANCH  24  25
ENDBRANCH   2  24
BRANCH   5  31
HETATM   31  C   UNL     1      42.029 -16.655   1.968  1.00  0.00     0.047 A 
HETATM   32  C   UNL     1      41.681 -17.441   3.078  1.00  0.00     0.031 A 
HETATM   33  C   UNL     1      42.513 -18.466   3.548  1.00  0.00     0.009 A 
HETATM   34  C   UNL     1      43.729 -18.734   2.924  1.00  0.00    -0.062 A 
HETATM   35  C   UNL     1      44.590 -19.869   3.392  1.00  0.00     0.048 C 
HETATM   36  C   UNL     1      44.092 -17.967   1.817  1.00  0.00     0.009 A 
HETATM   37  C   UNL     1      43.260 -16.937   1.354  1.00  0.00     0.031 A 
ENDBRANCH   5  31
TORSDOF 9
ENDMDL
