MODEL 1
REMARK VINA RESULT:      -9.2      0.000      0.000
REMARK  6 active torsions:
REMARK  status: ('A' for Active; 'I' for Inactive)
REMARK    1  A    between atoms: C_4  and  C_5 
REMARK    2  A    between atoms: C_5  and  C_6 
REMARK    3  A    between atoms: C_6  and  C_7 
REMARK    4  A    between atoms: C_7  and  N_8 
REMARK    5  A    between atoms: C_11  and  C_13 
REMARK    6  A    between atoms: C_11  and  O_12 
ROOT
HETATM    1  N   UNL     1      42.561 -17.181   6.352  1.00  0.00    -0.314 N 
HETATM    2  C   UNL     1      41.326 -17.243   5.676  1.00  0.00     0.269 A 
HETATM    3  O   UNL     1      40.671 -18.258   5.483  1.00  0.00    -0.269 OA
HETATM    4  C   UNL     1      40.925 -15.769   5.327  1.00  0.00     0.198 A 
HETATM    5  C   UNL     1      42.119 -14.992   5.827  1.00  0.00     0.017 A 
HETATM    6  C   UNL     1      43.031 -15.863   6.434  1.00  0.00     0.047 A 
HETATM    7  C   UNL     1      42.350 -13.622   5.803  1.00  0.00     0.013 A 
HETATM    8  C   UNL     1      43.525 -13.138   6.378  1.00  0.00     0.001 A 
HETATM    9  C   UNL     1      44.442 -14.018   6.975  1.00  0.00     0.002 A 
HETATM   10  C   UNL     1      44.198 -15.394   7.009  1.00  0.00     0.030 A 
ENDROOT
BRANCH   4  11
HETATM   11  C   UNL     1      40.783 -15.515   3.848  1.00  0.00     0.018 A 
HETATM   12  C   UNL     1      41.545 -16.062   2.751  1.00  0.00     0.002 A 
HETATM   13  C   UNL     1      41.025 -15.531   1.568  1.00  0.00     0.043 A 
HETATM   14  C   UNL     1      42.635 -16.952   2.645  1.00  0.00     0.014 A 
HETATM   15  C   UNL     1      41.530 -15.849   0.300  1.00  0.00     0.030 A 
HETATM   16  N   UNL     1      39.990 -14.699   1.915  1.00  0.00    -0.365 N 
HETATM   17  C   UNL     1      42.608 -16.734   0.231  1.00  0.00     0.002 A 
HETATM   18  C   UNL     1      43.156 -17.278   1.386  1.00  0.00     0.001 A 
HETATM   19  H   UNL     1      39.423 -14.183   1.257  1.00  0.00     0.165 HD
HETATM   20  C   UNL     1      39.838 -14.678   3.270  1.00  0.00     0.100 A 
ENDBRANCH   4  11
BRANCH   4  21
HETATM   21  O   UNL     1      39.772 -15.360   6.064  1.00  0.00    -0.371 OA
HETATM   22  H   UNL     1      39.576 -16.079   6.687  1.00  0.00     0.212 HD
ENDBRANCH   4  21
BRANCH   1  23
HETATM   23  C   UNL     1      43.188 -18.341   6.949  1.00  0.00     0.133 C 
BRANCH  23  24
HETATM   24  C   UNL     1      44.565 -18.666   6.372  1.00  0.00     0.025 C 
BRANCH  24  25
HETATM   25  C   UNL     1      44.579 -18.687   4.843  1.00  0.00     0.040 C 
BRANCH  25  26
HETATM   26  C   UNL     1      44.572 -20.100   4.312  1.00  0.00    -0.058 A 
HETATM   27  C   UNL     1      44.776 -21.184   5.176  1.00  0.00     0.007 A 
HETATM   28  C   UNL     1      44.787 -22.490   4.685  1.00  0.00     0.001 A 
HETATM   29  C   UNL     1      44.604 -22.724   3.322  1.00  0.00     0.000 A 
HETATM   30  C   UNL     1      44.410 -21.652   2.453  1.00  0.00     0.001 A 
HETATM   31  C   UNL     1      44.395 -20.345   2.943  1.00  0.00     0.007 A 
ENDBRANCH  25  26
ENDBRANCH  24  25
ENDBRANCH  23  24
ENDBRANCH   1  23
TORSDOF 6
ENDMDL
MODEL 2
REMARK VINA RESULT:      -8.9      2.555      3.758
REMARK  6 active torsions:
REMARK  status: ('A' for Active; 'I' for Inactive)
REMARK    1  A    between atoms: C_4  and  C_5 
REMARK    2  A    between atoms: C_5  and  C_6 
REMARK    3  A    between atoms: C_6  and  C_7 
REMARK    4  A    between atoms: C_7  and  N_8 
REMARK    5  A    between atoms: C_11  and  C_13 
REMARK    6  A    between atoms: C_11  and  O_12 
ROOT
HETATM    1  N   UNL     1      41.070 -16.491   3.513  1.00  0.00    -0.314 N 
HETATM    2  C   UNL     1      40.523 -16.717   2.233  1.00  0.00     0.269 A 
HETATM    3  O   UNL     1      40.550 -17.779   1.626  1.00  0.00    -0.269 OA
HETATM    4  C   UNL     1      39.800 -15.394   1.808  1.00  0.00     0.198 A 
HETATM    5  C   UNL     1      40.115 -14.478   2.967  1.00  0.00     0.017 A 
HETATM    6  C   UNL     1      40.838 -15.176   3.940  1.00  0.00     0.047 A 
HETATM    7  C   UNL     1      39.738 -13.156   3.170  1.00  0.00     0.013 A 
HETATM    8  C   UNL     1      40.119 -12.534   4.360  1.00  0.00     0.001 A 
HETATM    9  C   UNL     1      40.855 -13.237   5.328  1.00  0.00     0.002 A 
HETATM   10  C   UNL     1      41.219 -14.571   5.124  1.00  0.00     0.030 A 
ENDROOT
BRANCH   4  11
HETATM   11  C   UNL     1      40.361 -14.775   0.553  1.00  0.00     0.018 A 
HETATM   12  C   UNL     1      39.675 -14.064  -0.500  1.00  0.00     0.002 A 
HETATM   13  C   UNL     1      40.631 -13.673  -1.440  1.00  0.00     0.043 A 
HETATM   14  C   UNL     1      38.331 -13.719  -0.752  1.00  0.00     0.014 A 
HETATM   15  C   UNL     1      40.314 -12.957  -2.602  1.00  0.00     0.030 A 
HETATM   16  N   UNL     1      41.850 -14.118  -0.991  1.00  0.00    -0.365 N 
HETATM   17  C   UNL     1      38.973 -12.631  -2.820  1.00  0.00     0.002 A 
HETATM   18  C   UNL     1      37.993 -13.008  -1.910  1.00  0.00     0.001 A 
HETATM   19  H   UNL     1      42.727 -13.970  -1.470  1.00  0.00     0.165 HD
HETATM   20  C   UNL     1      41.702 -14.779   0.193  1.00  0.00     0.100 A 
ENDBRANCH   4  11
BRANCH   4  21
HETATM   21  O   UNL     1      38.386 -15.578   1.741  1.00  0.00    -0.371 OA
HETATM   22  H   UNL     1      37.987 -14.772   2.105  1.00  0.00     0.212 HD
ENDBRANCH   4  21
BRANCH   1  23
HETATM   23  C   UNL     1      41.704 -17.534   4.291  1.00  0.00     0.133 C 
BRANCH  23  24
HETATM   24  C   UNL     1      43.230 -17.496   4.249  1.00  0.00     0.025 C 
BRANCH  24  25
HETATM   25  C   UNL     1      43.801 -17.997   2.923  1.00  0.00     0.040 C 
BRANCH  25  26
HETATM   26  C   UNL     1      44.003 -19.493   2.939  1.00  0.00    -0.058 A 
HETATM   27  C   UNL     1      44.621 -20.113   4.034  1.00  0.00     0.007 A 
HETATM   28  C   UNL     1      44.825 -21.493   4.044  1.00  0.00     0.001 A 
HETATM   29  C   UNL     1      44.421 -22.266   2.956  1.00  0.00     0.000 A 
HETATM   30  C   UNL     1      43.815 -21.658   1.859  1.00  0.00     0.001 A 
HETATM   31  C   UNL     1      43.607 -20.278   1.848  1.00  0.00     0.007 A 
ENDBRANCH  25  26
ENDBRANCH  24  25
ENDBRANCH  23  24
ENDBRANCH   1  23
TORSDOF 6
ENDMDL
MODEL 3
REMARK VINA RESULT:      -8.7      1.084      2.005
REMARK  6 active torsions:
REMARK  status: ('A' for Active; 'I' for Inactive)
REMARK    1  A    between atoms: C_4  and  C_5 
REMARK    2  A    between atoms: C_5  and  C_6 
REMARK    3  A    between atoms: C_6  and  C_7 
REMARK    4  A    between atoms: C_7  and  N_8 
REMARK    5  A    between atoms: C_11  and  C_13 
REMARK    6  A    between atoms: C_11  and  O_12 
ROOT
HETATM    1  N   UNL     1      42.788 -17.320   6.373  1.00  0.00    -0.314 N 
HETATM    2  C   UNL     1      41.735 -17.451   5.444  1.00  0.00     0.269 A 
HETATM    3  O   UNL     1      41.130 -18.485   5.197  1.00  0.00    -0.269 OA
HETATM    4  C   UNL     1      41.438 -16.017   4.889  1.00  0.00     0.198 A 
HETATM    5  C   UNL     1      42.498 -15.189   5.576  1.00  0.00     0.017 A 
HETATM    6  C   UNL     1      43.241 -15.996   6.444  1.00  0.00     0.047 A 
HETATM    7  C   UNL     1      42.742 -13.824   5.486  1.00  0.00     0.013 A 
HETATM    8  C   UNL     1      43.763 -13.281   6.267  1.00  0.00     0.001 A 
HETATM    9  C   UNL     1      44.514 -14.098   7.128  1.00  0.00     0.002 A 
HETATM   10  C   UNL     1      44.254 -15.468   7.225  1.00  0.00     0.030 A 
ENDROOT
BRANCH   4  11
HETATM   11  C   UNL     1      41.635 -15.892   3.400  1.00  0.00     0.018 A 
HETATM   12  C   UNL     1      40.753 -15.326   2.407  1.00  0.00     0.002 A 
HETATM   13  C   UNL     1      41.388 -15.431   1.167  1.00  0.00     0.043 A 
HETATM   14  C   UNL     1      39.471 -14.738   2.437  1.00  0.00     0.014 A 
HETATM   15  C   UNL     1      40.813 -14.978  -0.028  1.00  0.00     0.030 A 
HETATM   16  N   UNL     1      42.604 -16.031   1.382  1.00  0.00    -0.365 N 
HETATM   17  C   UNL     1      39.543 -14.401   0.038  1.00  0.00     0.002 A 
HETATM   18  C   UNL     1      38.878 -14.283   1.252  1.00  0.00     0.001 A 
HETATM   19  H   UNL     1      43.281 -16.228   0.659  1.00  0.00     0.165 HD
HETATM   20  C   UNL     1      42.761 -16.314   2.706  1.00  0.00     0.100 A 
ENDBRANCH   4  11
BRANCH   4  21
HETATM   21  O   UNL     1      40.153 -15.557   5.311  1.00  0.00    -0.371 OA
HETATM   22  H   UNL     1      40.311 -14.779   5.869  1.00  0.00     0.212 HD
ENDBRANCH   4  21
BRANCH   1  23
HETATM   23  C   UNL     1      43.253 -18.419   7.193  1.00  0.00     0.133 C 
BRANCH  23  24
HETATM   24  C   UNL     1      43.801 -19.599   6.392  1.00  0.00     0.025 C 
BRANCH  24  25
HETATM   25  C   UNL     1      44.631 -19.163   5.184  1.00  0.00     0.040 C 
BRANCH  25  26
HETATM   26  C   UNL     1      44.404 -20.075   4.002  1.00  0.00    -0.058 A 
HETATM   27  C   UNL     1      43.822 -19.580   2.827  1.00  0.00     0.007 A 
HETATM   28  C   UNL     1      43.596 -20.425   1.739  1.00  0.00     0.001 A 
HETATM   29  C   UNL     1      43.941 -21.773   1.818  1.00  0.00     0.000 A 
HETATM   30  C   UNL     1      44.511 -22.276   2.986  1.00  0.00     0.001 A 
HETATM   31  C   UNL     1      44.742 -21.433   4.074  1.00  0.00     0.007 A 
ENDBRANCH  25  26
ENDBRANCH  24  25
ENDBRANCH  23  24
ENDBRANCH   1  23
TORSDOF 6
ENDMDL
MODEL 4
REMARK VINA RESULT:      -8.7      2.810      6.891
REMARK  6 active torsions:
REMARK  status: ('A' for Active; 'I' for Inactive)
REMARK    1  A    between atoms: C_4  and  C_5 
REMARK    2  A    between atoms: C_5  and  C_6 
REMARK    3  A    between atoms: C_6  and  C_7 
REMARK    4  A    between atoms: C_7  and  N_8 
REMARK    5  A    between atoms: C_11  and  C_13 
REMARK    6  A    between atoms: C_11  and  O_12 
ROOT
HETATM    1  N   UNL     1      43.877 -14.691   6.319  1.00  0.00    -0.314 N 
HETATM    2  C   UNL     1      44.006 -16.092   6.224  1.00  0.00     0.269 A 
HETATM    3  O   UNL     1      45.000 -16.737   6.529  1.00  0.00    -0.269 OA
HETATM    4  C   UNL     1      42.615 -16.647   5.765  1.00  0.00     0.198 A 
HETATM    5  C   UNL     1      41.821 -15.378   5.567  1.00  0.00     0.017 A 
HETATM    6  C   UNL     1      42.599 -14.271   5.926  1.00  0.00     0.047 A 
HETATM    7  C   UNL     1      40.500 -15.220   5.165  1.00  0.00     0.013 A 
HETATM    8  C   UNL     1      39.976 -13.929   5.105  1.00  0.00     0.001 A 
HETATM    9  C   UNL     1      40.765 -12.821   5.454  1.00  0.00     0.002 A 
HETATM   10  C   UNL     1      42.089 -12.987   5.872  1.00  0.00     0.030 A 
ENDROOT
BRANCH   4  11
HETATM   11  C   UNL     1      42.662 -17.382   4.450  1.00  0.00     0.018 A 
HETATM   12  C   UNL     1      43.348 -18.607   4.112  1.00  0.00     0.002 A 
HETATM   13  C   UNL     1      43.075 -18.890   2.772  1.00  0.00     0.043 A 
HETATM   14  C   UNL     1      44.182 -19.503   4.813  1.00  0.00     0.014 A 
HETATM   15  C   UNL     1      43.584 -20.014   2.108  1.00  0.00     0.030 A 
HETATM   16  N   UNL     1      42.258 -17.891   2.303  1.00  0.00    -0.365 N 
HETATM   17  C   UNL     1      44.407 -20.880   2.832  1.00  0.00     0.002 A 
HETATM   18  C   UNL     1      44.705 -20.629   4.165  1.00  0.00     0.001 A 
HETATM   19  H   UNL     1      41.895 -17.842   1.362  1.00  0.00     0.165 HD
HETATM   20  C   UNL     1      42.008 -16.985   3.291  1.00  0.00     0.100 A 
ENDBRANCH   4  11
BRANCH   4  21
HETATM   21  O   UNL     1      41.999 -17.416   6.799  1.00  0.00    -0.371 OA
HETATM   22  H   UNL     1      41.840 -16.806   7.536  1.00  0.00     0.212 HD
ENDBRANCH   4  21
BRANCH   1  23
HETATM   23  C   UNL     1      44.924 -13.841   6.843  1.00  0.00     0.133 C 
BRANCH  23  24
HETATM   24  C   UNL     1      44.759 -13.499   8.323  1.00  0.00     0.025 C 
BRANCH  24  25
HETATM   25  C   UNL     1      45.367 -12.145   8.691  1.00  0.00     0.040 C 
BRANCH  25  26
HETATM   26  C   UNL     1      44.443 -11.349   9.581  1.00  0.00    -0.058 A 
HETATM   27  C   UNL     1      43.184 -10.948   9.116  1.00  0.00     0.007 A 
HETATM   28  C   UNL     1      42.334 -10.197   9.930  1.00  0.00     0.001 A 
HETATM   29  C   UNL     1      42.740  -9.832  11.213  1.00  0.00     0.000 A 
HETATM   30  C   UNL     1      43.995 -10.219  11.681  1.00  0.00     0.001 A 
HETATM   31  C   UNL     1      44.844 -10.973  10.869  1.00  0.00     0.007 A 
ENDBRANCH  25  26
ENDBRANCH  24  25
ENDBRANCH  23  24
ENDBRANCH   1  23
TORSDOF 6
ENDMDL
MODEL 5
REMARK VINA RESULT:      -8.5      2.618      3.720
REMARK  6 active torsions:
REMARK  status: ('A' for Active; 'I' for Inactive)
REMARK    1  A    between atoms: C_4  and  C_5 
REMARK    2  A    between atoms: C_5  and  C_6 
REMARK    3  A    between atoms: C_6  and  C_7 
REMARK    4  A    between atoms: C_7  and  N_8 
REMARK    5  A    between atoms: C_11  and  C_13 
REMARK    6  A    between atoms: C_11  and  O_12 
ROOT
HETATM    1  N   UNL     1      42.422 -15.999   2.040  1.00  0.00    -0.314 N 
HETATM    2  C   UNL     1      41.346 -16.110   1.135  1.00  0.00     0.269 A 
HETATM    3  O   UNL     1      41.396 -16.641   0.034  1.00  0.00    -0.269 OA
HETATM    4  C   UNL     1      40.084 -15.524   1.854  1.00  0.00     0.198 A 
HETATM    5  C   UNL     1      40.663 -15.046   3.165  1.00  0.00     0.017 A 
HETATM    6  C   UNL     1      42.024 -15.368   3.227  1.00  0.00     0.047 A 
HETATM    7  C   UNL     1      40.026 -14.435   4.237  1.00  0.00     0.013 A 
HETATM    8  C   UNL     1      40.781 -14.128   5.369  1.00  0.00     0.001 A 
HETATM    9  C   UNL     1      42.149 -14.443   5.422  1.00  0.00     0.002 A 
HETATM   10  C   UNL     1      42.782 -15.071   4.345  1.00  0.00     0.030 A 
ENDROOT
BRANCH   4  11
HETATM   11  C   UNL     1      39.480 -14.339   1.147  1.00  0.00     0.018 A 
HETATM   12  C   UNL     1      40.138 -13.253   0.459  1.00  0.00     0.002 A 
HETATM   13  C   UNL     1      39.146 -12.407  -0.044  1.00  0.00     0.043 A 
HETATM   14  C   UNL     1      41.482 -12.899   0.221  1.00  0.00     0.014 A 
HETATM   15  C   UNL     1      39.430 -11.243  -0.771  1.00  0.00     0.030 A 
HETATM   16  N   UNL     1      37.934 -12.944   0.312  1.00  0.00    -0.365 N 
HETATM   17  C   UNL     1      40.771 -10.923  -0.990  1.00  0.00     0.002 A 
HETATM   18  C   UNL     1      41.786 -11.737  -0.500  1.00  0.00     0.001 A 
HETATM   19  H   UNL     1      37.037 -12.544   0.074  1.00  0.00     0.165 HD
HETATM   20  C   UNL     1      38.119 -14.092   1.025  1.00  0.00     0.100 A 
ENDBRANCH   4  11
BRANCH   4  21
HETATM   21  O   UNL     1      39.124 -16.547   2.125  1.00  0.00    -0.371 OA
HETATM   22  H   UNL     1      38.433 -16.459   1.449  1.00  0.00     0.212 HD
ENDBRANCH   4  21
BRANCH   1  23
HETATM   23  C   UNL     1      43.730 -16.558   1.776  1.00  0.00     0.133 C 
BRANCH  23  24
HETATM   24  C   UNL     1      43.804 -18.073   1.955  1.00  0.00     0.025 C 
BRANCH  24  25
HETATM   25  C   UNL     1      44.019 -18.490   3.410  1.00  0.00     0.040 C 
BRANCH  25  26
HETATM   26  C   UNL     1      44.255 -19.976   3.529  1.00  0.00    -0.058 A 
HETATM   27  C   UNL     1      44.648 -20.536   4.752  1.00  0.00     0.007 A 
HETATM   28  C   UNL     1      44.884 -21.907   4.860  1.00  0.00     0.001 A 
HETATM   29  C   UNL     1      44.738 -22.731   3.744  1.00  0.00     0.000 A 
HETATM   30  C   UNL     1      44.358 -22.181   2.521  1.00  0.00     0.001 A 
HETATM   31  C   UNL     1      44.118 -20.811   2.412  1.00  0.00     0.007 A 
ENDBRANCH  25  26
ENDBRANCH  24  25
ENDBRANCH  23  24
ENDBRANCH   1  23
TORSDOF 6
ENDMDL
MODEL 6
REMARK VINA RESULT:      -8.4      1.997      4.727
REMARK  6 active torsions:
REMARK  status: ('A' for Active; 'I' for Inactive)
REMARK    1  A    between atoms: C_4  and  C_5 
REMARK    2  A    between atoms: C_5  and  C_6 
REMARK    3  A    between atoms: C_6  and  C_7 
REMARK    4  A    between atoms: C_7  and  N_8 
REMARK    5  A    between atoms: C_11  and  C_13 
REMARK    6  A    between atoms: C_11  and  O_12 
ROOT
HETATM    1  N   UNL     1      42.109 -15.872   2.129  1.00  0.00    -0.314 N 
HETATM    2  C   UNL     1      43.351 -15.612   2.743  1.00  0.00     0.269 A 
HETATM    3  O   UNL     1      44.401 -16.190   2.497  1.00  0.00    -0.269 OA
HETATM    4  C   UNL     1      43.138 -14.390   3.700  1.00  0.00     0.198 A 
HETATM    5  C   UNL     1      41.657 -14.131   3.553  1.00  0.00     0.017 A 
HETATM    6  C   UNL     1      41.114 -15.010   2.610  1.00  0.00     0.047 A 
HETATM    7  C   UNL     1      40.871 -13.159   4.158  1.00  0.00     0.013 A 
HETATM    8  C   UNL     1      39.519 -13.095   3.818  1.00  0.00     0.001 A 
HETATM    9  C   UNL     1      38.976 -13.987   2.879  1.00  0.00     0.002 A 
HETATM   10  C   UNL     1      39.776 -14.954   2.263  1.00  0.00     0.030 A 
ENDROOT
BRANCH   4  11
HETATM   11  C   UNL     1      43.421 -14.699   5.148  1.00  0.00     0.018 A 
HETATM   12  C   UNL     1      43.223 -15.932   5.874  1.00  0.00     0.002 A 
HETATM   13  C   UNL     1      43.649 -15.723   7.188  1.00  0.00     0.043 A 
HETATM   14  C   UNL     1      42.714 -17.206   5.546  1.00  0.00     0.014 A 
HETATM   15  C   UNL     1      43.599 -16.715   8.175  1.00  0.00     0.030 A 
HETATM   16  N   UNL     1      44.092 -14.426   7.271  1.00  0.00    -0.365 N 
HETATM   17  C   UNL     1      43.090 -17.966   7.816  1.00  0.00     0.002 A 
HETATM   18  C   UNL     1      42.651 -18.210   6.521  1.00  0.00     0.001 A 
HETATM   19  H   UNL     1      44.466 -14.000   8.107  1.00  0.00     0.165 HD
HETATM   20  C   UNL     1      43.958 -13.805   6.064  1.00  0.00     0.100 A 
ENDBRANCH   4  11
BRANCH   4  21
HETATM   21  O   UNL     1      43.851 -13.242   3.237  1.00  0.00    -0.371 OA
HETATM   22  H   UNL     1      44.663 -13.573   2.823  1.00  0.00     0.212 HD
ENDBRANCH   4  21
BRANCH   1  23
HETATM   23  C   UNL     1      41.944 -16.853   1.077  1.00  0.00     0.133 C 
BRANCH  23  24
HETATM   24  C   UNL     1      42.067 -18.299   1.555  1.00  0.00     0.025 C 
BRANCH  24  25
HETATM   25  C   UNL     1      43.373 -18.961   1.115  1.00  0.00     0.040 C 
BRANCH  25  26
HETATM   26  C   UNL     1      43.866 -19.946   2.147  1.00  0.00    -0.058 A 
HETATM   27  C   UNL     1      43.901 -21.317   1.859  1.00  0.00     0.007 A 
HETATM   28  C   UNL     1      44.340 -22.232   2.816  1.00  0.00     0.001 A 
HETATM   29  C   UNL     1      44.740 -21.786   4.075  1.00  0.00     0.000 A 
HETATM   30  C   UNL     1      44.700 -20.425   4.375  1.00  0.00     0.001 A 
HETATM   31  C   UNL     1      44.265 -19.508   3.417  1.00  0.00     0.007 A 
ENDBRANCH  25  26
ENDBRANCH  24  25
ENDBRANCH  23  24
ENDBRANCH   1  23
TORSDOF 6
ENDMDL
MODEL 7
REMARK VINA RESULT:      -8.2      2.741      5.424
REMARK  6 active torsions:
REMARK  status: ('A' for Active; 'I' for Inactive)
REMARK    1  A    between atoms: C_4  and  C_5 
REMARK    2  A    between atoms: C_5  and  C_6 
REMARK    3  A    between atoms: C_6  and  C_7 
REMARK    4  A    between atoms: C_7  and  N_8 
REMARK    5  A    between atoms: C_11  and  C_13 
REMARK    6  A    between atoms: C_11  and  O_12 
ROOT
HETATM    1  N   UNL     1      41.030 -15.710   3.622  1.00  0.00    -0.314 N 
HETATM    2  C   UNL     1      41.731 -14.895   4.534  1.00  0.00     0.269 A 
HETATM    3  O   UNL     1      42.611 -15.273   5.295  1.00  0.00    -0.269 OA
HETATM    4  C   UNL     1      41.240 -13.426   4.302  1.00  0.00     0.198 A 
HETATM    5  C   UNL     1      40.176 -13.614   3.246  1.00  0.00     0.017 A 
HETATM    6  C   UNL     1      40.113 -14.961   2.873  1.00  0.00     0.047 A 
HETATM    7  C   UNL     1      39.377 -12.664   2.624  1.00  0.00     0.013 A 
HETATM    8  C   UNL     1      38.491 -13.089   1.633  1.00  0.00     0.001 A 
HETATM    9  C   UNL     1      38.423 -14.444   1.270  1.00  0.00     0.002 A 
HETATM   10  C   UNL     1      39.240 -15.394   1.890  1.00  0.00     0.030 A 
ENDROOT
BRANCH   4  11
HETATM   11  C   UNL     1      40.595 -12.805   5.514  1.00  0.00     0.018 A 
HETATM   12  C   UNL     1      40.693 -11.452   6.009  1.00  0.00     0.002 A 
HETATM   13  C   UNL     1      39.901 -11.362   7.156  1.00  0.00     0.043 A 
HETATM   14  C   UNL     1      41.383 -10.293   5.598  1.00  0.00     0.014 A 
HETATM   15  C   UNL     1      39.764 -10.182   7.900  1.00  0.00     0.030 A 
HETATM   16  N   UNL     1      39.339 -12.597   7.361  1.00  0.00    -0.365 N 
HETATM   17  C   UNL     1      40.461  -9.053   7.465  1.00  0.00     0.002 A 
HETATM   18  C   UNL     1      41.262  -9.105   6.331  1.00  0.00     0.001 A 
HETATM   19  H   UNL     1      38.711 -12.823   8.119  1.00  0.00     0.165 HD
HETATM   20  C   UNL     1      39.747 -13.466   6.392  1.00  0.00     0.100 A 
ENDBRANCH   4  11
BRANCH   4  21
HETATM   21  O   UNL     1      42.282 -12.613   3.761  1.00  0.00    -0.371 OA
HETATM   22  H   UNL     1      42.005 -12.374   2.862  1.00  0.00     0.212 HD
ENDBRANCH   4  21
BRANCH   1  23
HETATM   23  C   UNL     1      41.314 -17.119   3.450  1.00  0.00     0.133 C 
BRANCH  23  24
HETATM   24  C   UNL     1      42.353 -17.413   2.369  1.00  0.00     0.025 C 
BRANCH  24  25
HETATM   25  C   UNL     1      43.724 -17.771   2.943  1.00  0.00     0.040 C 
BRANCH  25  26
HETATM   26  C   UNL     1      43.960 -19.262   2.917  1.00  0.00    -0.058 A 
HETATM   27  C   UNL     1      43.531 -20.028   1.825  1.00  0.00     0.007 A 
HETATM   28  C   UNL     1      43.733 -21.409   1.806  1.00  0.00     0.001 A 
HETATM   29  C   UNL     1      44.358 -22.038   2.882  1.00  0.00     0.000 A 
HETATM   30  C   UNL     1      44.779 -21.285   3.976  1.00  0.00     0.001 A 
HETATM   31  C   UNL     1      44.581 -19.904   3.996  1.00  0.00     0.007 A 
ENDBRANCH  25  26
ENDBRANCH  24  25
ENDBRANCH  23  24
ENDBRANCH   1  23
TORSDOF 6
ENDMDL
MODEL 8
REMARK VINA RESULT:      -7.9      2.372      6.473
REMARK  6 active torsions:
REMARK  status: ('A' for Active; 'I' for Inactive)
REMARK    1  A    between atoms: C_4  and  C_5 
REMARK    2  A    between atoms: C_5  and  C_6 
REMARK    3  A    between atoms: C_6  and  C_7 
REMARK    4  A    between atoms: C_7  and  N_8 
REMARK    5  A    between atoms: C_11  and  C_13 
REMARK    6  A    between atoms: C_11  and  O_12 
ROOT
HETATM    1  N   UNL     1      40.700 -15.723   2.712  1.00  0.00    -0.314 N 
HETATM    2  C   UNL     1      41.587 -16.750   2.328  1.00  0.00     0.269 A 
HETATM    3  O   UNL     1      41.356 -17.611   1.492  1.00  0.00    -0.269 OA
HETATM    4  C   UNL     1      42.930 -16.500   3.095  1.00  0.00     0.198 A 
HETATM    5  C   UNL     1      42.587 -15.302   3.948  1.00  0.00     0.017 A 
HETATM    6  C   UNL     1      41.283 -14.879   3.668  1.00  0.00     0.047 A 
HETATM    7  C   UNL     1      43.384 -14.608   4.849  1.00  0.00     0.013 A 
HETATM    8  C   UNL     1      42.844 -13.490   5.487  1.00  0.00     0.001 A 
HETATM    9  C   UNL     1      41.530 -13.077   5.211  1.00  0.00     0.002 A 
HETATM   10  C   UNL     1      40.738 -13.771   4.292  1.00  0.00     0.030 A 
ENDROOT
BRANCH   4  11
HETATM   11  C   UNL     1      43.323 -17.632   4.009  1.00  0.00     0.018 A 
HETATM   12  C   UNL     1      43.826 -18.944   3.675  1.00  0.00     0.002 A 
HETATM   13  C   UNL     1      44.056 -19.627   4.871  1.00  0.00     0.043 A 
HETATM   14  C   UNL     1      44.101 -19.624   2.470  1.00  0.00     0.014 A 
HETATM   15  C   UNL     1      44.549 -20.938   4.921  1.00  0.00     0.030 A 
HETATM   16  N   UNL     1      43.716 -18.780   5.896  1.00  0.00    -0.365 N 
HETATM   17  C   UNL     1      44.811 -21.581   3.709  1.00  0.00     0.002 A 
HETATM   18  C   UNL     1      44.589 -20.936   2.499  1.00  0.00     0.001 A 
HETATM   19  H   UNL     1      43.789 -19.009   6.877  1.00  0.00     0.165 HD
HETATM   20  C   UNL     1      43.274 -17.590   5.396  1.00  0.00     0.100 A 
ENDBRANCH   4  11
BRANCH   4  21
HETATM   21  O   UNL     1      43.977 -16.136   2.195  1.00  0.00    -0.371 OA
HETATM   22  H   UNL     1      44.788 -16.080   2.726  1.00  0.00     0.212 HD
ENDBRANCH   4  21
BRANCH   1  23
HETATM   23  C   UNL     1      39.397 -15.545   2.109  1.00  0.00     0.133 C 
BRANCH  23  24
HETATM   24  C   UNL     1      39.281 -14.289   1.246  1.00  0.00     0.025 C 
BRANCH  24  25
HETATM   25  C   UNL     1      40.465 -14.111   0.295  1.00  0.00     0.040 C 
BRANCH  25  26
HETATM   26  C   UNL     1      40.113 -14.541  -1.109  1.00  0.00    -0.058 A 
HETATM   27  C   UNL     1      40.934 -15.442  -1.800  1.00  0.00     0.007 A 
HETATM   28  C   UNL     1      40.621 -15.828  -3.104  1.00  0.00     0.001 A 
HETATM   29  C   UNL     1      39.490 -15.310  -3.733  1.00  0.00     0.000 A 
HETATM   30  C   UNL     1      38.673 -14.406  -3.057  1.00  0.00     0.001 A 
HETATM   31  C   UNL     1      38.982 -14.021  -1.751  1.00  0.00     0.007 A 
ENDBRANCH  25  26
ENDBRANCH  24  25
ENDBRANCH  23  24
ENDBRANCH   1  23
TORSDOF 6
ENDMDL
MODEL 9
REMARK VINA RESULT:      -7.9      2.918      5.465
REMARK  6 active torsions:
REMARK  status: ('A' for Active; 'I' for Inactive)
REMARK    1  A    between atoms: C_4  and  C_5 
REMARK    2  A    between atoms: C_5  and  C_6 
REMARK    3  A    between atoms: C_6  and  C_7 
REMARK    4  A    between atoms: C_7  and  N_8 
REMARK    5  A    between atoms: C_11  and  C_13 
REMARK    6  A    between atoms: C_11  and  O_12 
ROOT
HETATM    1  N   UNL     1      41.004 -15.631   1.574  1.00  0.00    -0.314 N 
HETATM    2  C   UNL     1      41.148 -14.638   2.565  1.00  0.00     0.269 A 
HETATM    3  O   UNL     1      41.075 -14.822   3.772  1.00  0.00    -0.269 OA
HETATM    4  C   UNL     1      41.518 -13.307   1.825  1.00  0.00     0.198 A 
HETATM    5  C   UNL     1      41.462 -13.728   0.376  1.00  0.00     0.017 A 
HETATM    6  C   UNL     1      41.180 -15.096   0.290  1.00  0.00     0.047 A 
HETATM    7  C   UNL     1      41.703 -12.977  -0.768  1.00  0.00     0.013 A 
HETATM    8  C   UNL     1      41.633 -13.615  -2.007  1.00  0.00     0.001 A 
HETATM    9  C   UNL     1      41.338 -14.986  -2.087  1.00  0.00     0.002 A 
HETATM   10  C   UNL     1      41.111 -15.740  -0.932  1.00  0.00     0.030 A 
ENDROOT
BRANCH   4  11
HETATM   11  C   UNL     1      40.515 -12.201   2.033  1.00  0.00     0.018 A 
HETATM   12  C   UNL     1      39.143 -12.118   1.592  1.00  0.00     0.002 A 
HETATM   13  C   UNL     1      38.626 -10.901   2.044  1.00  0.00     0.043 A 
HETATM   14  C   UNL     1      38.287 -12.955   0.846  1.00  0.00     0.014 A 
HETATM   15  C   UNL     1      37.310 -10.489   1.794  1.00  0.00     0.030 A 
HETATM   16  N   UNL     1      39.628 -10.263   2.732  1.00  0.00    -0.365 N 
HETATM   17  C   UNL     1      36.491 -11.342   1.052  1.00  0.00     0.002 A 
HETATM   18  C   UNL     1      36.971 -12.558   0.581  1.00  0.00     0.001 A 
HETATM   19  H   UNL     1      39.534  -9.362   3.178  1.00  0.00     0.165 HD
HETATM   20  C   UNL     1      40.759 -11.025   2.730  1.00  0.00     0.100 A 
ENDBRANCH   4  11
BRANCH   4  21
HETATM   21  O   UNL     1      42.852 -12.900   2.132  1.00  0.00    -0.371 OA
HETATM   22  H   UNL     1      43.358 -13.714   2.285  1.00  0.00     0.212 HD
ENDBRANCH   4  21
BRANCH   1  23
HETATM   23  C   UNL     1      40.791 -17.027   1.888  1.00  0.00     0.133 C 
BRANCH  23  24
HETATM   24  C   UNL     1      41.964 -17.931   1.512  1.00  0.00     0.025 C 
BRANCH  24  25
HETATM   25  C   UNL     1      43.042 -17.986   2.595  1.00  0.00     0.040 C 
BRANCH  25  26
HETATM   26  C   UNL     1      43.565 -19.390   2.781  1.00  0.00    -0.058 A 
HETATM   27  C   UNL     1      44.278 -19.733   3.938  1.00  0.00     0.007 A 
HETATM   28  C   UNL     1      44.778 -21.025   4.105  1.00  0.00     0.001 A 
HETATM   29  C   UNL     1      44.577 -21.985   3.114  1.00  0.00     0.000 A 
HETATM   30  C   UNL     1      43.877 -21.650   1.956  1.00  0.00     0.001 A 
HETATM   31  C   UNL     1      43.374 -20.359   1.788  1.00  0.00     0.007 A 
ENDBRANCH  25  26
ENDBRANCH  24  25
ENDBRANCH  23  24
ENDBRANCH   1  23
TORSDOF 6
ENDMDL
MODEL 10
REMARK VINA RESULT:      -7.9      2.353      3.245
REMARK  6 active torsions:
REMARK  status: ('A' for Active; 'I' for Inactive)
REMARK    1  A    between atoms: C_4  and  C_5 
REMARK    2  A    between atoms: C_5  and  C_6 
REMARK    3  A    between atoms: C_6  and  C_7 
REMARK    4  A    between atoms: C_7  and  N_8 
REMARK    5  A    between atoms: C_11  and  C_13 
REMARK    6  A    between atoms: C_11  and  O_12 
ROOT
HETATM    1  N   UNL     1      41.352 -16.111   3.544  1.00  0.00    -0.314 N 
HETATM    2  C   UNL     1      40.376 -15.203   3.084  1.00  0.00     0.269 A 
HETATM    3  O   UNL     1      39.476 -15.465   2.299  1.00  0.00    -0.269 OA
HETATM    4  C   UNL     1      40.612 -13.856   3.849  1.00  0.00     0.198 A 
HETATM    5  C   UNL     1      41.843 -14.170   4.665  1.00  0.00     0.017 A 
HETATM    6  C   UNL     1      42.217 -15.503   4.465  1.00  0.00     0.047 A 
HETATM    7  C   UNL     1      42.535 -13.362   5.558  1.00  0.00     0.013 A 
HETATM    8  C   UNL     1      43.629 -13.906   6.233  1.00  0.00     0.001 A 
HETATM    9  C   UNL     1      44.007 -15.241   6.019  1.00  0.00     0.002 A 
HETATM   10  C   UNL     1      43.298 -16.054   5.130  1.00  0.00     0.030 A 
ENDROOT
BRANCH   4  11
HETATM   11  C   UNL     1      40.931 -12.695   2.944  1.00  0.00     0.018 A 
HETATM   12  C   UNL     1      41.421 -12.703   1.585  1.00  0.00     0.002 A 
HETATM   13  C   UNL     1      41.546 -11.375   1.172  1.00  0.00     0.043 A 
HETATM   14  C   UNL     1      41.778 -13.711   0.665  1.00  0.00     0.014 A 
HETATM   15  C   UNL     1      42.000 -11.010  -0.103  1.00  0.00     0.030 A 
HETATM   16  N   UNL     1      41.152 -10.582   2.221  1.00  0.00    -0.365 N 
HETATM   17  C   UNL     1      42.345 -12.033  -0.989  1.00  0.00     0.002 A 
HETATM   18  C   UNL     1      42.239 -13.366  -0.612  1.00  0.00     0.001 A 
HETATM   19  H   UNL     1      41.133  -9.573   2.202  1.00  0.00     0.165 HD
HETATM   20  C   UNL     1      40.787 -11.356   3.283  1.00  0.00     0.100 A 
ENDBRANCH   4  11
BRANCH   4  21
HETATM   21  O   UNL     1      39.532 -13.574   4.740  1.00  0.00    -0.371 OA
HETATM   22  H   UNL     1      39.925 -13.161   5.525  1.00  0.00     0.212 HD
ENDBRANCH   4  21
BRANCH   1  23
HETATM   23  C   UNL     1      41.370 -17.506   3.159  1.00  0.00     0.133 C 
BRANCH  23  24
HETATM   24  C   UNL     1      42.146 -17.782   1.871  1.00  0.00     0.025 C 
BRANCH  24  25
HETATM   25  C   UNL     1      43.642 -17.984   2.111  1.00  0.00     0.040 C 
BRANCH  25  26
HETATM   26  C   UNL     1      43.948 -19.404   2.519  1.00  0.00    -0.058 A 
HETATM   27  C   UNL     1      43.633 -20.471   1.667  1.00  0.00     0.007 A 
HETATM   28  C   UNL     1      43.900 -21.786   2.050  1.00  0.00     0.001 A 
HETATM   29  C   UNL     1      44.474 -22.048   3.293  1.00  0.00     0.000 A 
HETATM   30  C   UNL     1      44.782 -20.994   4.152  1.00  0.00     0.001 A 
HETATM   31  C   UNL     1      44.520 -19.678   3.769  1.00  0.00     0.007 A 
ENDBRANCH  25  26
ENDBRANCH  24  25
ENDBRANCH  23  24
ENDBRANCH   1  23
TORSDOF 6
ENDMDL
