MODEL 1
REMARK VINA RESULT:     -10.0      0.000      0.000
REMARK  7 active torsions:
REMARK  status: ('A' for Active; 'I' for Inactive)
REMARK    1  A    between atoms: C_4  and  C_5 
REMARK    2  A    between atoms: C_5  and  C_6 
REMARK       I    between atoms: C_6  and  N_7 
REMARK    3  A    between atoms: N_7  and  C_8 
REMARK    4  A    between atoms: C_11  and  C_12 
REMARK       I    between atoms: C_12  and  N_13 
REMARK    5  A    between atoms: N_13  and  C_14 
REMARK    6  A    between atoms: C_15  and  C_16 
REMARK       I    between atoms: C_16  and  N_17 
REMARK    7  A    between atoms: N_20  and  C_21 
ROOT
HETATM    1  C   UNL     1      40.707 -11.213   4.231  1.00  0.00     0.256 C 
HETATM    2  N   UNL     1      39.982 -12.378   3.961  1.00  0.00    -0.322 N 
HETATM    3  O   UNL     1      40.951 -10.343   3.396  1.00  0.00    -0.267 OA
HETATM    4  H   UNL     1      40.337 -13.188   4.450  1.00  0.00     0.169 HD
ENDROOT
BRANCH   2   5
HETATM    5  C   UNL     1      39.540 -12.600   2.632  1.00  0.00     0.050 C 
HETATM    6  C   UNL     1      40.189 -13.450   1.709  1.00  0.00     0.059 C 
HETATM    7  C   UNL     1      39.447 -13.891   0.601  1.00  0.00     0.019 C 
HETATM    8  C   UNL     1      38.189 -13.357   0.307  1.00  0.00     0.001 C 
HETATM    9  C   UNL     1      37.639 -12.387   1.134  1.00  0.00     0.002 C 
HETATM   10  C   UNL     1      38.305 -12.017   2.300  1.00  0.00     0.030 C 
BRANCH   6  11
HETATM   11  C   UNL     1      41.633 -13.862   1.866  1.00  0.00     0.256 C 
HETATM   12  N   UNL     1      41.991 -15.213   2.056  1.00  0.00    -0.345 N 
HETATM   13  C   UNL     1      41.084 -16.374   2.041  1.00  0.00     0.146 C 
HETATM   14  C   UNL     1      43.308 -15.454   2.672  1.00  0.00     0.146 C 
HETATM   15  C   UNL     1      41.767 -17.713   1.689  1.00  0.00     0.143 C 
HETATM   16  N   UNL     1      42.972 -17.890   2.523  1.00  0.00    -0.378 N 
HETATM   17  C   UNL     1      43.946 -16.805   2.305  1.00  0.00     0.143 C 
HETATM   18  O   UNL     1      42.524 -13.016   1.788  1.00  0.00    -0.267 OA
BRANCH  16  19
HETATM   19  C   UNL     1      43.427 -19.203   2.649  1.00  0.00     0.030 A 
HETATM   20  C   UNL     1      43.113 -20.226   1.744  1.00  0.00     0.029 A 
HETATM   21  C   UNL     1      43.637 -21.516   1.890  1.00  0.00     0.002 A 
HETATM   22  C   UNL     1      44.495 -21.810   2.945  1.00  0.00     0.000 A 
HETATM   23  C   UNL     1      44.827 -20.813   3.855  1.00  0.00     0.002 A 
HETATM   24  C   UNL     1      44.296 -19.528   3.706  1.00  0.00     0.029 A 
ENDBRANCH  16  19
ENDBRANCH   6  11
ENDBRANCH   2   5
BRANCH   1  25
HETATM   25  C   UNL     1      41.353 -11.110   5.576  1.00  0.00     0.032 A 
HETATM   26  C   UNL     1      41.180 -10.023   6.439  1.00  0.00     0.019 A 
HETATM   27  C   UNL     1      41.725 -10.050   7.733  1.00  0.00     0.030 A 
HETATM   28  C   UNL     1      42.467 -11.149   8.172  1.00  0.00     0.034 A 
HETATM   29  C   UNL     1      42.695 -12.205   7.284  1.00  0.00     0.030 A 
HETATM   30  C   UNL     1      42.139 -12.189   6.003  1.00  0.00     0.019 A 
BRANCH  28  31
HETATM   31  N   UNL     1      42.992 -11.287   9.472  1.00  0.00    -0.327 N 
HETATM   32  C   UNL     1      44.258 -10.944   9.917  1.00  0.00     0.226 C 
HETATM   33  O   UNL     1      45.182 -10.517   9.231  1.00  0.00    -0.273 OA
HETATM   34  H   UNL     1      42.353 -11.651  10.167  1.00  0.00     0.169 HD
BRANCH  32  35
HETATM   35  C   UNL     1      44.413 -11.114  11.423  1.00  0.00     0.141 C 
BRANCH  35  36
HETATM   36  C   UNL     1      43.381 -10.347  12.207  1.00  0.00    -0.050 A 
HETATM   37  C   UNL     1      43.187  -8.980  11.962  1.00  0.00     0.007 A 
HETATM   38  C   UNL     1      42.237  -8.260  12.685  1.00  0.00     0.001 A 
HETATM   39  C   UNL     1      41.476  -8.895  13.664  1.00  0.00     0.000 A 
HETATM   40  C   UNL     1      41.666 -10.252  13.922  1.00  0.00     0.001 A 
HETATM   41  C   UNL     1      42.614 -10.976  13.197  1.00  0.00     0.007 A 
ENDBRANCH  35  36
ENDBRANCH  32  35
ENDBRANCH  28  31
ENDBRANCH   1  25
TORSDOF 7
ENDMDL
MODEL 2
REMARK VINA RESULT:      -9.9      1.851      2.853
REMARK  7 active torsions:
REMARK  status: ('A' for Active; 'I' for Inactive)
REMARK    1  A    between atoms: C_4  and  C_5 
REMARK    2  A    between atoms: C_5  and  C_6 
REMARK       I    between atoms: C_6  and  N_7 
REMARK    3  A    between atoms: N_7  and  C_8 
REMARK    4  A    between atoms: C_11  and  C_12 
REMARK       I    between atoms: C_12  and  N_13 
REMARK    5  A    between atoms: N_13  and  C_14 
REMARK    6  A    between atoms: C_15  and  C_16 
REMARK       I    between atoms: C_16  and  N_17 
REMARK    7  A    between atoms: N_20  and  C_21 
ROOT
HETATM    1  C   UNL     1      42.293 -12.700   2.571  1.00  0.00     0.256 C 
HETATM    2  N   UNL     1      41.504 -12.252   1.506  1.00  0.00    -0.322 N 
HETATM    3  O   UNL     1      43.182 -13.544   2.463  1.00  0.00    -0.267 OA
HETATM    4  H   UNL     1      40.543 -12.082   1.769  1.00  0.00     0.169 HD
ENDROOT
BRANCH   2   5
HETATM    5  C   UNL     1      41.704 -12.837   0.230  1.00  0.00     0.050 C 
HETATM    6  C   UNL     1      41.122 -14.055  -0.187  1.00  0.00     0.059 C 
HETATM    7  C   UNL     1      41.066 -14.308  -1.568  1.00  0.00     0.019 C 
HETATM    8  C   UNL     1      41.736 -13.493  -2.485  1.00  0.00     0.001 C 
HETATM    9  C   UNL     1      42.455 -12.392  -2.038  1.00  0.00     0.002 C 
HETATM   10  C   UNL     1      42.430 -12.056  -0.686  1.00  0.00     0.030 C 
BRANCH   6  11
HETATM   11  C   UNL     1      40.599 -15.078   0.792  1.00  0.00     0.256 C 
HETATM   12  N   UNL     1      41.385 -16.182   1.186  1.00  0.00    -0.345 N 
HETATM   13  C   UNL     1      42.782 -16.449   0.803  1.00  0.00     0.146 C 
HETATM   14  C   UNL     1      40.651 -17.339   1.727  1.00  0.00     0.146 C 
HETATM   15  C   UNL     1      43.556 -17.344   1.793  1.00  0.00     0.143 C 
HETATM   16  N   UNL     1      42.764 -18.553   2.092  1.00  0.00    -0.378 N 
HETATM   17  C   UNL     1      41.464 -18.212   2.698  1.00  0.00     0.143 C 
HETATM   18  O   UNL     1      39.484 -14.933   1.294  1.00  0.00    -0.267 OA
BRANCH  16  19
HETATM   19  C   UNL     1      43.487 -19.638   2.589  1.00  0.00     0.030 A 
HETATM   20  C   UNL     1      44.126 -19.640   3.836  1.00  0.00     0.029 A 
HETATM   21  C   UNL     1      44.798 -20.773   4.310  1.00  0.00     0.002 A 
HETATM   22  C   UNL     1      44.839 -21.935   3.546  1.00  0.00     0.000 A 
HETATM   23  C   UNL     1      44.209 -21.962   2.307  1.00  0.00     0.002 A 
HETATM   24  C   UNL     1      43.545 -20.825   1.838  1.00  0.00     0.029 A 
ENDBRANCH  16  19
ENDBRANCH   6  11
ENDBRANCH   2   5
BRANCH   1  25
HETATM   25  C   UNL     1      41.913 -12.237   3.942  1.00  0.00     0.032 A 
HETATM   26  C   UNL     1      42.187 -12.959   5.108  1.00  0.00     0.019 A 
HETATM   27  C   UNL     1      41.904 -12.406   6.367  1.00  0.00     0.030 A 
HETATM   28  C   UNL     1      41.323 -11.141   6.477  1.00  0.00     0.034 A 
HETATM   29  C   UNL     1      40.989 -10.450   5.308  1.00  0.00     0.030 A 
HETATM   30  C   UNL     1      41.286 -10.989   4.055  1.00  0.00     0.019 A 
BRANCH  28  31
HETATM   31  N   UNL     1      41.067 -10.485   7.698  1.00  0.00    -0.327 N 
HETATM   32  C   UNL     1      41.979 -10.135   8.680  1.00  0.00     0.226 C 
HETATM   33  O   UNL     1      43.177 -10.400   8.691  1.00  0.00    -0.273 OA
HETATM   34  H   UNL     1      40.106 -10.210   7.856  1.00  0.00     0.169 HD
BRANCH  32  35
HETATM   35  C   UNL     1      41.347  -9.313   9.796  1.00  0.00     0.141 C 
BRANCH  35  36
HETATM   36  C   UNL     1      41.796  -9.745  11.167  1.00  0.00    -0.050 A 
HETATM   37  C   UNL     1      41.153 -10.813  11.810  1.00  0.00     0.007 A 
HETATM   38  C   UNL     1      41.558 -11.219  13.081  1.00  0.00     0.001 A 
HETATM   39  C   UNL     1      42.602 -10.560  13.726  1.00  0.00     0.000 A 
HETATM   40  C   UNL     1      43.244  -9.493  13.099  1.00  0.00     0.001 A 
HETATM   41  C   UNL     1      42.843  -9.086  11.825  1.00  0.00     0.007 A 
ENDBRANCH  35  36
ENDBRANCH  32  35
ENDBRANCH  28  31
ENDBRANCH   1  25
TORSDOF 7
ENDMDL
MODEL 3
REMARK VINA RESULT:      -9.8      1.613      1.932
REMARK  7 active torsions:
REMARK  status: ('A' for Active; 'I' for Inactive)
REMARK    1  A    between atoms: C_4  and  C_5 
REMARK    2  A    between atoms: C_5  and  C_6 
REMARK       I    between atoms: C_6  and  N_7 
REMARK    3  A    between atoms: N_7  and  C_8 
REMARK    4  A    between atoms: C_11  and  C_12 
REMARK       I    between atoms: C_12  and  N_13 
REMARK    5  A    between atoms: N_13  and  C_14 
REMARK    6  A    between atoms: C_15  and  C_16 
REMARK       I    between atoms: C_16  and  N_17 
REMARK    7  A    between atoms: N_20  and  C_21 
ROOT
HETATM    1  C   UNL     1      39.916 -11.586   3.600  1.00  0.00     0.256 C 
HETATM    2  N   UNL     1      39.340 -12.754   3.089  1.00  0.00    -0.322 N 
HETATM    3  O   UNL     1      40.360 -10.675   2.904  1.00  0.00    -0.267 OA
HETATM    4  H   UNL     1      39.567 -13.577   3.630  1.00  0.00     0.169 HD
ENDROOT
BRANCH   2   5
HETATM    5  C   UNL     1      39.308 -12.926   1.682  1.00  0.00     0.050 C 
HETATM    6  C   UNL     1      40.256 -13.674   0.949  1.00  0.00     0.059 C 
HETATM    7  C   UNL     1      39.893 -14.097  -0.340  1.00  0.00     0.019 C 
HETATM    8  C   UNL     1      38.728 -13.631  -0.958  1.00  0.00     0.001 C 
HETATM    9  C   UNL     1      37.891 -12.751  -0.285  1.00  0.00     0.002 C 
HETATM   10  C   UNL     1      38.172 -12.408   1.035  1.00  0.00     0.030 C 
BRANCH   6  11
HETATM   11  C   UNL     1      41.627 -13.996   1.494  1.00  0.00     0.256 C 
HETATM   12  N   UNL     1      42.006 -15.326   1.775  1.00  0.00    -0.345 N 
HETATM   13  C   UNL     1      41.216 -16.541   1.514  1.00  0.00     0.146 C 
HETATM   14  C   UNL     1      43.120 -15.494   2.726  1.00  0.00     0.146 C 
HETATM   15  C   UNL     1      42.054 -17.828   1.362  1.00  0.00     0.143 C 
HETATM   16  N   UNL     1      42.996 -17.943   2.492  1.00  0.00    -0.378 N 
HETATM   17  C   UNL     1      43.919 -16.796   2.547  1.00  0.00     0.143 C 
HETATM   18  O   UNL     1      42.448 -13.095   1.661  1.00  0.00    -0.267 OA
BRANCH  16  19
HETATM   19  C   UNL     1      43.484 -19.227   2.739  1.00  0.00     0.030 A 
HETATM   20  C   UNL     1      43.387 -20.285   1.825  1.00  0.00     0.029 A 
HETATM   21  C   UNL     1      43.939 -21.542   2.102  1.00  0.00     0.002 A 
HETATM   22  C   UNL     1      44.607 -21.766   3.301  1.00  0.00     0.000 A 
HETATM   23  C   UNL     1      44.722 -20.733   4.224  1.00  0.00     0.002 A 
HETATM   24  C   UNL     1      44.165 -19.482   3.943  1.00  0.00     0.029 A 
ENDBRANCH  16  19
ENDBRANCH   6  11
ENDBRANCH   2   5
BRANCH   1  25
HETATM   25  C   UNL     1      40.143 -11.530   5.078  1.00  0.00     0.032 A 
HETATM   26  C   UNL     1      41.100 -10.710   5.684  1.00  0.00     0.019 A 
HETATM   27  C   UNL     1      41.176 -10.625   7.084  1.00  0.00     0.030 A 
HETATM   28  C   UNL     1      40.318 -11.372   7.893  1.00  0.00     0.034 A 
HETATM   29  C   UNL     1      39.407 -12.241   7.284  1.00  0.00     0.030 A 
HETATM   30  C   UNL     1      39.316 -12.315   5.892  1.00  0.00     0.019 A 
BRANCH  28  31
HETATM   31  N   UNL     1      40.281 -11.297   9.299  1.00  0.00    -0.327 N 
HETATM   32  C   UNL     1      39.756 -10.282  10.081  1.00  0.00     0.226 C 
HETATM   33  O   UNL     1      39.285  -9.222   9.681  1.00  0.00    -0.273 OA
HETATM   34  H   UNL     1      40.655 -12.098   9.792  1.00  0.00     0.169 HD
BRANCH  32  35
HETATM   35  C   UNL     1      39.775 -10.620  11.566  1.00  0.00     0.141 C 
BRANCH  35  36
HETATM   36  C   UNL     1      41.077 -10.258  12.232  1.00  0.00    -0.050 A 
HETATM   37  C   UNL     1      42.139  -9.756  11.467  1.00  0.00     0.007 A 
HETATM   38  C   UNL     1      43.350  -9.421  12.072  1.00  0.00     0.001 A 
HETATM   39  C   UNL     1      43.515  -9.591  13.445  1.00  0.00     0.000 A 
HETATM   40  C   UNL     1      42.468 -10.097  14.214  1.00  0.00     0.001 A 
HETATM   41  C   UNL     1      41.253 -10.429  13.612  1.00  0.00     0.007 A 
ENDBRANCH  35  36
ENDBRANCH  32  35
ENDBRANCH  28  31
ENDBRANCH   1  25
TORSDOF 7
ENDMDL
MODEL 4
REMARK VINA RESULT:      -9.6      2.451      9.898
REMARK  7 active torsions:
REMARK  status: ('A' for Active; 'I' for Inactive)
REMARK    1  A    between atoms: C_4  and  C_5 
REMARK    2  A    between atoms: C_5  and  C_6 
REMARK       I    between atoms: C_6  and  N_7 
REMARK    3  A    between atoms: N_7  and  C_8 
REMARK    4  A    between atoms: C_11  and  C_12 
REMARK       I    between atoms: C_12  and  N_13 
REMARK    5  A    between atoms: N_13  and  C_14 
REMARK    6  A    between atoms: C_15  and  C_16 
REMARK       I    between atoms: C_16  and  N_17 
REMARK    7  A    between atoms: N_20  and  C_21 
ROOT
HETATM    1  C   UNL     1      40.793 -12.355   3.403  1.00  0.00     0.256 C 
HETATM    2  N   UNL     1      41.453 -11.159   3.706  1.00  0.00    -0.322 N 
HETATM    3  O   UNL     1      39.641 -12.418   2.976  1.00  0.00    -0.267 OA
HETATM    4  H   UNL     1      42.044 -11.228   4.523  1.00  0.00     0.169 HD
ENDROOT
BRANCH   2   5
HETATM    5  C   UNL     1      40.738  -9.943   3.560  1.00  0.00     0.050 C 
HETATM    6  C   UNL     1      39.944  -9.359   4.571  1.00  0.00     0.059 C 
HETATM    7  C   UNL     1      39.635  -7.995   4.447  1.00  0.00     0.019 C 
HETATM    8  C   UNL     1      39.923  -7.286   3.277  1.00  0.00     0.001 C 
HETATM    9  C   UNL     1      40.550  -7.926   2.217  1.00  0.00     0.002 C 
HETATM   10  C   UNL     1      40.969  -9.247   2.360  1.00  0.00     0.030 C 
BRANCH   6  11
HETATM   11  C   UNL     1      39.409 -10.154   5.738  1.00  0.00     0.256 C 
HETATM   12  N   UNL     1      40.080 -10.171   6.979  1.00  0.00    -0.345 N 
HETATM   13  C   UNL     1      41.280  -9.396   7.342  1.00  0.00     0.146 C 
HETATM   14  C   UNL     1      39.780 -11.312   7.862  1.00  0.00     0.146 C 
HETATM   15  C   UNL     1      41.445  -9.149   8.856  1.00  0.00     0.143 C 
HETATM   16  N   UNL     1      41.298 -10.422   9.586  1.00  0.00    -0.378 N 
HETATM   17  C   UNL     1      39.972 -11.025   9.362  1.00  0.00     0.143 C 
HETATM   18  O   UNL     1      38.348 -10.769   5.627  1.00  0.00    -0.267 OA
BRANCH  16  19
HETATM   19  C   UNL     1      41.853 -10.449  10.867  1.00  0.00     0.030 A 
HETATM   20  C   UNL     1      43.103  -9.900  11.184  1.00  0.00     0.029 A 
HETATM   21  C   UNL     1      43.593  -9.909  12.496  1.00  0.00     0.002 A 
HETATM   22  C   UNL     1      42.836 -10.465  13.523  1.00  0.00     0.000 A 
HETATM   23  C   UNL     1      41.591 -11.012  13.238  1.00  0.00     0.002 A 
HETATM   24  C   UNL     1      41.111 -11.004  11.924  1.00  0.00     0.029 A 
ENDBRANCH  16  19
ENDBRANCH   6  11
ENDBRANCH   2   5
BRANCH   1  25
HETATM   25  C   UNL     1      41.484 -13.627   3.780  1.00  0.00     0.032 A 
HETATM   26  C   UNL     1      41.135 -14.880   3.265  1.00  0.00     0.019 A 
HETATM   27  C   UNL     1      41.904 -16.013   3.576  1.00  0.00     0.030 A 
HETATM   28  C   UNL     1      43.012 -15.915   4.420  1.00  0.00     0.034 A 
HETATM   29  C   UNL     1      43.319 -14.673   4.985  1.00  0.00     0.030 A 
HETATM   30  C   UNL     1      42.567 -13.541   4.664  1.00  0.00     0.019 A 
BRANCH  28  31
HETATM   31  N   UNL     1      43.875 -16.984   4.730  1.00  0.00    -0.327 N 
HETATM   32  C   UNL     1      43.559 -18.171   5.371  1.00  0.00     0.226 C 
HETATM   33  O   UNL     1      42.470 -18.474   5.849  1.00  0.00    -0.273 OA
HETATM   34  H   UNL     1      44.832 -16.883   4.416  1.00  0.00     0.169 HD
BRANCH  32  35
HETATM   35  C   UNL     1      44.729 -19.146   5.404  1.00  0.00     0.141 C 
BRANCH  35  36
HETATM   36  C   UNL     1      44.604 -20.245   4.383  1.00  0.00    -0.050 A 
HETATM   37  C   UNL     1      44.221 -19.940   3.069  1.00  0.00     0.007 A 
HETATM   38  C   UNL     1      44.099 -20.951   2.115  1.00  0.00     0.001 A 
HETATM   39  C   UNL     1      44.351 -22.275   2.465  1.00  0.00     0.000 A 
HETATM   40  C   UNL     1      44.725 -22.591   3.771  1.00  0.00     0.001 A 
HETATM   41  C   UNL     1      44.852 -21.581   4.726  1.00  0.00     0.007 A 
ENDBRANCH  35  36
ENDBRANCH  32  35
ENDBRANCH  28  31
ENDBRANCH   1  25
TORSDOF 7
ENDMDL
MODEL 5
REMARK VINA RESULT:      -9.6      2.636      6.082
REMARK  7 active torsions:
REMARK  status: ('A' for Active; 'I' for Inactive)
REMARK    1  A    between atoms: C_4  and  C_5 
REMARK    2  A    between atoms: C_5  and  C_6 
REMARK       I    between atoms: C_6  and  N_7 
REMARK    3  A    between atoms: N_7  and  C_8 
REMARK    4  A    between atoms: C_11  and  C_12 
REMARK       I    between atoms: C_12  and  N_13 
REMARK    5  A    between atoms: N_13  and  C_14 
REMARK    6  A    between atoms: C_15  and  C_16 
REMARK       I    between atoms: C_16  and  N_17 
REMARK    7  A    between atoms: N_20  and  C_21 
ROOT
HETATM    1  C   UNL     1      43.279 -16.859   5.478  1.00  0.00     0.256 C 
HETATM    2  N   UNL     1      43.890 -17.073   4.238  1.00  0.00    -0.322 N 
HETATM    3  O   UNL     1      42.482 -17.638   5.998  1.00  0.00    -0.267 OA
HETATM    4  H   UNL     1      43.996 -16.227   3.696  1.00  0.00     0.169 HD
ENDROOT
BRANCH   2   5
HETATM    5  C   UNL     1      43.537 -18.237   3.508  1.00  0.00     0.050 C 
HETATM    6  C   UNL     1      42.509 -18.289   2.541  1.00  0.00     0.059 C 
HETATM    7  C   UNL     1      42.533 -19.353   1.625  1.00  0.00     0.019 C 
HETATM    8  C   UNL     1      43.412 -20.430   1.782  1.00  0.00     0.001 C 
HETATM    9  C   UNL     1      44.302 -20.447   2.848  1.00  0.00     0.002 C 
HETATM   10  C   UNL     1      44.375 -19.349   3.702  1.00  0.00     0.030 C 
BRANCH   6  11
HETATM   11  C   UNL     1      41.397 -17.269   2.488  1.00  0.00     0.256 C 
HETATM   12  N   UNL     1      41.255 -16.400   1.386  1.00  0.00    -0.345 N 
HETATM   13  C   UNL     1      42.057 -16.407   0.150  1.00  0.00     0.146 C 
HETATM   14  C   UNL     1      40.490 -15.164   1.629  1.00  0.00     0.146 C 
HETATM   15  C   UNL     1      41.349 -15.791  -1.075  1.00  0.00     0.143 C 
HETATM   16  N   UNL     1      40.794 -14.472  -0.715  1.00  0.00    -0.378 N 
HETATM   17  C   UNL     1      39.813 -14.577   0.379  1.00  0.00     0.143 C 
HETATM   18  O   UNL     1      40.571 -17.214   3.399  1.00  0.00    -0.267 OA
BRANCH  16  19
HETATM   19  C   UNL     1      40.534 -13.617  -1.787  1.00  0.00     0.030 A 
HETATM   20  C   UNL     1      39.254 -13.150  -2.117  1.00  0.00     0.029 A 
HETATM   21  C   UNL     1      39.054 -12.253  -3.174  1.00  0.00     0.002 A 
HETATM   22  C   UNL     1      40.135 -11.797  -3.921  1.00  0.00     0.000 A 
HETATM   23  C   UNL     1      41.416 -12.240  -3.613  1.00  0.00     0.002 A 
HETATM   24  C   UNL     1      41.608 -13.140  -2.560  1.00  0.00     0.029 A 
ENDBRANCH  16  19
ENDBRANCH   6  11
ENDBRANCH   2   5
BRANCH   1  25
HETATM   25  C   UNL     1      43.492 -15.524   6.119  1.00  0.00     0.032 A 
HETATM   26  C   UNL     1      42.691 -14.406   5.867  1.00  0.00     0.019 A 
HETATM   27  C   UNL     1      42.880 -13.219   6.595  1.00  0.00     0.030 A 
HETATM   28  C   UNL     1      43.883 -13.127   7.561  1.00  0.00     0.034 A 
HETATM   29  C   UNL     1      44.726 -14.225   7.764  1.00  0.00     0.030 A 
HETATM   30  C   UNL     1      44.528 -15.412   7.055  1.00  0.00     0.019 A 
BRANCH  28  31
HETATM   31  N   UNL     1      44.099 -12.001   8.381  1.00  0.00    -0.327 N 
HETATM   32  C   UNL     1      44.313 -11.976   9.749  1.00  0.00     0.226 C 
HETATM   33  O   UNL     1      44.283 -12.939  10.510  1.00  0.00    -0.273 OA
HETATM   34  H   UNL     1      44.134 -11.110   7.903  1.00  0.00     0.169 HD
BRANCH  32  35
HETATM   35  C   UNL     1      44.646 -10.582  10.262  1.00  0.00     0.141 C 
BRANCH  35  36
HETATM   36  C   UNL     1      43.595 -10.033  11.191  1.00  0.00    -0.050 A 
HETATM   37  C   UNL     1      42.355  -9.621  10.681  1.00  0.00     0.007 A 
HETATM   38  C   UNL     1      41.376  -9.109  11.531  1.00  0.00     0.001 A 
HETATM   39  C   UNL     1      41.626  -8.996  12.897  1.00  0.00     0.000 A 
HETATM   40  C   UNL     1      42.857  -9.395  13.414  1.00  0.00     0.001 A 
HETATM   41  C   UNL     1      43.838  -9.913  12.566  1.00  0.00     0.007 A 
ENDBRANCH  35  36
ENDBRANCH  32  35
ENDBRANCH  28  31
ENDBRANCH   1  25
TORSDOF 7
ENDMDL
MODEL 6
REMARK VINA RESULT:      -9.4      1.843      2.477
REMARK  7 active torsions:
REMARK  status: ('A' for Active; 'I' for Inactive)
REMARK    1  A    between atoms: C_4  and  C_5 
REMARK    2  A    between atoms: C_5  and  C_6 
REMARK       I    between atoms: C_6  and  N_7 
REMARK    3  A    between atoms: N_7  and  C_8 
REMARK    4  A    between atoms: C_11  and  C_12 
REMARK       I    between atoms: C_12  and  N_13 
REMARK    5  A    between atoms: N_13  and  C_14 
REMARK    6  A    between atoms: C_15  and  C_16 
REMARK       I    between atoms: C_16  and  N_17 
REMARK    7  A    between atoms: N_20  and  C_21 
ROOT
HETATM    1  C   UNL     1      39.554 -11.479   5.525  1.00  0.00     0.256 C 
HETATM    2  N   UNL     1      40.047 -10.902   4.349  1.00  0.00    -0.322 N 
HETATM    3  O   UNL     1      38.577 -12.225   5.571  1.00  0.00    -0.267 OA
HETATM    4  H   UNL     1      40.381  -9.957   4.481  1.00  0.00     0.169 HD
ENDROOT
BRANCH   2   5
HETATM    5  C   UNL     1      39.351 -11.150   3.138  1.00  0.00     0.050 C 
HETATM    6  C   UNL     1      39.756 -12.090   2.165  1.00  0.00     0.059 C 
HETATM    7  C   UNL     1      38.792 -12.521   1.239  1.00  0.00     0.019 C 
HETATM    8  C   UNL     1      37.541 -11.902   1.147  1.00  0.00     0.001 C 
HETATM    9  C   UNL     1      37.224 -10.854   2.001  1.00  0.00     0.002 C 
HETATM   10  C   UNL     1      38.119 -10.486   3.002  1.00  0.00     0.030 C 
BRANCH   6  11
HETATM   11  C   UNL     1      41.172 -12.607   2.081  1.00  0.00     0.256 C 
HETATM   12  N   UNL     1      41.584 -13.731   2.828  1.00  0.00    -0.345 N 
HETATM   13  C   UNL     1      40.735 -14.580   3.682  1.00  0.00     0.146 C 
HETATM   14  C   UNL     1      43.034 -13.857   3.062  1.00  0.00     0.146 C 
HETATM   15  C   UNL     1      41.270 -16.012   3.891  1.00  0.00     0.143 C 
HETATM   16  N   UNL     1      42.687 -15.958   4.300  1.00  0.00    -0.378 N 
HETATM   17  C   UNL     1      43.521 -15.300   3.279  1.00  0.00     0.143 C 
HETATM   18  O   UNL     1      41.977 -12.071   1.319  1.00  0.00    -0.267 OA
BRANCH  16  19
HETATM   19  C   UNL     1      43.169 -17.097   4.948  1.00  0.00     0.030 A 
HETATM   20  C   UNL     1      43.022 -17.331   6.322  1.00  0.00     0.029 A 
HETATM   21  C   UNL     1      43.481 -18.514   6.914  1.00  0.00     0.002 A 
HETATM   22  C   UNL     1      44.094 -19.494   6.140  1.00  0.00     0.000 A 
HETATM   23  C   UNL     1      44.249 -19.290   4.774  1.00  0.00     0.002 A 
HETATM   24  C   UNL     1      43.793 -18.104   4.190  1.00  0.00     0.029 A 
ENDBRANCH  16  19
ENDBRANCH   6  11
ENDBRANCH   2   5
BRANCH   1  25
HETATM   25  C   UNL     1      40.164 -11.023   6.813  1.00  0.00     0.032 A 
HETATM   26  C   UNL     1      39.558 -11.197   8.061  1.00  0.00     0.019 A 
HETATM   27  C   UNL     1      40.244 -10.848   9.237  1.00  0.00     0.030 A 
HETATM   28  C   UNL     1      41.527 -10.300   9.179  1.00  0.00     0.034 A 
HETATM   29  C   UNL     1      42.103 -10.066   7.927  1.00  0.00     0.030 A 
HETATM   30  C   UNL     1      41.431 -10.428   6.757  1.00  0.00     0.019 A 
BRANCH  28  31
HETATM   31  N   UNL     1      42.309  -9.984  10.307  1.00  0.00    -0.327 N 
HETATM   32  C   UNL     1      43.240 -10.787  10.946  1.00  0.00     0.226 C 
HETATM   33  O   UNL     1      43.500 -11.957  10.680  1.00  0.00    -0.273 OA
HETATM   34  H   UNL     1      42.199  -9.046  10.670  1.00  0.00     0.169 HD
BRANCH  32  35
HETATM   35  C   UNL     1      43.988 -10.049  12.049  1.00  0.00     0.141 C 
BRANCH  35  36
HETATM   36  C   UNL     1      43.079  -9.556  13.143  1.00  0.00    -0.050 A 
HETATM   37  C   UNL     1      42.475 -10.470  14.018  1.00  0.00     0.007 A 
HETATM   38  C   UNL     1      41.629 -10.024  15.033  1.00  0.00     0.001 A 
HETATM   39  C   UNL     1      41.372  -8.663  15.180  1.00  0.00     0.000 A 
HETATM   40  C   UNL     1      41.961  -7.746  14.311  1.00  0.00     0.001 A 
HETATM   41  C   UNL     1      42.812  -8.188  13.297  1.00  0.00     0.007 A 
ENDBRANCH  35  36
ENDBRANCH  32  35
ENDBRANCH  28  31
ENDBRANCH   1  25
TORSDOF 7
ENDMDL
MODEL 7
REMARK VINA RESULT:      -9.2      2.397      6.153
REMARK  7 active torsions:
REMARK  status: ('A' for Active; 'I' for Inactive)
REMARK    1  A    between atoms: C_4  and  C_5 
REMARK    2  A    between atoms: C_5  and  C_6 
REMARK       I    between atoms: C_6  and  N_7 
REMARK    3  A    between atoms: N_7  and  C_8 
REMARK    4  A    between atoms: C_11  and  C_12 
REMARK       I    between atoms: C_12  and  N_13 
REMARK    5  A    between atoms: N_13  and  C_14 
REMARK    6  A    between atoms: C_15  and  C_16 
REMARK       I    between atoms: C_16  and  N_17 
REMARK    7  A    between atoms: N_20  and  C_21 
ROOT
HETATM    1  C   UNL     1      43.438 -14.693   4.433  1.00  0.00     0.256 C 
HETATM    2  N   UNL     1      42.838 -15.956   4.476  1.00  0.00    -0.322 N 
HETATM    3  O   UNL     1      43.959 -14.211   3.429  1.00  0.00    -0.267 OA
HETATM    4  H   UNL     1      42.999 -16.442   5.348  1.00  0.00     0.169 HD
ENDROOT
BRANCH   2   5
HETATM    5  C   UNL     1      42.875 -16.756   3.306  1.00  0.00     0.050 C 
HETATM    6  C   UNL     1      42.112 -16.503   2.144  1.00  0.00     0.059 C 
HETATM    7  C   UNL     1      42.533 -17.107   0.948  1.00  0.00     0.019 C 
HETATM    8  C   UNL     1      43.538 -18.079   0.936  1.00  0.00     0.001 C 
HETATM    9  C   UNL     1      44.159 -18.446   2.123  1.00  0.00     0.002 C 
HETATM   10  C   UNL     1      43.839 -17.780   3.303  1.00  0.00     0.030 C 
BRANCH   6  11
HETATM   11  C   UNL     1      40.871 -15.644   2.163  1.00  0.00     0.256 C 
HETATM   12  N   UNL     1      40.511 -14.857   1.049  1.00  0.00    -0.345 N 
HETATM   13  C   UNL     1      41.189 -14.818  -0.259  1.00  0.00     0.146 C 
HETATM   14  C   UNL     1      39.609 -13.723   1.321  1.00  0.00     0.146 C 
HETATM   15  C   UNL     1      40.293 -14.362  -1.429  1.00  0.00     0.143 C 
HETATM   16  N   UNL     1      39.598 -13.113  -1.065  1.00  0.00    -0.378 N 
HETATM   17  C   UNL     1      38.745 -13.293   0.123  1.00  0.00     0.143 C 
HETATM   18  O   UNL     1      40.132 -15.654   3.148  1.00  0.00    -0.267 OA
BRANCH  16  19
HETATM   19  C   UNL     1      39.126 -12.353  -2.137  1.00  0.00     0.030 A 
HETATM   20  C   UNL     1      39.957 -11.774  -3.106  1.00  0.00     0.029 A 
HETATM   21  C   UNL     1      39.428 -11.063  -4.190  1.00  0.00     0.002 A 
HETATM   22  C   UNL     1      38.052 -10.921  -4.332  1.00  0.00     0.000 A 
HETATM   23  C   UNL     1      37.204 -11.489  -3.388  1.00  0.00     0.002 A 
HETATM   24  C   UNL     1      37.739 -12.193  -2.305  1.00  0.00     0.029 A 
ENDBRANCH  16  19
ENDBRANCH   6  11
ENDBRANCH   2   5
BRANCH   1  25
HETATM   25  C   UNL     1      43.587 -13.967   5.733  1.00  0.00     0.032 A 
HETATM   26  C   UNL     1      44.631 -14.199   6.635  1.00  0.00     0.019 A 
HETATM   27  C   UNL     1      44.770 -13.397   7.779  1.00  0.00     0.030 A 
HETATM   28  C   UNL     1      43.860 -12.374   8.049  1.00  0.00     0.034 A 
HETATM   29  C   UNL     1      42.780 -12.187   7.180  1.00  0.00     0.030 A 
HETATM   30  C   UNL     1      42.649 -12.971   6.032  1.00  0.00     0.019 A 
BRANCH  28  31
HETATM   31  N   UNL     1      43.962 -11.482   9.135  1.00  0.00    -0.327 N 
HETATM   32  C   UNL     1      44.297 -11.778  10.447  1.00  0.00     0.226 C 
HETATM   33  O   UNL     1      44.498 -12.894  10.915  1.00  0.00    -0.273 OA
HETATM   34  H   UNL     1      43.804 -10.506   8.919  1.00  0.00     0.169 HD
BRANCH  32  35
HETATM   35  C   UNL     1      44.441 -10.529  11.307  1.00  0.00     0.141 C 
BRANCH  35  36
HETATM   36  C   UNL     1      43.355 -10.405  12.344  1.00  0.00    -0.050 A 
HETATM   37  C   UNL     1      43.535  -9.561  13.449  1.00  0.00     0.007 A 
HETATM   38  C   UNL     1      42.537  -9.441  14.416  1.00  0.00     0.001 A 
HETATM   39  C   UNL     1      41.355 -10.167  14.295  1.00  0.00     0.000 A 
HETATM   40  C   UNL     1      41.169 -11.016  13.204  1.00  0.00     0.001 A 
HETATM   41  C   UNL     1      42.164 -11.135  12.232  1.00  0.00     0.007 A 
ENDBRANCH  35  36
ENDBRANCH  32  35
ENDBRANCH  28  31
ENDBRANCH   1  25
TORSDOF 7
ENDMDL
MODEL 8
REMARK VINA RESULT:      -9.1      1.932      2.735
REMARK  7 active torsions:
REMARK  status: ('A' for Active; 'I' for Inactive)
REMARK    1  A    between atoms: C_4  and  C_5 
REMARK    2  A    between atoms: C_5  and  C_6 
REMARK       I    between atoms: C_6  and  N_7 
REMARK    3  A    between atoms: N_7  and  C_8 
REMARK    4  A    between atoms: C_11  and  C_12 
REMARK       I    between atoms: C_12  and  N_13 
REMARK    5  A    between atoms: N_13  and  C_14 
REMARK    6  A    between atoms: C_15  and  C_16 
REMARK       I    between atoms: C_16  and  N_17 
REMARK    7  A    between atoms: N_20  and  C_21 
ROOT
HETATM    1  C   UNL     1      40.260 -11.020   2.899  1.00  0.00     0.256 C 
HETATM    2  N   UNL     1      41.454 -11.669   2.568  1.00  0.00    -0.322 N 
HETATM    3  O   UNL     1      39.304 -10.903   2.134  1.00  0.00    -0.267 OA
HETATM    4  H   UNL     1      42.271 -11.219   2.957  1.00  0.00     0.169 HD
ENDROOT
BRANCH   2   5
HETATM    5  C   UNL     1      41.597 -12.183   1.254  1.00  0.00     0.050 C 
HETATM    6  C   UNL     1      41.029 -13.396   0.806  1.00  0.00     0.059 C 
HETATM    7  C   UNL     1      40.902 -13.580  -0.580  1.00  0.00     0.019 C 
HETATM    8  C   UNL     1      41.493 -12.698  -1.490  1.00  0.00     0.001 C 
HETATM    9  C   UNL     1      42.203 -11.599  -1.026  1.00  0.00     0.002 C 
HETATM   10  C   UNL     1      42.246 -11.333   0.341  1.00  0.00     0.030 C 
BRANCH   6  11
HETATM   11  C   UNL     1      40.594 -14.484   1.759  1.00  0.00     0.256 C 
HETATM   12  N   UNL     1      41.365 -15.652   1.934  1.00  0.00    -0.345 N 
HETATM   13  C   UNL     1      42.677 -15.941   1.329  1.00  0.00     0.146 C 
HETATM   14  C   UNL     1      40.651 -16.824   2.474  1.00  0.00     0.146 C 
HETATM   15  C   UNL     1      43.531 -16.959   2.114  1.00  0.00     0.143 C 
HETATM   16  N   UNL     1      42.723 -18.155   2.419  1.00  0.00    -0.378 N 
HETATM   17  C   UNL     1      41.544 -17.819   3.236  1.00  0.00     0.143 C 
HETATM   18  O   UNL     1      39.571 -14.340   2.428  1.00  0.00    -0.267 OA
BRANCH  16  19
HETATM   19  C   UNL     1      43.448 -19.312   2.708  1.00  0.00     0.030 A 
HETATM   20  C   UNL     1      44.216 -19.479   3.868  1.00  0.00     0.029 A 
HETATM   21  C   UNL     1      44.885 -20.680   4.135  1.00  0.00     0.002 A 
HETATM   22  C   UNL     1      44.794 -21.746   3.245  1.00  0.00     0.000 A 
HETATM   23  C   UNL     1      44.036 -21.609   2.089  1.00  0.00     0.002 A 
HETATM   24  C   UNL     1      43.375 -20.406   1.827  1.00  0.00     0.029 A 
ENDBRANCH  16  19
ENDBRANCH   6  11
ENDBRANCH   2   5
BRANCH   1  25
HETATM   25  C   UNL     1      40.221 -10.293   4.205  1.00  0.00     0.032 A 
HETATM   26  C   UNL     1      39.087  -9.635   4.692  1.00  0.00     0.019 A 
HETATM   27  C   UNL     1      39.091  -9.073   5.980  1.00  0.00     0.030 A 
HETATM   28  C   UNL     1      40.230  -9.139   6.784  1.00  0.00     0.034 A 
HETATM   29  C   UNL     1      41.384  -9.739   6.269  1.00  0.00     0.030 A 
HETATM   30  C   UNL     1      41.377 -10.315   4.996  1.00  0.00     0.019 A 
BRANCH  28  31
HETATM   31  N   UNL     1      40.300  -8.662   8.108  1.00  0.00    -0.327 N 
HETATM   32  C   UNL     1      40.352  -9.406   9.276  1.00  0.00     0.226 C 
HETATM   33  O   UNL     1      40.276 -10.627   9.367  1.00  0.00    -0.273 OA
HETATM   34  H   UNL     1      40.351  -7.657   8.211  1.00  0.00     0.169 HD
BRANCH  32  35
HETATM   35  C   UNL     1      40.561  -8.539  10.510  1.00  0.00     0.141 C 
BRANCH  35  36
HETATM   36  C   UNL     1      41.350  -9.235  11.588  1.00  0.00    -0.050 A 
HETATM   37  C   UNL     1      42.748  -9.303  11.501  1.00  0.00     0.007 A 
HETATM   38  C   UNL     1      43.487  -9.949  12.491  1.00  0.00     0.001 A 
HETATM   39  C   UNL     1      42.839 -10.540  13.573  1.00  0.00     0.000 A 
HETATM   40  C   UNL     1      41.449 -10.485  13.666  1.00  0.00     0.001 A 
HETATM   41  C   UNL     1      40.706  -9.836  12.679  1.00  0.00     0.007 A 
ENDBRANCH  35  36
ENDBRANCH  32  35
ENDBRANCH  28  31
ENDBRANCH   1  25
TORSDOF 7
ENDMDL
MODEL 9
REMARK VINA RESULT:      -9.1      4.129      8.405
REMARK  7 active torsions:
REMARK  status: ('A' for Active; 'I' for Inactive)
REMARK    1  A    between atoms: C_4  and  C_5 
REMARK    2  A    between atoms: C_5  and  C_6 
REMARK       I    between atoms: C_6  and  N_7 
REMARK    3  A    between atoms: N_7  and  C_8 
REMARK    4  A    between atoms: C_11  and  C_12 
REMARK       I    between atoms: C_12  and  N_13 
REMARK    5  A    between atoms: N_13  and  C_14 
REMARK    6  A    between atoms: C_15  and  C_16 
REMARK       I    between atoms: C_16  and  N_17 
REMARK    7  A    between atoms: N_20  and  C_21 
ROOT
HETATM    1  C   UNL     1      40.970 -11.640   4.648  1.00  0.00     0.256 C 
HETATM    2  N   UNL     1      39.693 -11.551   4.084  1.00  0.00    -0.322 N 
HETATM    3  O   UNL     1      41.653 -10.668   4.967  1.00  0.00    -0.267 OA
HETATM    4  H   UNL     1      39.521 -12.254   3.378  1.00  0.00     0.169 HD
ENDROOT
BRANCH   2   5
HETATM    5  C   UNL     1      39.167 -10.262   3.814  1.00  0.00     0.050 C 
HETATM    6  C   UNL     1      39.217  -9.629   2.552  1.00  0.00     0.059 C 
HETATM    7  C   UNL     1      38.326  -8.568   2.323  1.00  0.00     0.019 C 
HETATM    8  C   UNL     1      37.562  -8.021   3.359  1.00  0.00     0.001 C 
HETATM    9  C   UNL     1      37.658  -8.546   4.641  1.00  0.00     0.002 C 
HETATM   10  C   UNL     1      38.448  -9.670   4.868  1.00  0.00     0.030 C 
BRANCH   6  11
HETATM   11  C   UNL     1      40.201 -10.038   1.482  1.00  0.00     0.256 C 
HETATM   12  N   UNL     1      39.914 -11.095   0.593  1.00  0.00    -0.345 N 
HETATM   13  C   UNL     1      38.658 -11.860   0.509  1.00  0.00     0.146 C 
HETATM   14  C   UNL     1      41.076 -11.724  -0.060  1.00  0.00     0.146 C 
HETATM   15  C   UNL     1      38.397 -12.512  -0.865  1.00  0.00     0.143 C 
HETATM   16  N   UNL     1      39.595 -13.258  -1.295  1.00  0.00    -0.378 N 
HETATM   17  C   UNL     1      40.768 -12.374  -1.420  1.00  0.00     0.143 C 
HETATM   18  O   UNL     1      41.255  -9.417   1.349  1.00  0.00    -0.267 OA
BRANCH  16  19
HETATM   19  C   UNL     1      39.376 -14.243  -2.259  1.00  0.00     0.030 A 
HETATM   20  C   UNL     1      40.321 -15.219  -2.603  1.00  0.00     0.029 A 
HETATM   21  C   UNL     1      40.032 -16.217  -3.542  1.00  0.00     0.002 A 
HETATM   22  C   UNL     1      38.783 -16.263  -4.154  1.00  0.00     0.000 A 
HETATM   23  C   UNL     1      37.825 -15.311  -3.828  1.00  0.00     0.002 A 
HETATM   24  C   UNL     1      38.123 -14.314  -2.893  1.00  0.00     0.029 A 
ENDBRANCH  16  19
ENDBRANCH   6  11
ENDBRANCH   2   5
BRANCH   1  25
HETATM   25  C   UNL     1      41.592 -12.999   4.711  1.00  0.00     0.032 A 
HETATM   26  C   UNL     1      41.395 -13.988   3.742  1.00  0.00     0.019 A 
HETATM   27  C   UNL     1      42.105 -15.198   3.809  1.00  0.00     0.030 A 
HETATM   28  C   UNL     1      42.998 -15.445   4.854  1.00  0.00     0.034 A 
HETATM   29  C   UNL     1      43.143 -14.482   5.857  1.00  0.00     0.030 A 
HETATM   30  C   UNL     1      42.453 -13.270   5.784  1.00  0.00     0.019 A 
BRANCH  28  31
HETATM   31  N   UNL     1      43.798 -16.600   4.962  1.00  0.00    -0.327 N 
HETATM   32  C   UNL     1      43.383 -17.899   5.205  1.00  0.00     0.226 C 
HETATM   33  O   UNL     1      42.236 -18.267   5.441  1.00  0.00    -0.273 OA
HETATM   34  H   UNL     1      44.789 -16.464   4.811  1.00  0.00     0.169 HD
BRANCH  32  35
HETATM   35  C   UNL     1      44.525 -18.903   5.115  1.00  0.00     0.141 C 
BRANCH  35  36
HETATM   36  C   UNL     1      44.332 -19.911   4.013  1.00  0.00    -0.050 A 
HETATM   37  C   UNL     1      44.704 -21.248   4.213  1.00  0.00     0.007 A 
HETATM   38  C   UNL     1      44.533 -22.189   3.199  1.00  0.00     0.001 A 
HETATM   39  C   UNL     1      43.996 -21.805   1.973  1.00  0.00     0.000 A 
HETATM   40  C   UNL     1      43.629 -20.477   1.760  1.00  0.00     0.001 A 
HETATM   41  C   UNL     1      43.795 -19.533   2.774  1.00  0.00     0.007 A 
ENDBRANCH  35  36
ENDBRANCH  32  35
ENDBRANCH  28  31
ENDBRANCH   1  25
TORSDOF 7
ENDMDL
MODEL 10
REMARK VINA RESULT:      -8.9      1.572      2.427
REMARK  7 active torsions:
REMARK  status: ('A' for Active; 'I' for Inactive)
REMARK    1  A    between atoms: C_4  and  C_5 
REMARK    2  A    between atoms: C_5  and  C_6 
REMARK       I    between atoms: C_6  and  N_7 
REMARK    3  A    between atoms: N_7  and  C_8 
REMARK    4  A    between atoms: C_11  and  C_12 
REMARK       I    between atoms: C_12  and  N_13 
REMARK    5  A    between atoms: N_13  and  C_14 
REMARK    6  A    between atoms: C_15  and  C_16 
REMARK       I    between atoms: C_16  and  N_17 
REMARK    7  A    between atoms: N_20  and  C_21 
ROOT
HETATM    1  C   UNL     1      40.141 -10.849   3.429  1.00  0.00     0.256 C 
HETATM    2  N   UNL     1      39.420 -12.045   3.343  1.00  0.00    -0.322 N 
HETATM    3  O   UNL     1      40.405 -10.132   2.465  1.00  0.00    -0.267 OA
HETATM    4  H   UNL     1      39.763 -12.760   3.969  1.00  0.00     0.169 HD
ENDROOT
BRANCH   2   5
HETATM    5  C   UNL     1      39.009 -12.489   2.061  1.00  0.00     0.050 C 
HETATM    6  C   UNL     1      39.741 -13.391   1.257  1.00  0.00     0.059 C 
HETATM    7  C   UNL     1      39.051 -14.050   0.227  1.00  0.00     0.019 C 
HETATM    8  C   UNL     1      37.748 -13.684  -0.128  1.00  0.00     0.001 C 
HETATM    9  C   UNL     1      37.103 -12.666   0.563  1.00  0.00     0.002 C 
HETATM   10  C   UNL     1      37.725 -12.078   1.662  1.00  0.00     0.030 C 
BRANCH   6  11
HETATM   11  C   UNL     1      41.218 -13.637   1.458  1.00  0.00     0.256 C 
HETATM   12  N   UNL     1      41.681 -14.787   2.130  1.00  0.00    -0.345 N 
HETATM   13  C   UNL     1      40.863 -15.905   2.631  1.00  0.00     0.146 C 
HETATM   14  C   UNL     1      43.040 -14.703   2.695  1.00  0.00     0.146 C 
HETATM   15  C   UNL     1      41.625 -17.239   2.777  1.00  0.00     0.143 C 
HETATM   16  N   UNL     1      42.876 -17.017   3.525  1.00  0.00    -0.378 N 
HETATM   17  C   UNL     1      43.757 -16.057   2.835  1.00  0.00     0.143 C 
HETATM   18  O   UNL     1      42.039 -12.846   0.995  1.00  0.00    -0.267 OA
BRANCH  16  19
HETATM   19  C   UNL     1      43.433 -18.152   4.117  1.00  0.00     0.030 A 
HETATM   20  C   UNL     1      43.315 -18.454   5.481  1.00  0.00     0.029 A 
HETATM   21  C   UNL     1      43.850 -19.632   6.016  1.00  0.00     0.002 A 
HETATM   22  C   UNL     1      44.510 -20.540   5.193  1.00  0.00     0.000 A 
HETATM   23  C   UNL     1      44.638 -20.267   3.836  1.00  0.00     0.002 A 
HETATM   24  C   UNL     1      44.106 -19.086   3.310  1.00  0.00     0.029 A 
ENDBRANCH  16  19
ENDBRANCH   6  11
ENDBRANCH   2   5
BRANCH   1  25
HETATM   25  C   UNL     1      40.756 -10.520   4.753  1.00  0.00     0.032 A 
HETATM   26  C   UNL     1      41.028  -9.215   5.178  1.00  0.00     0.019 A 
HETATM   27  C   UNL     1      41.498  -8.978   6.480  1.00  0.00     0.030 A 
HETATM   28  C   UNL     1      41.726 -10.037   7.361  1.00  0.00     0.034 A 
HETATM   29  C   UNL     1      41.518 -11.344   6.910  1.00  0.00     0.030 A 
HETATM   30  C   UNL     1      41.033 -11.582   5.623  1.00  0.00     0.019 A 
BRANCH  28  31
HETATM   31  N   UNL     1      42.134  -9.885   8.701  1.00  0.00    -0.327 N 
HETATM   32  C   UNL     1      41.439  -9.279   9.735  1.00  0.00     0.226 C 
HETATM   33  O   UNL     1      40.361  -8.699   9.649  1.00  0.00    -0.273 OA
HETATM   34  H   UNL     1      43.026 -10.297   8.939  1.00  0.00     0.169 HD
BRANCH  32  35
HETATM   35  C   UNL     1      42.142  -9.430  11.078  1.00  0.00     0.141 C 
BRANCH  35  36
HETATM   36  C   UNL     1      43.265 -10.433  11.041  1.00  0.00    -0.050 A 
HETATM   37  C   UNL     1      43.107 -11.685  11.651  1.00  0.00     0.007 A 
HETATM   38  C   UNL     1      44.142 -12.620  11.625  1.00  0.00     0.001 A 
HETATM   39  C   UNL     1      45.346 -12.312  10.997  1.00  0.00     0.000 A 
HETATM   40  C   UNL     1      45.517 -11.067  10.393  1.00  0.00     0.001 A 
HETATM   41  C   UNL     1      44.482 -10.130  10.414  1.00  0.00     0.007 A 
ENDBRANCH  35  36
ENDBRANCH  32  35
ENDBRANCH  28  31
ENDBRANCH   1  25
TORSDOF 7
ENDMDL
