MODEL 1
REMARK VINA RESULT:      -9.7      0.000      0.000
REMARK  7 active torsions:
REMARK  status: ('A' for Active; 'I' for Inactive)
REMARK    1  A    between atoms: C_3  and  C_4 
REMARK    2  A    between atoms: C_4  and  S_5 
REMARK    3  A    between atoms: S_5  and  C_6 
REMARK    4  A    between atoms: C_6  and  C_7 
REMARK    5  A    between atoms: C_16  and  C_17 
REMARK       I    between atoms: C_17  and  N_18 
REMARK    6  A    between atoms: N_18  and  C_19 
REMARK    7  A    between atoms: C_19  and  C_20 
ROOT
HETATM    1  C   UNL     1      43.311 -16.716   7.674  1.00  0.00     0.162 C 
HETATM    2  N   UNL     1      42.055 -17.077   6.960  1.00  0.00    -0.277 NA
HETATM    3  C   UNL     1      42.099 -16.901   5.565  1.00  0.00     0.036 A 
HETATM    4  C   UNL     1      42.949 -15.946   4.976  1.00  0.00     0.057 A 
HETATM    5  N   UNL     1      43.814 -15.197   5.784  1.00  0.00    -0.324 N 
HETATM    6  C   UNL     1      43.925 -15.410   7.135  1.00  0.00     0.240 C 
HETATM    7  O   UNL     1      44.551 -14.624   7.846  1.00  0.00    -0.271 OA
HETATM    8  C   UNL     1      41.170 -17.557   4.751  1.00  0.00     0.027 A 
HETATM    9  C   UNL     1      41.146 -17.332   3.368  1.00  0.00     0.019 A 
HETATM   10  C   UNL     1      42.037 -16.420   2.789  1.00  0.00     0.034 A 
HETATM   11  C   UNL     1      42.923 -15.705   3.603  1.00  0.00     0.048 A 
HETATM   12  H   UNL     1      41.665 -17.972   7.240  1.00  0.00     0.128 HD
HETATM   13  H   UNL     1      44.304 -14.396   5.409  1.00  0.00     0.169 HD
ENDROOT
BRANCH  10  14
HETATM   14  C   UNL     1      42.069 -16.151   1.326  1.00  0.00     0.252 C 
HETATM   15  N   UNL     1      41.141 -15.258   0.838  1.00  0.00    -0.353 N 
HETATM   16  H   UNL     1      40.489 -14.792   1.452  1.00  0.00     0.163 HD
HETATM   17  O   UNL     1      42.865 -16.750   0.613  1.00  0.00    -0.268 OA
BRANCH  15  18
HETATM   18  C   UNL     1      41.066 -14.972  -0.578  1.00  0.00     0.161 C 
BRANCH  18  19
HETATM   19  C   UNL     1      41.705 -13.647  -0.917  1.00  0.00    -0.040 A 
HETATM   20  C   UNL     1      42.138 -13.383  -2.225  1.00  0.00     0.010 A 
HETATM   21  C   UNL     1      42.695 -12.143  -2.552  1.00  0.00     0.024 A 
HETATM   22  C   UNL     1      42.821 -11.160  -1.573  1.00  0.00     0.034 A 
HETATM   23 CL   UNL     1      43.507  -9.634  -1.976  1.00  0.00    -0.084 Cl
HETATM   24  C   UNL     1      42.387 -11.401  -0.272  1.00  0.00     0.024 A 
HETATM   25  C   UNL     1      41.824 -12.637   0.052  1.00  0.00     0.010 A 
ENDBRANCH  18  19
ENDBRANCH  15  18
ENDBRANCH  10  14
BRANCH   1  26
HETATM   26  C   UNL     1      44.309 -17.891   7.584  1.00  0.00     0.103 C 
BRANCH  26  27
HETATM   27  S   UNL     1      43.806 -19.375   6.643  1.00  0.00    -0.162 SA
BRANCH  27  28
HETATM   28  C   UNL     1      45.069 -19.375   5.330  1.00  0.00     0.112 C 
BRANCH  28  29
HETATM   29  C   UNL     1      44.599 -20.140   4.114  1.00  0.00    -0.043 A 
HETATM   30  C   UNL     1      44.692 -21.546   4.023  1.00  0.00    -0.055 A 
HETATM   31  C   UNL     1      45.252 -22.382   5.143  1.00  0.00     0.049 C 
HETATM   32  C   UNL     1      44.238 -22.191   2.859  1.00  0.00     0.007 A 
HETATM   33  C   UNL     1      43.718 -21.460   1.791  1.00  0.00     0.001 A 
HETATM   34  C   UNL     1      43.642 -20.074   1.871  1.00  0.00     0.001 A 
HETATM   35  C   UNL     1      44.080 -19.419   3.021  1.00  0.00     0.008 A 
ENDBRANCH  28  29
ENDBRANCH  27  28
ENDBRANCH  26  27
ENDBRANCH   1  26
TORSDOF 7
ENDMDL
MODEL 2
REMARK VINA RESULT:      -9.5      2.396      3.142
REMARK  7 active torsions:
REMARK  status: ('A' for Active; 'I' for Inactive)
REMARK    1  A    between atoms: C_3  and  C_4 
REMARK    2  A    between atoms: C_4  and  S_5 
REMARK    3  A    between atoms: S_5  and  C_6 
REMARK    4  A    between atoms: C_6  and  C_7 
REMARK    5  A    between atoms: C_16  and  C_17 
REMARK       I    between atoms: C_17  and  N_18 
REMARK    6  A    between atoms: N_18  and  C_19 
REMARK    7  A    between atoms: C_19  and  C_20 
ROOT
HETATM    1  C   UNL     1      43.604 -15.813   7.316  1.00  0.00     0.162 C 
HETATM    2  N   UNL     1      42.301 -15.912   6.602  1.00  0.00    -0.277 NA
HETATM    3  C   UNL     1      42.304 -15.393   5.295  1.00  0.00     0.036 A 
HETATM    4  C   UNL     1      43.195 -14.370   4.918  1.00  0.00     0.057 A 
HETATM    5  N   UNL     1      44.138 -13.898   5.839  1.00  0.00    -0.324 N 
HETATM    6  C   UNL     1      44.284 -14.450   7.087  1.00  0.00     0.240 C 
HETATM    7  O   UNL     1      44.988 -13.905   7.937  1.00  0.00    -0.271 OA
HETATM    8  C   UNL     1      41.304 -15.770   4.393  1.00  0.00     0.027 A 
HETATM    9  C   UNL     1      41.244 -15.204   3.113  1.00  0.00     0.019 A 
HETATM   10  C   UNL     1      42.172 -14.227   2.733  1.00  0.00     0.034 A 
HETATM   11  C   UNL     1      43.135 -13.791   3.651  1.00  0.00     0.048 A 
HETATM   12  H   UNL     1      41.862 -16.825   6.672  1.00  0.00     0.128 HD
HETATM   13  H   UNL     1      44.667 -13.057   5.651  1.00  0.00     0.169 HD
ENDROOT
BRANCH  10  14
HETATM   14  C   UNL     1      42.168 -13.601   1.383  1.00  0.00     0.252 C 
HETATM   15  N   UNL     1      41.834 -14.413   0.323  1.00  0.00    -0.353 N 
HETATM   16  H   UNL     1      41.580 -15.380   0.462  1.00  0.00     0.163 HD
HETATM   17  O   UNL     1      42.497 -12.428   1.254  1.00  0.00    -0.268 OA
BRANCH  15  18
HETATM   18  C   UNL     1      41.850 -13.903  -1.031  1.00  0.00     0.161 C 
BRANCH  18  19
HETATM   19  C   UNL     1      40.552 -14.178  -1.750  1.00  0.00    -0.040 A 
HETATM   20  C   UNL     1      39.338 -13.712  -1.225  1.00  0.00     0.010 A 
HETATM   21  C   UNL     1      38.138 -13.931  -1.909  1.00  0.00     0.024 A 
HETATM   22  C   UNL     1      38.146 -14.616  -3.122  1.00  0.00     0.034 A 
HETATM   23 CL   UNL     1      36.668 -14.886  -3.961  1.00  0.00    -0.084 Cl
HETATM   24  C   UNL     1      39.343 -15.078  -3.663  1.00  0.00     0.024 A 
HETATM   25  C   UNL     1      40.542 -14.851  -2.983  1.00  0.00     0.010 A 
ENDBRANCH  18  19
ENDBRANCH  15  18
ENDBRANCH  10  14
BRANCH   1  26
HETATM   26  C   UNL     1      44.515 -16.981   6.885  1.00  0.00     0.103 C 
BRANCH  26  27
HETATM   27  S   UNL     1      43.726 -18.472   6.180  1.00  0.00    -0.162 SA
BRANCH  27  28
HETATM   28  C   UNL     1      44.237 -18.322   4.438  1.00  0.00     0.112 C 
BRANCH  28  29
HETATM   29  C   UNL     1      44.267 -19.671   3.755  1.00  0.00    -0.043 A 
HETATM   30  C   UNL     1      43.857 -19.849   2.416  1.00  0.00    -0.055 A 
HETATM   31  C   UNL     1      43.376 -18.700   1.570  1.00  0.00     0.049 C 
HETATM   32  C   UNL     1      43.909 -21.133   1.846  1.00  0.00     0.007 A 
HETATM   33  C   UNL     1      44.340 -22.230   2.591  1.00  0.00     0.001 A 
HETATM   34  C   UNL     1      44.727 -22.061   3.916  1.00  0.00     0.001 A 
HETATM   35  C   UNL     1      44.690 -20.793   4.493  1.00  0.00     0.008 A 
ENDBRANCH  28  29
ENDBRANCH  27  28
ENDBRANCH  26  27
ENDBRANCH   1  26
TORSDOF 7
ENDMDL
MODEL 3
REMARK VINA RESULT:      -9.4      2.799      3.485
REMARK  7 active torsions:
REMARK  status: ('A' for Active; 'I' for Inactive)
REMARK    1  A    between atoms: C_3  and  C_4 
REMARK    2  A    between atoms: C_4  and  S_5 
REMARK    3  A    between atoms: S_5  and  C_6 
REMARK    4  A    between atoms: C_6  and  C_7 
REMARK    5  A    between atoms: C_16  and  C_17 
REMARK       I    between atoms: C_17  and  N_18 
REMARK    6  A    between atoms: N_18  and  C_19 
REMARK    7  A    between atoms: C_19  and  C_20 
ROOT
HETATM    1  C   UNL     1      42.332 -15.791   5.858  1.00  0.00     0.162 C 
HETATM    2  N   UNL     1      41.248 -16.394   5.035  1.00  0.00    -0.277 NA
HETATM    3  C   UNL     1      41.309 -16.086   3.664  1.00  0.00     0.036 A 
HETATM    4  C   UNL     1      41.909 -14.896   3.208  1.00  0.00     0.057 A 
HETATM    5  N   UNL     1      42.511 -14.028   4.128  1.00  0.00    -0.324 N 
HETATM    6  C   UNL     1      42.610 -14.328   5.463  1.00  0.00     0.240 C 
HETATM    7  O   UNL     1      42.977 -13.477   6.273  1.00  0.00    -0.271 OA
HETATM    8  C   UNL     1      40.622 -16.880   2.740  1.00  0.00     0.027 A 
HETATM    9  C   UNL     1      40.605 -16.543   1.380  1.00  0.00     0.019 A 
HETATM   10  C   UNL     1      41.254 -15.386   0.934  1.00  0.00     0.034 A 
HETATM   11  C   UNL     1      41.885 -14.546   1.859  1.00  0.00     0.048 A 
HETATM   12  H   UNL     1      41.091 -17.380   5.219  1.00  0.00     0.128 HD
HETATM   13  H   UNL     1      42.793 -13.098   3.850  1.00  0.00     0.169 HD
ENDROOT
BRANCH  10  14
HETATM   14  C   UNL     1      41.283 -14.985  -0.499  1.00  0.00     0.252 C 
HETATM   15  N   UNL     1      40.612 -15.798  -1.384  1.00  0.00    -0.353 N 
HETATM   16  H   UNL     1      40.104 -16.612  -1.068  1.00  0.00     0.163 HD
HETATM   17  O   UNL     1      41.923 -14.000  -0.844  1.00  0.00    -0.268 OA
BRANCH  15  18
HETATM   18  C   UNL     1      40.625 -15.514  -2.803  1.00  0.00     0.161 C 
BRANCH  18  19
HETATM   19  C   UNL     1      39.375 -14.792  -3.243  1.00  0.00    -0.040 A 
HETATM   20  C   UNL     1      38.265 -15.514  -3.704  1.00  0.00     0.010 A 
HETATM   21  C   UNL     1      37.091 -14.851  -4.075  1.00  0.00     0.024 A 
HETATM   22  C   UNL     1      37.022 -13.462  -3.987  1.00  0.00     0.034 A 
HETATM   23 CL   UNL     1      35.577 -12.647  -4.446  1.00  0.00    -0.084 Cl
HETATM   24  C   UNL     1      38.112 -12.731  -3.523  1.00  0.00     0.024 A 
HETATM   25  C   UNL     1      39.280 -13.394  -3.144  1.00  0.00     0.010 A 
ENDBRANCH  18  19
ENDBRANCH  15  18
ENDBRANCH  10  14
BRANCH   1  26
HETATM   26  C   UNL     1      43.604 -16.659   5.748  1.00  0.00     0.103 C 
BRANCH  26  27
HETATM   27  S   UNL     1      43.424 -18.471   5.912  1.00  0.00    -0.162 SA
BRANCH  27  28
HETATM   28  C   UNL     1      44.936 -19.029   5.065  1.00  0.00     0.112 C 
BRANCH  28  29
HETATM   29  C   UNL     1      44.622 -20.045   3.989  1.00  0.00    -0.043 A 
HETATM   30  C   UNL     1      44.166 -19.671   2.706  1.00  0.00    -0.055 A 
HETATM   31  C   UNL     1      43.978 -18.229   2.317  1.00  0.00     0.049 C 
HETATM   32  C   UNL     1      43.890 -20.669   1.757  1.00  0.00     0.007 A 
HETATM   33  C   UNL     1      44.043 -22.019   2.072  1.00  0.00     0.001 A 
HETATM   34  C   UNL     1      44.474 -22.391   3.340  1.00  0.00     0.001 A 
HETATM   35  C   UNL     1      44.760 -21.413   4.291  1.00  0.00     0.008 A 
ENDBRANCH  28  29
ENDBRANCH  27  28
ENDBRANCH  26  27
ENDBRANCH   1  26
TORSDOF 7
ENDMDL
MODEL 4
REMARK VINA RESULT:      -9.3      1.671      2.539
REMARK  7 active torsions:
REMARK  status: ('A' for Active; 'I' for Inactive)
REMARK    1  A    between atoms: C_3  and  C_4 
REMARK    2  A    between atoms: C_4  and  S_5 
REMARK    3  A    between atoms: S_5  and  C_6 
REMARK    4  A    between atoms: C_6  and  C_7 
REMARK    5  A    between atoms: C_16  and  C_17 
REMARK       I    between atoms: C_17  and  N_18 
REMARK    6  A    between atoms: N_18  and  C_19 
REMARK    7  A    between atoms: C_19  and  C_20 
ROOT
HETATM    1  C   UNL     1      41.967 -15.730   5.612  1.00  0.00     0.162 C 
HETATM    2  N   UNL     1      40.983 -16.398   4.716  1.00  0.00    -0.277 NA
HETATM    3  C   UNL     1      41.149 -16.118   3.347  1.00  0.00     0.036 A 
HETATM    4  C   UNL     1      41.735 -14.913   2.914  1.00  0.00     0.057 A 
HETATM    5  N   UNL     1      42.219 -14.000   3.858  1.00  0.00    -0.324 N 
HETATM    6  C   UNL     1      42.216 -14.265   5.205  1.00  0.00     0.240 C 
HETATM    7  O   UNL     1      42.477 -13.381   6.020  1.00  0.00    -0.271 OA
HETATM    8  C   UNL     1      40.577 -16.962   2.389  1.00  0.00     0.027 A 
HETATM    9  C   UNL     1      40.662 -16.657   1.025  1.00  0.00     0.019 A 
HETATM   10  C   UNL     1      41.298 -15.482   0.606  1.00  0.00     0.034 A 
HETATM   11  C   UNL     1      41.812 -14.595   1.559  1.00  0.00     0.048 A 
HETATM   12  H   UNL     1      40.853 -17.385   4.912  1.00  0.00     0.128 HD
HETATM   13  H   UNL     1      42.485 -13.064   3.581  1.00  0.00     0.169 HD
ENDROOT
BRANCH  10  14
HETATM   14  C   UNL     1      41.433 -15.113  -0.830  1.00  0.00     0.252 C 
HETATM   15  N   UNL     1      42.112 -13.948  -1.110  1.00  0.00    -0.353 N 
HETATM   16  H   UNL     1      42.519 -13.389  -0.375  1.00  0.00     0.163 HD
HETATM   17  O   UNL     1      40.910 -15.811  -1.691  1.00  0.00    -0.268 OA
BRANCH  15  18
HETATM   18  C   UNL     1      42.250 -13.485  -2.473  1.00  0.00     0.161 C 
BRANCH  18  19
HETATM   19  C   UNL     1      42.509 -11.999  -2.538  1.00  0.00    -0.040 A 
HETATM   20  C   UNL     1      42.169 -11.270  -3.686  1.00  0.00     0.010 A 
HETATM   21  C   UNL     1      42.371  -9.887  -3.735  1.00  0.00     0.024 A 
HETATM   22  C   UNL     1      42.913  -9.227  -2.635  1.00  0.00     0.034 A 
HETATM   23 CL   UNL     1      43.162  -7.525  -2.696  1.00  0.00    -0.084 Cl
HETATM   24  C   UNL     1      43.247  -9.934  -1.482  1.00  0.00     0.024 A 
HETATM   25  C   UNL     1      43.037 -11.314  -1.432  1.00  0.00     0.010 A 
ENDBRANCH  18  19
ENDBRANCH  15  18
ENDBRANCH  10  14
BRANCH   1  26
HETATM   26  C   UNL     1      43.278 -16.543   5.632  1.00  0.00     0.103 C 
BRANCH  26  27
HETATM   27  S   UNL     1      43.162 -18.356   5.839  1.00  0.00    -0.162 SA
BRANCH  27  28
HETATM   28  C   UNL     1      44.746 -18.873   5.105  1.00  0.00     0.112 C 
BRANCH  28  29
HETATM   29  C   UNL     1      44.545 -19.951   4.063  1.00  0.00    -0.043 A 
HETATM   30  C   UNL     1      44.163 -19.658   2.736  1.00  0.00    -0.055 A 
HETATM   31  C   UNL     1      43.946 -18.245   2.263  1.00  0.00     0.049 C 
HETATM   32  C   UNL     1      43.991 -20.711   1.822  1.00  0.00     0.007 A 
HETATM   33  C   UNL     1      44.174 -22.037   2.214  1.00  0.00     0.001 A 
HETATM   34  C   UNL     1      44.533 -22.330   3.525  1.00  0.00     0.001 A 
HETATM   35  C   UNL     1      44.716 -21.297   4.442  1.00  0.00     0.008 A 
ENDBRANCH  28  29
ENDBRANCH  27  28
ENDBRANCH  26  27
ENDBRANCH   1  26
TORSDOF 7
ENDMDL
MODEL 5
REMARK VINA RESULT:      -9.1      4.075      7.661
REMARK  7 active torsions:
REMARK  status: ('A' for Active; 'I' for Inactive)
REMARK    1  A    between atoms: C_3  and  C_4 
REMARK    2  A    between atoms: C_4  and  S_5 
REMARK    3  A    between atoms: S_5  and  C_6 
REMARK    4  A    between atoms: C_6  and  C_7 
REMARK    5  A    between atoms: C_16  and  C_17 
REMARK       I    between atoms: C_17  and  N_18 
REMARK    6  A    between atoms: N_18  and  C_19 
REMARK    7  A    between atoms: C_19  and  C_20 
ROOT
HETATM    1  C   UNL     1      40.074 -10.931   4.108  1.00  0.00     0.162 C 
HETATM    2  N   UNL     1      41.473 -11.375   3.859  1.00  0.00    -0.277 NA
HETATM    3  C   UNL     1      41.748 -12.699   4.245  1.00  0.00     0.036 A 
HETATM    4  C   UNL     1      41.023 -13.325   5.277  1.00  0.00     0.057 A 
HETATM    5  N   UNL     1      39.968 -12.642   5.895  1.00  0.00    -0.324 N 
HETATM    6  C   UNL     1      39.555 -11.401   5.480  1.00  0.00     0.240 C 
HETATM    7  O   UNL     1      38.752 -10.750   6.149  1.00  0.00    -0.271 OA
HETATM    8  C   UNL     1      42.863 -13.360   3.720  1.00  0.00     0.027 A 
HETATM    9  C   UNL     1      43.199 -14.650   4.151  1.00  0.00     0.019 A 
HETATM   10  C   UNL     1      42.435 -15.282   5.140  1.00  0.00     0.034 A 
HETATM   11  C   UNL     1      41.359 -14.603   5.722  1.00  0.00     0.048 A 
HETATM   12  H   UNL     1      41.819 -11.145   2.933  1.00  0.00     0.128 HD
HETATM   13  H   UNL     1      39.550 -12.999   6.743  1.00  0.00     0.169 HD
ENDROOT
BRANCH  10  14
HETATM   14  C   UNL     1      42.734 -16.656   5.627  1.00  0.00     0.252 C 
HETATM   15  N   UNL     1      44.033 -17.093   5.494  1.00  0.00    -0.353 N 
HETATM   16  H   UNL     1      44.750 -16.497   5.107  1.00  0.00     0.163 HD
HETATM   17  O   UNL     1      41.832 -17.353   6.075  1.00  0.00    -0.268 OA
BRANCH  15  18
HETATM   18  C   UNL     1      44.405 -18.432   5.896  1.00  0.00     0.161 C 
BRANCH  18  19
HETATM   19  C   UNL     1      44.343 -19.403   4.742  1.00  0.00    -0.040 A 
HETATM   20  C   UNL     1      43.948 -18.966   3.469  1.00  0.00     0.010 A 
HETATM   21  C   UNL     1      43.927 -19.854   2.388  1.00  0.00     0.024 A 
HETATM   22  C   UNL     1      44.301 -21.183   2.576  1.00  0.00     0.034 A 
HETATM   23 CL   UNL     1      44.274 -22.274   1.246  1.00  0.00    -0.084 Cl
HETATM   24  C   UNL     1      44.705 -21.631   3.831  1.00  0.00     0.024 A 
HETATM   25  C   UNL     1      44.734 -20.741   4.907  1.00  0.00     0.010 A 
ENDBRANCH  18  19
ENDBRANCH  15  18
ENDBRANCH  10  14
BRANCH   1  26
HETATM   26  C   UNL     1      39.167 -11.424   2.960  1.00  0.00     0.103 C 
BRANCH  26  27
HETATM   27  S   UNL     1      39.907 -11.602   1.297  1.00  0.00    -0.162 SA
BRANCH  27  28
HETATM   28  C   UNL     1      39.061 -13.110   0.722  1.00  0.00     0.112 C 
BRANCH  28  29
HETATM   29  C   UNL     1      39.881 -14.347   1.014  1.00  0.00    -0.043 A 
HETATM   30  C   UNL     1      40.923 -14.780   0.165  1.00  0.00    -0.055 A 
HETATM   31  C   UNL     1      41.299 -14.027  -1.083  1.00  0.00     0.049 C 
HETATM   32  C   UNL     1      41.641 -15.941   0.497  1.00  0.00     0.007 A 
HETATM   33  C   UNL     1      41.326 -16.677   1.639  1.00  0.00     0.001 A 
HETATM   34  C   UNL     1      40.289 -16.263   2.467  1.00  0.00     0.001 A 
HETATM   35  C   UNL     1      39.572 -15.109   2.157  1.00  0.00     0.008 A 
ENDBRANCH  28  29
ENDBRANCH  27  28
ENDBRANCH  26  27
ENDBRANCH   1  26
TORSDOF 7
ENDMDL
MODEL 6
REMARK VINA RESULT:      -9.1      2.383      3.103
REMARK  7 active torsions:
REMARK  status: ('A' for Active; 'I' for Inactive)
REMARK    1  A    between atoms: C_3  and  C_4 
REMARK    2  A    between atoms: C_4  and  S_5 
REMARK    3  A    between atoms: S_5  and  C_6 
REMARK    4  A    between atoms: C_6  and  C_7 
REMARK    5  A    between atoms: C_16  and  C_17 
REMARK       I    between atoms: C_17  and  N_18 
REMARK    6  A    between atoms: N_18  and  C_19 
REMARK    7  A    between atoms: C_19  and  C_20 
ROOT
HETATM    1  C   UNL     1      43.619 -15.802   7.237  1.00  0.00     0.162 C 
HETATM    2  N   UNL     1      42.190 -15.818   6.818  1.00  0.00    -0.277 NA
HETATM    3  C   UNL     1      41.935 -15.218   5.572  1.00  0.00     0.036 A 
HETATM    4  C   UNL     1      42.766 -14.199   5.068  1.00  0.00     0.057 A 
HETATM    5  N   UNL     1      43.903 -13.813   5.788  1.00  0.00    -0.324 N 
HETATM    6  C   UNL     1      44.291 -14.447   6.942  1.00  0.00     0.240 C 
HETATM    7  O   UNL     1      45.182 -13.977   7.648  1.00  0.00    -0.271 OA
HETATM    8  C   UNL     1      40.749 -15.508   4.888  1.00  0.00     0.027 A 
HETATM    9  C   UNL     1      40.440 -14.860   3.685  1.00  0.00     0.019 A 
HETATM   10  C   UNL     1      41.305 -13.889   3.168  1.00  0.00     0.034 A 
HETATM   11  C   UNL     1      42.459 -13.539   3.879  1.00  0.00     0.048 A 
HETATM   12  H   UNL     1      41.739 -16.720   6.930  1.00  0.00     0.128 HD
HETATM   13  H   UNL     1      44.414 -12.978   5.536  1.00  0.00     0.169 HD
ENDROOT
BRANCH  10  14
HETATM   14  C   UNL     1      41.037 -13.178   1.887  1.00  0.00     0.252 C 
HETATM   15  N   UNL     1      41.946 -13.367   0.871  1.00  0.00    -0.353 N 
HETATM   16  H   UNL     1      42.740 -13.980   0.985  1.00  0.00     0.163 HD
HETATM   17  O   UNL     1      40.070 -12.431   1.795  1.00  0.00    -0.268 OA
BRANCH  15  18
HETATM   18  C   UNL     1      41.793 -12.680  -0.393  1.00  0.00     0.161 C 
BRANCH  18  19
HETATM   19  C   UNL     1      41.116 -13.547  -1.426  1.00  0.00    -0.040 A 
HETATM   20  C   UNL     1      41.414 -14.915  -1.509  1.00  0.00     0.010 A 
HETATM   21  C   UNL     1      40.760 -15.729  -2.439  1.00  0.00     0.024 A 
HETATM   22  C   UNL     1      39.804 -15.180  -3.290  1.00  0.00     0.034 A 
HETATM   23 CL   UNL     1      39.000 -16.183  -4.434  1.00  0.00    -0.084 Cl
HETATM   24  C   UNL     1      39.488 -13.826  -3.215  1.00  0.00     0.024 A 
HETATM   25  C   UNL     1      40.136 -13.015  -2.280  1.00  0.00     0.010 A 
ENDBRANCH  18  19
ENDBRANCH  15  18
ENDBRANCH  10  14
BRANCH   1  26
HETATM   26  C   UNL     1      44.367 -16.966   6.554  1.00  0.00     0.103 C 
BRANCH  26  27
HETATM   27  S   UNL     1      43.421 -18.478   6.154  1.00  0.00    -0.162 SA
BRANCH  27  28
HETATM   28  C   UNL     1      44.442 -19.157   4.806  1.00  0.00     0.112 C 
BRANCH  28  29
HETATM   29  C   UNL     1      44.020 -18.603   3.463  1.00  0.00    -0.043 A 
HETATM   30  C   UNL     1      43.853 -19.424   2.326  1.00  0.00    -0.055 A 
HETATM   31  C   UNL     1      44.069 -20.913   2.379  1.00  0.00     0.049 C 
HETATM   32  C   UNL     1      43.462 -18.840   1.109  1.00  0.00     0.007 A 
HETATM   33  C   UNL     1      43.257 -17.465   1.007  1.00  0.00     0.001 A 
HETATM   34  C   UNL     1      43.438 -16.652   2.121  1.00  0.00     0.001 A 
HETATM   35  C   UNL     1      43.817 -17.216   3.338  1.00  0.00     0.008 A 
ENDBRANCH  28  29
ENDBRANCH  27  28
ENDBRANCH  26  27
ENDBRANCH   1  26
TORSDOF 7
ENDMDL
MODEL 7
REMARK VINA RESULT:      -9.0      4.822      7.232
REMARK  7 active torsions:
REMARK  status: ('A' for Active; 'I' for Inactive)
REMARK    1  A    between atoms: C_3  and  C_4 
REMARK    2  A    between atoms: C_4  and  S_5 
REMARK    3  A    between atoms: S_5  and  C_6 
REMARK    4  A    between atoms: C_6  and  C_7 
REMARK    5  A    between atoms: C_16  and  C_17 
REMARK       I    between atoms: C_17  and  N_18 
REMARK    6  A    between atoms: N_18  and  C_19 
REMARK    7  A    between atoms: C_19  and  C_20 
ROOT
HETATM    1  C   UNL     1      41.106 -16.919   2.943  1.00  0.00     0.162 C 
HETATM    2  N   UNL     1      40.129 -15.870   2.540  1.00  0.00    -0.277 NA
HETATM    3  C   UNL     1      40.004 -14.802   3.446  1.00  0.00     0.036 A 
HETATM    4  C   UNL     1      40.271 -14.973   4.818  1.00  0.00     0.057 A 
HETATM    5  N   UNL     1      40.727 -16.211   5.286  1.00  0.00    -0.324 N 
HETATM    6  C   UNL     1      41.002 -17.258   4.442  1.00  0.00     0.240 C 
HETATM    7  O   UNL     1      41.225 -18.383   4.888  1.00  0.00    -0.271 OA
HETATM    8  C   UNL     1      39.448 -13.590   3.023  1.00  0.00     0.027 A 
HETATM    9  C   UNL     1      39.242 -12.542   3.928  1.00  0.00     0.019 A 
HETATM   10  C   UNL     1      39.565 -12.708   5.281  1.00  0.00     0.034 A 
HETATM   11  C   UNL     1      40.056 -13.940   5.729  1.00  0.00     0.048 A 
HETATM   12  H   UNL     1      40.222 -15.570   1.574  1.00  0.00     0.128 HD
HETATM   13  H   UNL     1      40.761 -16.407   6.277  1.00  0.00     0.169 HD
ENDROOT
BRANCH  10  14
HETATM   14  C   UNL     1      39.383 -11.626   6.286  1.00  0.00     0.252 C 
HETATM   15  N   UNL     1      39.455 -11.992   7.612  1.00  0.00    -0.353 N 
HETATM   16  H   UNL     1      39.647 -12.945   7.883  1.00  0.00     0.163 HD
HETATM   17  O   UNL     1      39.135 -10.485   5.916  1.00  0.00    -0.268 OA
BRANCH  15  18
HETATM   18  C   UNL     1      39.242 -11.017   8.659  1.00  0.00     0.161 C 
BRANCH  18  19
HETATM   19  C   UNL     1      40.459 -10.865   9.540  1.00  0.00    -0.040 A 
HETATM   20  C   UNL     1      41.691 -10.489   8.987  1.00  0.00     0.010 A 
HETATM   21  C   UNL     1      42.811 -10.309   9.805  1.00  0.00     0.024 A 
HETATM   22  C   UNL     1      42.703 -10.502  11.180  1.00  0.00     0.034 A 
HETATM   23 CL   UNL     1      44.082 -10.280  12.186  1.00  0.00    -0.084 Cl
HETATM   24  C   UNL     1      41.484 -10.865  11.747  1.00  0.00     0.024 A 
HETATM   25  C   UNL     1      40.364 -11.037  10.930  1.00  0.00     0.010 A 
ENDBRANCH  18  19
ENDBRANCH  15  18
ENDBRANCH  10  14
BRANCH   1  26
HETATM   26  C   UNL     1      42.531 -16.466   2.562  1.00  0.00     0.103 C 
BRANCH  26  27
HETATM   27  S   UNL     1      43.943 -17.407   3.244  1.00  0.00    -0.162 SA
BRANCH  27  28
HETATM   28  C   UNL     1      43.752 -18.981   2.349  1.00  0.00     0.112 C 
BRANCH  28  29
HETATM   29  C   UNL     1      44.136 -20.159   3.217  1.00  0.00    -0.043 A 
HETATM   30  C   UNL     1      44.224 -21.474   2.711  1.00  0.00    -0.055 A 
HETATM   31  C   UNL     1      43.957 -21.790   1.263  1.00  0.00     0.049 C 
HETATM   32  C   UNL     1      44.584 -22.520   3.577  1.00  0.00     0.007 A 
HETATM   33  C   UNL     1      44.834 -22.279   4.927  1.00  0.00     0.001 A 
HETATM   34  C   UNL     1      44.730 -20.988   5.432  1.00  0.00     0.001 A 
HETATM   35  C   UNL     1      44.382 -19.937   4.585  1.00  0.00     0.008 A 
ENDBRANCH  28  29
ENDBRANCH  27  28
ENDBRANCH  26  27
ENDBRANCH   1  26
TORSDOF 7
ENDMDL
MODEL 8
REMARK VINA RESULT:      -8.8      5.393      8.969
REMARK  7 active torsions:
REMARK  status: ('A' for Active; 'I' for Inactive)
REMARK    1  A    between atoms: C_3  and  C_4 
REMARK    2  A    between atoms: C_4  and  S_5 
REMARK    3  A    between atoms: S_5  and  C_6 
REMARK    4  A    between atoms: C_6  and  C_7 
REMARK    5  A    between atoms: C_16  and  C_17 
REMARK       I    between atoms: C_17  and  N_18 
REMARK    6  A    between atoms: N_18  and  C_19 
REMARK    7  A    between atoms: C_19  and  C_20 
ROOT
HETATM    1  C   UNL     1      39.574 -11.445   6.292  1.00  0.00     0.162 C 
HETATM    2  N   UNL     1      39.715 -12.841   6.791  1.00  0.00    -0.277 NA
HETATM    3  C   UNL     1      40.150 -13.769   5.829  1.00  0.00     0.036 A 
HETATM    4  C   UNL     1      39.897 -13.573   4.457  1.00  0.00     0.057 A 
HETATM    5  N   UNL     1      39.252 -12.405   4.032  1.00  0.00    -0.324 N 
HETATM    6  C   UNL     1      38.920 -11.393   4.898  1.00  0.00     0.240 C 
HETATM    7  O   UNL     1      38.198 -10.466   4.534  1.00  0.00    -0.271 OA
HETATM    8  C   UNL     1      40.698 -14.990   6.236  1.00  0.00     0.027 A 
HETATM    9  C   UNL     1      41.063 -15.960   5.294  1.00  0.00     0.019 A 
HETATM   10  C   UNL     1      40.856 -15.728   3.929  1.00  0.00     0.034 A 
HETATM   11  C   UNL     1      40.245 -14.539   3.514  1.00  0.00     0.048 A 
HETATM   12  H   UNL     1      40.210 -12.914   7.674  1.00  0.00     0.128 HD
HETATM   13  H   UNL     1      38.909 -12.321   3.085  1.00  0.00     0.169 HD
ENDROOT
BRANCH  10  14
HETATM   14  C   UNL     1      41.238 -16.714   2.881  1.00  0.00     0.252 C 
HETATM   15  N   UNL     1      42.581 -16.978   2.738  1.00  0.00    -0.353 N 
HETATM   16  H   UNL     1      43.268 -16.541   3.335  1.00  0.00     0.163 HD
HETATM   17  O   UNL     1      40.374 -17.210   2.168  1.00  0.00    -0.268 OA
BRANCH  15  18
HETATM   18  C   UNL     1      43.049 -17.886   1.714  1.00  0.00     0.161 C 
BRANCH  18  19
HETATM   19  C   UNL     1      43.512 -19.199   2.296  1.00  0.00    -0.040 A 
HETATM   20  C   UNL     1      43.353 -20.390   1.574  1.00  0.00     0.010 A 
HETATM   21  C   UNL     1      43.816 -21.604   2.093  1.00  0.00     0.024 A 
HETATM   22  C   UNL     1      44.441 -21.631   3.338  1.00  0.00     0.034 A 
HETATM   23 CL   UNL     1      45.009 -23.125   3.977  1.00  0.00    -0.084 Cl
HETATM   24  C   UNL     1      44.616 -20.456   4.065  1.00  0.00     0.024 A 
HETATM   25  C   UNL     1      44.161 -19.244   3.541  1.00  0.00     0.010 A 
ENDBRANCH  18  19
ENDBRANCH  15  18
ENDBRANCH  10  14
BRANCH   1  26
HETATM   26  C   UNL     1      40.956 -10.757   6.295  1.00  0.00     0.103 C 
BRANCH  26  27
HETATM   27  S   UNL     1      41.449  -9.824   7.788  1.00  0.00    -0.162 SA
BRANCH  27  28
HETATM   28  C   UNL     1      42.547 -11.038   8.586  1.00  0.00     0.112 C 
BRANCH  28  29
HETATM   29  C   UNL     1      42.710 -10.747  10.061  1.00  0.00    -0.043 A 
HETATM   30  C   UNL     1      43.977 -10.604  10.668  1.00  0.00    -0.055 A 
HETATM   31  C   UNL     1      45.255 -10.715   9.879  1.00  0.00     0.049 C 
HETATM   32  C   UNL     1      44.053 -10.337  12.045  1.00  0.00     0.007 A 
HETATM   33  C   UNL     1      42.898 -10.232  12.820  1.00  0.00     0.001 A 
HETATM   34  C   UNL     1      41.650 -10.391  12.229  1.00  0.00     0.001 A 
HETATM   35  C   UNL     1      41.556 -10.647  10.862  1.00  0.00     0.008 A 
ENDBRANCH  28  29
ENDBRANCH  27  28
ENDBRANCH  26  27
ENDBRANCH   1  26
TORSDOF 7
ENDMDL
MODEL 9
REMARK VINA RESULT:      -8.7      5.959      9.583
REMARK  7 active torsions:
REMARK  status: ('A' for Active; 'I' for Inactive)
REMARK    1  A    between atoms: C_3  and  C_4 
REMARK    2  A    between atoms: C_4  and  S_5 
REMARK    3  A    between atoms: S_5  and  C_6 
REMARK    4  A    between atoms: C_6  and  C_7 
REMARK    5  A    between atoms: C_16  and  C_17 
REMARK       I    between atoms: C_17  and  N_18 
REMARK    6  A    between atoms: N_18  and  C_19 
REMARK    7  A    between atoms: C_19  and  C_20 
ROOT
HETATM    1  C   UNL     1      40.670 -10.383   6.846  1.00  0.00     0.162 C 
HETATM    2  N   UNL     1      39.996 -11.701   6.684  1.00  0.00    -0.277 NA
HETATM    3  C   UNL     1      40.631 -12.582   5.790  1.00  0.00     0.036 A 
HETATM    4  C   UNL     1      41.419 -12.101   4.727  1.00  0.00     0.057 A 
HETATM    5  N   UNL     1      41.628 -10.723   4.587  1.00  0.00    -0.324 N 
HETATM    6  C   UNL     1      41.154  -9.813   5.499  1.00  0.00     0.240 C 
HETATM    7  O   UNL     1      41.193  -8.606   5.261  1.00  0.00    -0.271 OA
HETATM    8  C   UNL     1      40.350 -13.951   5.844  1.00  0.00     0.027 A 
HETATM    9  C   UNL     1      40.910 -14.833   4.911  1.00  0.00     0.019 A 
HETATM   10  C   UNL     1      41.738 -14.347   3.893  1.00  0.00     0.034 A 
HETATM   11  C   UNL     1      41.970 -12.970   3.787  1.00  0.00     0.048 A 
HETATM   12  H   UNL     1      39.732 -12.138   7.561  1.00  0.00     0.128 HD
HETATM   13  H   UNL     1      42.042 -10.348   3.745  1.00  0.00     0.169 HD
ENDROOT
BRANCH  10  14
HETATM   14  C   UNL     1      42.374 -15.237   2.883  1.00  0.00     0.252 C 
HETATM   15  N   UNL     1      42.863 -16.440   3.338  1.00  0.00    -0.353 N 
HETATM   16  H   UNL     1      42.770 -16.713   4.305  1.00  0.00     0.163 HD
HETATM   17  O   UNL     1      42.481 -14.862   1.721  1.00  0.00    -0.268 OA
BRANCH  15  18
HETATM   18  C   UNL     1      43.540 -17.349   2.438  1.00  0.00     0.161 C 
BRANCH  18  19
HETATM   19  C   UNL     1      43.991 -18.605   3.142  1.00  0.00    -0.040 A 
HETATM   20  C   UNL     1      44.180 -18.610   4.532  1.00  0.00     0.010 A 
HETATM   21  C   UNL     1      44.560 -19.782   5.193  1.00  0.00     0.024 A 
HETATM   22  C   UNL     1      44.751 -20.956   4.468  1.00  0.00     0.034 A 
HETATM   23 CL   UNL     1      45.219 -22.398   5.282  1.00  0.00    -0.084 Cl
HETATM   24  C   UNL     1      44.557 -20.972   3.089  1.00  0.00     0.024 A 
HETATM   25  C   UNL     1      44.170 -19.803   2.430  1.00  0.00     0.010 A 
ENDBRANCH  18  19
ENDBRANCH  15  18
ENDBRANCH  10  14
BRANCH   1  26
HETATM   26  C   UNL     1      41.833 -10.522   7.852  1.00  0.00     0.103 C 
BRANCH  26  27
HETATM   27  S   UNL     1      41.665  -9.702   9.478  1.00  0.00    -0.162 SA
BRANCH  27  28
HETATM   28  C   UNL     1      42.213 -11.045  10.580  1.00  0.00     0.112 C 
BRANCH  28  29
HETATM   29  C   UNL     1      42.346 -10.565  12.008  1.00  0.00    -0.043 A 
HETATM   30  C   UNL     1      41.423 -10.924  13.015  1.00  0.00    -0.055 A 
HETATM   31  C   UNL     1      40.250 -11.826  12.736  1.00  0.00     0.049 C 
HETATM   32  C   UNL     1      41.607 -10.438  14.320  1.00  0.00     0.007 A 
HETATM   33  C   UNL     1      42.674  -9.594  14.627  1.00  0.00     0.001 A 
HETATM   34  C   UNL     1      43.574  -9.224  13.634  1.00  0.00     0.001 A 
HETATM   35  C   UNL     1      43.411  -9.704  12.336  1.00  0.00     0.008 A 
ENDBRANCH  28  29
ENDBRANCH  27  28
ENDBRANCH  26  27
ENDBRANCH   1  26
TORSDOF 7
ENDMDL
MODEL 10
REMARK VINA RESULT:      -8.6      6.103      9.525
REMARK  7 active torsions:
REMARK  status: ('A' for Active; 'I' for Inactive)
REMARK    1  A    between atoms: C_3  and  C_4 
REMARK    2  A    between atoms: C_4  and  S_5 
REMARK    3  A    between atoms: S_5  and  C_6 
REMARK    4  A    between atoms: C_6  and  C_7 
REMARK    5  A    between atoms: C_16  and  C_17 
REMARK       I    between atoms: C_17  and  N_18 
REMARK    6  A    between atoms: N_18  and  C_19 
REMARK    7  A    between atoms: C_19  and  C_20 
ROOT
HETATM    1  C   UNL     1      40.949 -10.204   7.841  1.00  0.00     0.162 C 
HETATM    2  N   UNL     1      40.261  -9.994   6.537  1.00  0.00    -0.277 NA
HETATM    3  C   UNL     1      40.136 -11.149   5.745  1.00  0.00     0.036 A 
HETATM    4  C   UNL     1      41.055 -12.211   5.850  1.00  0.00     0.057 A 
HETATM    5  N   UNL     1      42.080 -12.147   6.803  1.00  0.00    -0.324 N 
HETATM    6  C   UNL     1      42.183 -11.116   7.702  1.00  0.00     0.240 C 
HETATM    7  O   UNL     1      43.187 -10.991   8.403  1.00  0.00    -0.271 OA
HETATM    8  C   UNL     1      39.190 -11.188   4.715  1.00  0.00     0.027 A 
HETATM    9  C   UNL     1      39.105 -12.297   3.864  1.00  0.00     0.019 A 
HETATM   10  C   UNL     1      39.990 -13.371   4.017  1.00  0.00     0.034 A 
HETATM   11  C   UNL     1      40.987 -13.312   4.999  1.00  0.00     0.048 A 
HETATM   12  H   UNL     1      39.401  -9.459   6.607  1.00  0.00     0.128 HD
HETATM   13  H   UNL     1      42.844 -12.809   6.782  1.00  0.00     0.169 HD
ENDROOT
BRANCH  10  14
HETATM   14  C   UNL     1      39.938 -14.582   3.153  1.00  0.00     0.252 C 
HETATM   15  N   UNL     1      40.926 -15.522   3.343  1.00  0.00    -0.353 N 
HETATM   16  H   UNL     1      41.634 -15.403   4.052  1.00  0.00     0.163 HD
HETATM   17  O   UNL     1      39.071 -14.681   2.293  1.00  0.00    -0.268 OA
BRANCH  15  18
HETATM   18  C   UNL     1      40.983 -16.709   2.517  1.00  0.00     0.161 C 
BRANCH  18  19
HETATM   19  C   UNL     1      42.075 -17.651   2.962  1.00  0.00    -0.040 A 
HETATM   20  C   UNL     1      42.429 -17.736   4.316  1.00  0.00     0.010 A 
HETATM   21  C   UNL     1      43.412 -18.636   4.738  1.00  0.00     0.024 A 
HETATM   22  C   UNL     1      44.046 -19.457   3.807  1.00  0.00     0.034 A 
HETATM   23 CL   UNL     1      45.257 -20.564   4.327  1.00  0.00    -0.084 Cl
HETATM   24  C   UNL     1      43.700 -19.392   2.460  1.00  0.00     0.024 A 
HETATM   25  C   UNL     1      42.712 -18.499   2.041  1.00  0.00     0.010 A 
ENDBRANCH  18  19
ENDBRANCH  15  18
ENDBRANCH  10  14
BRANCH   1  26
HETATM   26  C   UNL     1      39.942 -10.766   8.868  1.00  0.00     0.103 C 
BRANCH  26  27
HETATM   27  S   UNL     1      39.929 -10.040  10.545  1.00  0.00    -0.162 SA
BRANCH  27  28
HETATM   28  C   UNL     1      41.110 -11.141  11.389  1.00  0.00     0.112 C 
BRANCH  28  29
HETATM   29  C   UNL     1      41.704 -10.478  12.611  1.00  0.00    -0.043 A 
HETATM   30  C   UNL     1      43.027  -9.985  12.635  1.00  0.00    -0.055 A 
HETATM   31  C   UNL     1      43.932 -10.071  11.435  1.00  0.00     0.049 C 
HETATM   32  C   UNL     1      43.515  -9.384  13.808  1.00  0.00     0.007 A 
HETATM   33  C   UNL     1      42.718  -9.286  14.948  1.00  0.00     0.001 A 
HETATM   34  C   UNL     1      41.421  -9.788  14.933  1.00  0.00     0.001 A 
HETATM   35  C   UNL     1      40.919 -10.380  13.776  1.00  0.00     0.008 A 
ENDBRANCH  28  29
ENDBRANCH  27  28
ENDBRANCH  26  27
ENDBRANCH   1  26
TORSDOF 7
ENDMDL
