MODEL 1
REMARK VINA RESULT:      -9.0      0.000      0.000
REMARK  5 active torsions:
REMARK  status: ('A' for Active; 'I' for Inactive)
REMARK    1  A    between atoms: C_3  and  C_4 
REMARK    2  A    between atoms: C_15  and  C_16 
REMARK       I    between atoms: C_16  and  N_17 
REMARK    3  A    between atoms: N_17  and  C_18 
REMARK    4  A    between atoms: C_18  and  C_19 
REMARK    5  A    between atoms: C_22  and  O_23 
ROOT
HETATM    1  C   UNL     1      40.187 -13.006   6.355  1.00  0.00     0.055 C 
HETATM    2  C   UNL     1      40.384 -13.637   5.009  1.00  0.00     0.024 A 
HETATM    3  C   UNL     1      41.146 -14.706   4.716  1.00  0.00     0.096 A 
HETATM    4  O   UNL     1      41.255 -15.288   3.470  1.00  0.00    -0.307 OA
HETATM    5  C   UNL     1      40.620 -14.722   2.395  1.00  0.00     0.106 A 
HETATM    6  C   UNL     1      39.839 -13.574   2.545  1.00  0.00     0.050 A 
HETATM    7  C   UNL     1      39.651 -13.000   3.887  1.00  0.00     0.193 A 
HETATM    8  O   UNL     1      38.922 -12.030   4.063  1.00  0.00    -0.287 OA
HETATM    9  C   UNL     1      40.764 -15.305   1.125  1.00  0.00     0.066 A 
HETATM   10  C   UNL     1      40.153 -14.681   0.020  1.00  0.00     0.020 A 
HETATM   11  C   UNL     1      39.393 -13.521   0.174  1.00  0.00     0.002 A 
HETATM   12  C   UNL     1      39.225 -12.971   1.441  1.00  0.00     0.018 A 
ENDROOT
BRANCH   9  13
HETATM   13  C   UNL     1      41.486 -16.592   0.851  1.00  0.00     0.254 C 
HETATM   14  N   UNL     1      42.860 -16.563   0.819  1.00  0.00    -0.353 N 
HETATM   15  H   UNL     1      43.345 -15.676   0.838  1.00  0.00     0.163 HD
HETATM   16  O   UNL     1      40.845 -17.630   0.712  1.00  0.00    -0.268 OA
BRANCH  14  17
HETATM   17  C   UNL     1      43.659 -17.757   0.697  1.00  0.00     0.161 C 
BRANCH  17  18
HETATM   18  C   UNL     1      43.867 -18.433   2.025  1.00  0.00    -0.040 A 
HETATM   19  C   UNL     1      44.084 -19.814   2.103  1.00  0.00     0.011 A 
HETATM   20  C   UNL     1      44.320 -20.420   3.339  1.00  0.00     0.037 A 
HETATM   21  C   UNL     1      44.344 -19.665   4.513  1.00  0.00     0.068 A 
HETATM   22  C   UNL     1      44.091 -18.294   4.445  1.00  0.00     0.037 A 
HETATM   23  C   UNL     1      43.849 -17.684   3.209  1.00  0.00     0.011 A 
BRANCH  21  24
HETATM   24  O   UNL     1      44.615 -20.374   5.650  1.00  0.00    -0.356 OA
HETATM   25  C   UNL     1      44.662 -21.789   5.520  1.00  0.00     0.210 C 
ENDBRANCH  21  24
ENDBRANCH  17  18
ENDBRANCH  14  17
ENDBRANCH   9  13
BRANCH   3  26
HETATM   26  C   UNL     1      41.983 -15.387   5.715  1.00  0.00    -0.002 A 
HETATM   27  C   UNL     1      43.253 -14.893   6.033  1.00  0.00     0.014 A 
HETATM   28  C   UNL     1      44.032 -15.534   6.999  1.00  0.00     0.001 A 
HETATM   29  C   UNL     1      43.544 -16.665   7.654  1.00  0.00     0.000 A 
HETATM   30  C   UNL     1      42.277 -17.158   7.347  1.00  0.00     0.001 A 
HETATM   31  C   UNL     1      41.497 -16.520   6.382  1.00  0.00     0.014 A 
ENDBRANCH   3  26
TORSDOF 5
ENDMDL
MODEL 2
REMARK VINA RESULT:      -8.7      1.380      6.220
REMARK  5 active torsions:
REMARK  status: ('A' for Active; 'I' for Inactive)
REMARK    1  A    between atoms: C_3  and  C_4 
REMARK    2  A    between atoms: C_15  and  C_16 
REMARK       I    between atoms: C_16  and  N_17 
REMARK    3  A    between atoms: N_17  and  C_18 
REMARK    4  A    between atoms: C_18  and  C_19 
REMARK    5  A    between atoms: C_22  and  O_23 
ROOT
HETATM    1  C   UNL     1      43.459 -16.697   8.034  1.00  0.00     0.055 C 
HETATM    2  C   UNL     1      43.433 -17.174   6.613  1.00  0.00     0.024 A 
HETATM    3  C   UNL     1      42.892 -16.545   5.554  1.00  0.00     0.096 A 
HETATM    4  O   UNL     1      42.941 -16.996   4.250  1.00  0.00    -0.307 OA
HETATM    5  C   UNL     1      43.503 -18.215   3.971  1.00  0.00     0.106 A 
HETATM    6  C   UNL     1      44.053 -19.002   4.985  1.00  0.00     0.050 A 
HETATM    7  C   UNL     1      44.081 -18.486   6.364  1.00  0.00     0.193 A 
HETATM    8  O   UNL     1      44.612 -19.124   7.266  1.00  0.00    -0.287 OA
HETATM    9  C   UNL     1      43.517 -18.678   2.645  1.00  0.00     0.066 A 
HETATM   10  C   UNL     1      44.046 -19.956   2.379  1.00  0.00     0.020 A 
HETATM   11  C   UNL     1      44.573 -20.746   3.401  1.00  0.00     0.002 A 
HETATM   12  C   UNL     1      44.588 -20.264   4.706  1.00  0.00     0.018 A 
ENDROOT
BRANCH   9  13
HETATM   13  C   UNL     1      43.055 -17.886   1.456  1.00  0.00     0.254 C 
HETATM   14  N   UNL     1      41.793 -17.343   1.498  1.00  0.00    -0.353 N 
HETATM   15  H   UNL     1      41.160 -17.599   2.244  1.00  0.00     0.163 HD
HETATM   16  O   UNL     1      43.820 -17.704   0.513  1.00  0.00    -0.268 OA
BRANCH  14  17
HETATM   17  C   UNL     1      41.294 -16.458   0.475  1.00  0.00     0.161 C 
BRANCH  17  18
HETATM   18  C   UNL     1      40.948 -15.101   1.027  1.00  0.00    -0.040 A 
HETATM   19  C   UNL     1      39.633 -14.622   0.984  1.00  0.00     0.011 A 
HETATM   20  C   UNL     1      39.318 -13.380   1.540  1.00  0.00     0.037 A 
HETATM   21  C   UNL     1      40.304 -12.598   2.146  1.00  0.00     0.068 A 
HETATM   22  C   UNL     1      41.623 -13.053   2.157  1.00  0.00     0.037 A 
HETATM   23  C   UNL     1      41.942 -14.295   1.596  1.00  0.00     0.011 A 
BRANCH  21  24
HETATM   24  O   UNL     1      39.859 -11.418   2.677  1.00  0.00    -0.356 OA
HETATM   25  C   UNL     1      38.524 -11.406   3.166  1.00  0.00     0.210 C 
ENDBRANCH  21  24
ENDBRANCH  17  18
ENDBRANCH  14  17
ENDBRANCH   9  13
BRANCH   3  26
HETATM   26  C   UNL     1      42.157 -15.278   5.669  1.00  0.00    -0.002 A 
HETATM   27  C   UNL     1      42.846 -14.063   5.760  1.00  0.00     0.014 A 
HETATM   28  C   UNL     1      42.140 -12.861   5.847  1.00  0.00     0.001 A 
HETATM   29  C   UNL     1      40.744 -12.868   5.839  1.00  0.00     0.000 A 
HETATM   30  C   UNL     1      40.052 -14.073   5.742  1.00  0.00     0.001 A 
HETATM   31  C   UNL     1      40.755 -15.275   5.655  1.00  0.00     0.014 A 
ENDBRANCH   3  26
TORSDOF 5
ENDMDL
MODEL 3
REMARK VINA RESULT:      -8.5      4.647      7.818
REMARK  5 active torsions:
REMARK  status: ('A' for Active; 'I' for Inactive)
REMARK    1  A    between atoms: C_3  and  C_4 
REMARK    2  A    between atoms: C_15  and  C_16 
REMARK       I    between atoms: C_16  and  N_17 
REMARK    3  A    between atoms: N_17  and  C_18 
REMARK    4  A    between atoms: C_18  and  C_19 
REMARK    5  A    between atoms: C_22  and  O_23 
ROOT
HETATM    1  C   UNL     1      38.506  -9.280   8.968  1.00  0.00     0.055 C 
HETATM    2  C   UNL     1      39.908  -9.724   9.257  1.00  0.00     0.024 A 
HETATM    3  C   UNL     1      40.706 -10.464   8.466  1.00  0.00     0.096 A 
HETATM    4  O   UNL     1      42.013 -10.804   8.748  1.00  0.00    -0.307 OA
HETATM    5  C   UNL     1      42.563 -10.451   9.954  1.00  0.00     0.106 A 
HETATM    6  C   UNL     1      41.828  -9.729  10.897  1.00  0.00     0.050 A 
HETATM    7  C   UNL     1      40.463  -9.291  10.563  1.00  0.00     0.193 A 
HETATM    8  O   UNL     1      39.813  -8.603  11.343  1.00  0.00    -0.287 OA
HETATM    9  C   UNL     1      43.885 -10.831  10.245  1.00  0.00     0.066 A 
HETATM   10  C   UNL     1      44.419 -10.513  11.508  1.00  0.00     0.020 A 
HETATM   11  C   UNL     1      43.670  -9.810  12.453  1.00  0.00     0.002 A 
HETATM   12  C   UNL     1      42.375  -9.407  12.143  1.00  0.00     0.018 A 
ENDROOT
BRANCH   9  13
HETATM   13  C   UNL     1      44.811 -11.514   9.281  1.00  0.00     0.254 C 
HETATM   14  N   UNL     1      44.407 -12.713   8.743  1.00  0.00    -0.353 N 
HETATM   15  H   UNL     1      43.582 -13.173   9.103  1.00  0.00     0.163 HD
HETATM   16  O   UNL     1      45.866 -10.972   8.964  1.00  0.00    -0.268 OA
BRANCH  14  17
HETATM   17  C   UNL     1      45.151 -13.391   7.711  1.00  0.00     0.161 C 
BRANCH  17  18
HETATM   18  C   UNL     1      44.259 -14.222   6.828  1.00  0.00    -0.040 A 
HETATM   19  C   UNL     1      44.411 -15.612   6.758  1.00  0.00     0.011 A 
HETATM   20  C   UNL     1      43.547 -16.375   5.968  1.00  0.00     0.037 A 
HETATM   21  C   UNL     1      42.522 -15.769   5.240  1.00  0.00     0.068 A 
HETATM   22  C   UNL     1      42.390 -14.380   5.277  1.00  0.00     0.037 A 
HETATM   23  C   UNL     1      43.257 -13.612   6.062  1.00  0.00     0.011 A 
BRANCH  21  24
HETATM   24  O   UNL     1      41.729 -16.630   4.533  1.00  0.00    -0.356 OA
HETATM   25  C   UNL     1      41.762 -17.995   4.931  1.00  0.00     0.210 C 
ENDBRANCH  21  24
ENDBRANCH  17  18
ENDBRANCH  14  17
ENDBRANCH   9  13
BRANCH   3  26
HETATM   26  C   UNL     1      40.260 -11.021   7.181  1.00  0.00    -0.002 A 
HETATM   27  C   UNL     1      40.587 -10.383   5.979  1.00  0.00     0.014 A 
HETATM   28  C   UNL     1      40.179 -10.931   4.761  1.00  0.00     0.001 A 
HETATM   29  C   UNL     1      39.447 -12.119   4.738  1.00  0.00     0.000 A 
HETATM   30  C   UNL     1      39.123 -12.762   5.931  1.00  0.00     0.001 A 
HETATM   31  C   UNL     1      39.530 -12.218   7.149  1.00  0.00     0.014 A 
ENDBRANCH   3  26
TORSDOF 5
ENDMDL
MODEL 4
REMARK VINA RESULT:      -8.2      2.193      7.036
REMARK  5 active torsions:
REMARK  status: ('A' for Active; 'I' for Inactive)
REMARK    1  A    between atoms: C_3  and  C_4 
REMARK    2  A    between atoms: C_15  and  C_16 
REMARK       I    between atoms: C_16  and  N_17 
REMARK    3  A    between atoms: N_17  and  C_18 
REMARK    4  A    between atoms: C_18  and  C_19 
REMARK    5  A    between atoms: C_22  and  O_23 
ROOT
HETATM    1  C   UNL     1      44.122 -20.713   6.712  1.00  0.00     0.055 C 
HETATM    2  C   UNL     1      44.007 -19.336   6.132  1.00  0.00     0.024 A 
HETATM    3  C   UNL     1      43.908 -19.007   4.832  1.00  0.00     0.096 A 
HETATM    4  O   UNL     1      43.746 -17.726   4.345  1.00  0.00    -0.307 OA
HETATM    5  C   UNL     1      43.763 -16.662   5.209  1.00  0.00     0.106 A 
HETATM    6  C   UNL     1      43.916 -16.853   6.583  1.00  0.00     0.050 A 
HETATM    7  C   UNL     1      44.001 -18.224   7.115  1.00  0.00     0.193 A 
HETATM    8  O   UNL     1      44.073 -18.429   8.321  1.00  0.00    -0.287 OA
HETATM    9  C   UNL     1      43.630 -15.359   4.698  1.00  0.00     0.066 A 
HETATM   10  C   UNL     1      43.706 -14.271   5.589  1.00  0.00     0.020 A 
HETATM   11  C   UNL     1      43.882 -14.470   6.959  1.00  0.00     0.002 A 
HETATM   12  C   UNL     1      43.975 -15.764   7.460  1.00  0.00     0.018 A 
ENDROOT
BRANCH   9  13
HETATM   13  C   UNL     1      43.356 -15.027   3.260  1.00  0.00     0.254 C 
HETATM   14  N   UNL     1      42.809 -16.009   2.468  1.00  0.00    -0.353 N 
HETATM   15  H   UNL     1      42.737 -16.955   2.818  1.00  0.00     0.163 HD
HETATM   16  O   UNL     1      43.575 -13.892   2.846  1.00  0.00    -0.268 OA
BRANCH  14  17
HETATM   17  C   UNL     1      42.383 -15.765   1.112  1.00  0.00     0.161 C 
BRANCH  17  18
HETATM   18  C   UNL     1      41.012 -15.147   1.057  1.00  0.00    -0.040 A 
HETATM   19  C   UNL     1      40.745 -14.066   0.209  1.00  0.00     0.011 A 
HETATM   20  C   UNL     1      39.457 -13.531   0.136  1.00  0.00     0.037 A 
HETATM   21  C   UNL     1      38.418 -14.062   0.902  1.00  0.00     0.068 A 
HETATM   22  C   UNL     1      38.687 -15.115   1.778  1.00  0.00     0.037 A 
HETATM   23  C   UNL     1      39.978 -15.649   1.858  1.00  0.00     0.011 A 
BRANCH  21  24
HETATM   24  O   UNL     1      37.200 -13.467   0.715  1.00  0.00    -0.356 OA
HETATM   25  C   UNL     1      37.152 -12.055   0.874  1.00  0.00     0.210 C 
ENDBRANCH  21  24
ENDBRANCH  17  18
ENDBRANCH  14  17
ENDBRANCH   9  13
BRANCH   3  26
HETATM   26  C   UNL     1      43.974 -20.000   3.751  1.00  0.00    -0.002 A 
HETATM   27  C   UNL     1      44.648 -21.212   3.940  1.00  0.00     0.014 A 
HETATM   28  C   UNL     1      44.687 -22.160   2.915  1.00  0.00     0.001 A 
HETATM   29  C   UNL     1      44.050 -21.904   1.701  1.00  0.00     0.000 A 
HETATM   30  C   UNL     1      43.372 -20.702   1.507  1.00  0.00     0.001 A 
HETATM   31  C   UNL     1      43.331 -19.754   2.530  1.00  0.00     0.014 A 
ENDBRANCH   3  26
TORSDOF 5
ENDMDL
MODEL 5
REMARK VINA RESULT:      -8.2      1.804      4.394
REMARK  5 active torsions:
REMARK  status: ('A' for Active; 'I' for Inactive)
REMARK    1  A    between atoms: C_3  and  C_4 
REMARK    2  A    between atoms: C_15  and  C_16 
REMARK       I    between atoms: C_16  and  N_17 
REMARK    3  A    between atoms: N_17  and  C_18 
REMARK    4  A    between atoms: C_18  and  C_19 
REMARK    5  A    between atoms: C_22  and  O_23 
ROOT
HETATM    1  C   UNL     1      40.979 -15.823  -0.953  1.00  0.00     0.055 C 
HETATM    2  C   UNL     1      40.843 -15.222   0.414  1.00  0.00     0.024 A 
HETATM    3  C   UNL     1      41.440 -15.635   1.546  1.00  0.00     0.096 A 
HETATM    4  O   UNL     1      41.331 -15.016   2.775  1.00  0.00    -0.307 OA
HETATM    5  C   UNL     1      40.496 -13.938   2.923  1.00  0.00     0.106 A 
HETATM    6  C   UNL     1      39.770 -13.437   1.841  1.00  0.00     0.050 A 
HETATM    7  C   UNL     1      39.950 -14.041   0.510  1.00  0.00     0.193 A 
HETATM    8  O   UNL     1      39.375 -13.586  -0.473  1.00  0.00    -0.287 OA
HETATM    9  C   UNL     1      40.367 -13.336   4.186  1.00  0.00     0.066 A 
HETATM   10  C   UNL     1      39.464 -12.266   4.338  1.00  0.00     0.020 A 
HETATM   11  C   UNL     1      38.725 -11.786   3.257  1.00  0.00     0.002 A 
HETATM   12  C   UNL     1      38.886 -12.364   2.002  1.00  0.00     0.018 A 
ENDROOT
BRANCH   9  13
HETATM   13  C   UNL     1      41.168 -13.711   5.399  1.00  0.00     0.254 C 
HETATM   14  N   UNL     1      41.497 -15.036   5.566  1.00  0.00    -0.353 N 
HETATM   15  H   UNL     1      41.084 -15.736   4.965  1.00  0.00     0.163 HD
HETATM   16  O   UNL     1      41.546 -12.836   6.173  1.00  0.00    -0.268 OA
BRANCH  14  17
HETATM   17  C   UNL     1      42.371 -15.492   6.619  1.00  0.00     0.161 C 
BRANCH  17  18
HETATM   18  C   UNL     1      43.099 -16.752   6.237  1.00  0.00    -0.040 A 
HETATM   19  C   UNL     1      42.458 -17.760   5.507  1.00  0.00     0.011 A 
HETATM   20  C   UNL     1      43.160 -18.905   5.122  1.00  0.00     0.037 A 
HETATM   21  C   UNL     1      44.507 -19.063   5.455  1.00  0.00     0.068 A 
HETATM   22  C   UNL     1      45.140 -18.079   6.215  1.00  0.00     0.037 A 
HETATM   23  C   UNL     1      44.438 -16.934   6.607  1.00  0.00     0.011 A 
BRANCH  21  24
HETATM   24  O   UNL     1      45.084 -20.213   4.992  1.00  0.00    -0.356 OA
HETATM   25  C   UNL     1      44.552 -21.435   5.488  1.00  0.00     0.210 C 
ENDBRANCH  21  24
ENDBRANCH  17  18
ENDBRANCH  14  17
ENDBRANCH   9  13
BRANCH   3  26
HETATM   26  C   UNL     1      42.290 -16.832   1.609  1.00  0.00    -0.002 A 
HETATM   27  C   UNL     1      43.683 -16.712   1.657  1.00  0.00     0.014 A 
HETATM   28  C   UNL     1      44.483 -17.854   1.739  1.00  0.00     0.001 A 
HETATM   29  C   UNL     1      43.894 -19.119   1.778  1.00  0.00     0.000 A 
HETATM   30  C   UNL     1      42.507 -19.245   1.738  1.00  0.00     0.001 A 
HETATM   31  C   UNL     1      41.706 -18.106   1.656  1.00  0.00     0.014 A 
ENDBRANCH   3  26
TORSDOF 5
ENDMDL
MODEL 6
REMARK VINA RESULT:      -8.2      2.179      4.700
REMARK  5 active torsions:
REMARK  status: ('A' for Active; 'I' for Inactive)
REMARK    1  A    between atoms: C_3  and  C_4 
REMARK    2  A    between atoms: C_15  and  C_16 
REMARK       I    between atoms: C_16  and  N_17 
REMARK    3  A    between atoms: N_17  and  C_18 
REMARK    4  A    between atoms: C_18  and  C_19 
REMARK    5  A    between atoms: C_22  and  O_23 
ROOT
HETATM    1  C   UNL     1      41.458 -14.505   0.285  1.00  0.00     0.055 C 
HETATM    2  C   UNL     1      41.755 -14.267   1.734  1.00  0.00     0.024 A 
HETATM    3  C   UNL     1      42.335 -15.121   2.596  1.00  0.00     0.096 A 
HETATM    4  O   UNL     1      42.641 -14.839   3.912  1.00  0.00    -0.307 OA
HETATM    5  C   UNL     1      42.273 -13.635   4.454  1.00  0.00     0.106 A 
HETATM    6  C   UNL     1      41.613 -12.673   3.687  1.00  0.00     0.050 A 
HETATM    7  C   UNL     1      41.361 -12.936   2.261  1.00  0.00     0.193 A 
HETATM    8  O   UNL     1      40.840 -12.089   1.544  1.00  0.00    -0.287 OA
HETATM    9  C   UNL     1      42.561 -13.371   5.804  1.00  0.00     0.066 A 
HETATM   10  C   UNL     1      42.128 -12.154   6.364  1.00  0.00     0.020 A 
HETATM   11  C   UNL     1      41.449 -11.207   5.597  1.00  0.00     0.002 A 
HETATM   12  C   UNL     1      41.199 -11.461   4.252  1.00  0.00     0.018 A 
ENDROOT
BRANCH   9  13
HETATM   13  C   UNL     1      43.355 -14.274   6.702  1.00  0.00     0.254 C 
HETATM   14  N   UNL     1      42.832 -15.513   6.991  1.00  0.00    -0.353 N 
HETATM   15  H   UNL     1      41.884 -15.734   6.721  1.00  0.00     0.163 HD
HETATM   16  O   UNL     1      44.455 -13.912   7.110  1.00  0.00    -0.268 OA
BRANCH  14  17
HETATM   17  C   UNL     1      43.564 -16.510   7.732  1.00  0.00     0.161 C 
BRANCH  17  18
HETATM   18  C   UNL     1      43.871 -17.721   6.892  1.00  0.00    -0.040 A 
HETATM   19  C   UNL     1      43.552 -19.008   7.342  1.00  0.00     0.011 A 
HETATM   20  C   UNL     1      43.803 -20.118   6.533  1.00  0.00     0.037 A 
HETATM   21  C   UNL     1      44.372 -19.966   5.267  1.00  0.00     0.068 A 
HETATM   22  C   UNL     1      44.726 -18.689   4.829  1.00  0.00     0.037 A 
HETATM   23  C   UNL     1      44.481 -17.575   5.640  1.00  0.00     0.011 A 
BRANCH  21  24
HETATM   24  O   UNL     1      44.537 -21.128   4.565  1.00  0.00    -0.356 OA
HETATM   25  C   UNL     1      45.072 -22.233   5.282  1.00  0.00     0.210 C 
ENDBRANCH  21  24
ENDBRANCH  17  18
ENDBRANCH  14  17
ENDBRANCH   9  13
BRANCH   3  26
HETATM   26  C   UNL     1      42.707 -16.495   2.229  1.00  0.00    -0.002 A 
HETATM   27  C   UNL     1      43.953 -16.762   1.650  1.00  0.00     0.014 A 
HETATM   28  C   UNL     1      44.308 -18.073   1.324  1.00  0.00     0.001 A 
HETATM   29  C   UNL     1      43.422 -19.121   1.579  1.00  0.00     0.000 A 
HETATM   30  C   UNL     1      42.183 -18.863   2.161  1.00  0.00     0.001 A 
HETATM   31  C   UNL     1      41.826 -17.554   2.488  1.00  0.00     0.014 A 
ENDBRANCH   3  26
TORSDOF 5
ENDMDL
MODEL 7
REMARK VINA RESULT:      -8.0      2.307      6.417
REMARK  5 active torsions:
REMARK  status: ('A' for Active; 'I' for Inactive)
REMARK    1  A    between atoms: C_3  and  C_4 
REMARK    2  A    between atoms: C_15  and  C_16 
REMARK       I    between atoms: C_16  and  N_17 
REMARK    3  A    between atoms: N_17  and  C_18 
REMARK    4  A    between atoms: C_18  and  C_19 
REMARK    5  A    between atoms: C_22  and  O_23 
ROOT
HETATM    1  C   UNL     1      43.983 -15.870   7.244  1.00  0.00     0.055 C 
HETATM    2  C   UNL     1      43.563 -16.418   5.913  1.00  0.00     0.024 A 
HETATM    3  C   UNL     1      42.689 -15.873   5.049  1.00  0.00     0.096 A 
HETATM    4  O   UNL     1      42.373 -16.384   3.807  1.00  0.00    -0.307 OA
HETATM    5  C   UNL     1      42.905 -17.583   3.409  1.00  0.00     0.106 A 
HETATM    6  C   UNL     1      43.786 -18.288   4.232  1.00  0.00     0.050 A 
HETATM    7  C   UNL     1      44.192 -17.703   5.521  1.00  0.00     0.193 A 
HETATM    8  O   UNL     1      45.011 -18.266   6.239  1.00  0.00    -0.287 OA
HETATM    9  C   UNL     1      42.551 -18.111   2.156  1.00  0.00     0.066 A 
HETATM   10  C   UNL     1      43.059 -19.370   1.782  1.00  0.00     0.020 A 
HETATM   11  C   UNL     1      43.920 -20.078   2.620  1.00  0.00     0.002 A 
HETATM   12  C   UNL     1      44.295 -19.532   3.844  1.00  0.00     0.018 A 
ENDROOT
BRANCH   9  13
HETATM   13  C   UNL     1      41.701 -17.405   1.139  1.00  0.00     0.254 C 
HETATM   14  N   UNL     1      42.191 -16.243   0.590  1.00  0.00    -0.353 N 
HETATM   15  H   UNL     1      43.024 -15.818   0.972  1.00  0.00     0.163 HD
HETATM   16  O   UNL     1      40.632 -17.898   0.792  1.00  0.00    -0.268 OA
BRANCH  14  17
HETATM   17  C   UNL     1      41.525 -15.553  -0.488  1.00  0.00     0.161 C 
BRANCH  17  18
HETATM   18  C   UNL     1      41.809 -14.076  -0.468  1.00  0.00    -0.040 A 
HETATM   19  C   UNL     1      42.062 -13.377  -1.655  1.00  0.00     0.011 A 
HETATM   20  C   UNL     1      42.280 -11.997  -1.626  1.00  0.00     0.037 A 
HETATM   21  C   UNL     1      42.248 -11.294  -0.420  1.00  0.00     0.068 A 
HETATM   22  C   UNL     1      42.034 -11.991   0.769  1.00  0.00     0.037 A 
HETATM   23  C   UNL     1      41.821 -13.374   0.745  1.00  0.00     0.011 A 
BRANCH  21  24
HETATM   24  O   UNL     1      42.446  -9.945  -0.533  1.00  0.00    -0.356 OA
HETATM   25  C   UNL     1      43.529  -9.530  -1.356  1.00  0.00     0.210 C 
ENDBRANCH  21  24
ENDBRANCH  17  18
ENDBRANCH  14  17
ENDBRANCH   9  13
BRANCH   3  26
HETATM   26  C   UNL     1      41.940 -14.642   5.342  1.00  0.00    -0.002 A 
HETATM   27  C   UNL     1      42.510 -13.388   5.097  1.00  0.00     0.014 A 
HETATM   28  C   UNL     1      41.784 -12.224   5.357  1.00  0.00     0.001 A 
HETATM   29  C   UNL     1      40.484 -12.308   5.859  1.00  0.00     0.000 A 
HETATM   30  C   UNL     1      39.908 -13.554   6.100  1.00  0.00     0.001 A 
HETATM   31  C   UNL     1      40.631 -14.718   5.840  1.00  0.00     0.014 A 
ENDBRANCH   3  26
TORSDOF 5
ENDMDL
MODEL 8
REMARK VINA RESULT:      -8.0      2.594      6.751
REMARK  5 active torsions:
REMARK  status: ('A' for Active; 'I' for Inactive)
REMARK    1  A    between atoms: C_3  and  C_4 
REMARK    2  A    between atoms: C_15  and  C_16 
REMARK       I    between atoms: C_16  and  N_17 
REMARK    3  A    between atoms: N_17  and  C_18 
REMARK    4  A    between atoms: C_18  and  C_19 
REMARK    5  A    between atoms: C_22  and  O_23 
ROOT
HETATM    1  C   UNL     1      44.954 -18.503   6.549  1.00  0.00     0.055 C 
HETATM    2  C   UNL     1      44.136 -17.602   5.674  1.00  0.00     0.024 A 
HETATM    3  C   UNL     1      43.629 -17.887   4.461  1.00  0.00     0.096 A 
HETATM    4  O   UNL     1      42.831 -17.046   3.713  1.00  0.00    -0.307 OA
HETATM    5  C   UNL     1      42.572 -15.776   4.162  1.00  0.00     0.106 A 
HETATM    6  C   UNL     1      43.083 -15.326   5.381  1.00  0.00     0.050 A 
HETATM    7  C   UNL     1      43.862 -16.250   6.221  1.00  0.00     0.193 A 
HETATM    8  O   UNL     1      44.271 -15.907   7.325  1.00  0.00    -0.287 OA
HETATM    9  C   UNL     1      41.786 -14.916   3.376  1.00  0.00     0.066 A 
HETATM   10  C   UNL     1      41.574 -13.597   3.820  1.00  0.00     0.020 A 
HETATM   11  C   UNL     1      42.106 -13.148   5.029  1.00  0.00     0.002 A 
HETATM   12  C   UNL     1      42.853 -14.017   5.818  1.00  0.00     0.018 A 
ENDROOT
BRANCH   9  13
HETATM   13  C   UNL     1      41.095 -15.311   2.103  1.00  0.00     0.254 C 
HETATM   14  N   UNL     1      41.879 -15.658   1.029  1.00  0.00    -0.353 N 
HETATM   15  H   UNL     1      42.878 -15.507   1.065  1.00  0.00     0.163 HD
HETATM   16  O   UNL     1      39.869 -15.362   2.068  1.00  0.00    -0.268 OA
BRANCH  14  17
HETATM   17  C   UNL     1      41.328 -16.179  -0.198  1.00  0.00     0.161 C 
BRANCH  17  18
HETATM   18  C   UNL     1      41.227 -15.120  -1.263  1.00  0.00    -0.040 A 
HETATM   19  C   UNL     1      41.722 -13.829  -1.042  1.00  0.00     0.011 A 
HETATM   20  C   UNL     1      41.660 -12.870  -2.055  1.00  0.00     0.037 A 
HETATM   21  C   UNL     1      41.108 -13.179  -3.299  1.00  0.00     0.068 A 
HETATM   22  C   UNL     1      40.579 -14.453  -3.512  1.00  0.00     0.037 A 
HETATM   23  C   UNL     1      40.634 -15.415  -2.497  1.00  0.00     0.011 A 
BRANCH  21  24
HETATM   24  O   UNL     1      41.136 -12.161  -4.212  1.00  0.00    -0.356 OA
HETATM   25  C   UNL     1      42.324 -11.380  -4.256  1.00  0.00     0.210 C 
ENDBRANCH  21  24
ENDBRANCH  17  18
ENDBRANCH  14  17
ENDBRANCH   9  13
BRANCH   3  26
HETATM   26  C   UNL     1      43.884 -19.159   3.769  1.00  0.00    -0.002 A 
HETATM   27  C   UNL     1      44.589 -20.186   4.408  1.00  0.00     0.014 A 
HETATM   28  C   UNL     1      44.808 -21.399   3.752  1.00  0.00     0.001 A 
HETATM   29  C   UNL     1      44.321 -21.593   2.459  1.00  0.00     0.000 A 
HETATM   30  C   UNL     1      43.613 -20.577   1.819  1.00  0.00     0.001 A 
HETATM   31  C   UNL     1      43.392 -19.364   2.473  1.00  0.00     0.014 A 
ENDBRANCH   3  26
TORSDOF 5
ENDMDL
MODEL 9
REMARK VINA RESULT:      -7.9      1.543      2.230
REMARK  5 active torsions:
REMARK  status: ('A' for Active; 'I' for Inactive)
REMARK    1  A    between atoms: C_3  and  C_4 
REMARK    2  A    between atoms: C_15  and  C_16 
REMARK       I    between atoms: C_16  and  N_17 
REMARK    3  A    between atoms: N_17  and  C_18 
REMARK    4  A    between atoms: C_18  and  C_19 
REMARK    5  A    between atoms: C_22  and  O_23 
ROOT
HETATM    1  C   UNL     1      39.597 -12.535   6.654  1.00  0.00     0.055 C 
HETATM    2  C   UNL     1      39.606 -12.686   5.162  1.00  0.00     0.024 A 
HETATM    3  C   UNL     1      40.266 -13.611   4.443  1.00  0.00     0.096 A 
HETATM    4  O   UNL     1      40.201 -13.748   3.071  1.00  0.00    -0.307 OA
HETATM    5  C   UNL     1      39.483 -12.845   2.330  1.00  0.00     0.106 A 
HETATM    6  C   UNL     1      38.792 -11.798   2.943  1.00  0.00     0.050 A 
HETATM    7  C   UNL     1      38.789 -11.700   4.412  1.00  0.00     0.193 A 
HETATM    8  O   UNL     1      38.142 -10.831   4.986  1.00  0.00    -0.287 OA
HETATM    9  C   UNL     1      39.450 -12.975   0.931  1.00  0.00     0.066 A 
HETATM   10  C   UNL     1      38.756 -12.009   0.177  1.00  0.00     0.020 A 
HETATM   11  C   UNL     1      38.087 -10.954   0.796  1.00  0.00     0.002 A 
HETATM   12  C   UNL     1      38.094 -10.853   2.184  1.00  0.00     0.018 A 
ENDROOT
BRANCH   9  13
HETATM   13  C   UNL     1      40.060 -14.111   0.162  1.00  0.00     0.254 C 
HETATM   14  N   UNL     1      41.162 -14.732   0.702  1.00  0.00    -0.353 N 
HETATM   15  H   UNL     1      41.617 -14.334   1.512  1.00  0.00     0.163 HD
HETATM   16  O   UNL     1      39.541 -14.483  -0.886  1.00  0.00    -0.268 OA
BRANCH  14  17
HETATM   17  C   UNL     1      41.749 -15.914   0.120  1.00  0.00     0.161 C 
BRANCH  17  18
HETATM   18  C   UNL     1      42.272 -16.856   1.170  1.00  0.00    -0.040 A 
HETATM   19  C   UNL     1      43.572 -17.370   1.092  1.00  0.00     0.011 A 
HETATM   20  C   UNL     1      44.059 -18.209   2.097  1.00  0.00     0.037 A 
HETATM   21  C   UNL     1      43.262 -18.548   3.193  1.00  0.00     0.068 A 
HETATM   22  C   UNL     1      41.953 -18.069   3.257  1.00  0.00     0.037 A 
HETATM   23  C   UNL     1      41.460 -17.233   2.248  1.00  0.00     0.011 A 
BRANCH  21  24
HETATM   24  O   UNL     1      43.868 -19.351   4.120  1.00  0.00    -0.356 OA
HETATM   25  C   UNL     1      44.713 -20.377   3.616  1.00  0.00     0.210 C 
ENDBRANCH  21  24
ENDBRANCH  17  18
ENDBRANCH  14  17
ENDBRANCH   9  13
BRANCH   3  26
HETATM   26  C   UNL     1      41.168 -14.599   5.050  1.00  0.00    -0.002 A 
HETATM   27  C   UNL     1      42.550 -14.522   4.843  1.00  0.00     0.014 A 
HETATM   28  C   UNL     1      43.402 -15.452   5.442  1.00  0.00     0.001 A 
HETATM   29  C   UNL     1      42.878 -16.460   6.253  1.00  0.00     0.000 A 
HETATM   30  C   UNL     1      41.504 -16.539   6.469  1.00  0.00     0.001 A 
HETATM   31  C   UNL     1      40.651 -15.611   5.872  1.00  0.00     0.014 A 
ENDBRANCH   3  26
TORSDOF 5
ENDMDL
MODEL 10
REMARK VINA RESULT:      -7.7      2.788      6.970
REMARK  5 active torsions:
REMARK  status: ('A' for Active; 'I' for Inactive)
REMARK    1  A    between atoms: C_3  and  C_4 
REMARK    2  A    between atoms: C_15  and  C_16 
REMARK       I    between atoms: C_16  and  N_17 
REMARK    3  A    between atoms: N_17  and  C_18 
REMARK    4  A    between atoms: C_18  and  C_19 
REMARK    5  A    between atoms: C_22  and  O_23 
ROOT
HETATM    1  C   UNL     1      43.397 -18.646   6.150  1.00  0.00     0.055 C 
HETATM    2  C   UNL     1      43.028 -17.770   4.990  1.00  0.00     0.024 A 
HETATM    3  C   UNL     1      43.054 -18.095   3.685  1.00  0.00     0.096 A 
HETATM    4  O   UNL     1      42.652 -17.274   2.652  1.00  0.00    -0.307 OA
HETATM    5  C   UNL     1      42.263 -15.986   2.918  1.00  0.00     0.106 A 
HETATM    6  C   UNL     1      42.243 -15.496   4.225  1.00  0.00     0.050 A 
HETATM    7  C   UNL     1      42.588 -16.396   5.338  1.00  0.00     0.193 A 
HETATM    8  O   UNL     1      42.520 -16.016   6.501  1.00  0.00    -0.287 OA
HETATM    9  C   UNL     1      41.887 -15.147   1.854  1.00  0.00     0.066 A 
HETATM   10  C   UNL     1      41.545 -13.810   2.134  1.00  0.00     0.020 A 
HETATM   11  C   UNL     1      41.549 -13.322   3.441  1.00  0.00     0.002 A 
HETATM   12  C   UNL     1      41.887 -14.169   4.491  1.00  0.00     0.018 A 
ENDROOT
BRANCH   9  13
HETATM   13  C   UNL     1      41.766 -15.583   0.423  1.00  0.00     0.254 C 
HETATM   14  N   UNL     1      41.618 -14.607  -0.534  1.00  0.00    -0.353 N 
HETATM   15  H   UNL     1      41.452 -13.649  -0.255  1.00  0.00     0.163 HD
HETATM   16  O   UNL     1      41.851 -16.774   0.141  1.00  0.00    -0.268 OA
BRANCH  14  17
HETATM   17  C   UNL     1      41.624 -14.897  -1.947  1.00  0.00     0.161 C 
BRANCH  17  18
HETATM   18  C   UNL     1      40.231 -14.976  -2.510  1.00  0.00    -0.040 A 
HETATM   19  C   UNL     1      39.202 -14.176  -1.999  1.00  0.00     0.011 A 
HETATM   20  C   UNL     1      37.925 -14.228  -2.561  1.00  0.00     0.037 A 
HETATM   21  C   UNL     1      37.652 -15.074  -3.638  1.00  0.00     0.068 A 
HETATM   22  C   UNL     1      38.664 -15.902  -4.127  1.00  0.00     0.037 A 
HETATM   23  C   UNL     1      39.943 -15.856  -3.562  1.00  0.00     0.011 A 
BRANCH  21  24
HETATM   24  O   UNL     1      36.371 -15.008  -4.114  1.00  0.00    -0.356 OA
HETATM   25  C   UNL     1      36.108 -14.010  -5.092  1.00  0.00     0.210 C 
ENDBRANCH  21  24
ENDBRANCH  17  18
ENDBRANCH  14  17
ENDBRANCH   9  13
BRANCH   3  26
HETATM   26  C   UNL     1      43.538 -19.394   3.197  1.00  0.00    -0.002 A 
HETATM   27  C   UNL     1      44.486 -20.119   3.927  1.00  0.00     0.014 A 
HETATM   28  C   UNL     1      44.924 -21.363   3.467  1.00  0.00     0.001 A 
HETATM   29  C   UNL     1      44.415 -21.889   2.279  1.00  0.00     0.000 A 
HETATM   30  C   UNL     1      43.466 -21.174   1.550  1.00  0.00     0.001 A 
HETATM   31  C   UNL     1      43.026 -19.932   2.007  1.00  0.00     0.014 A 
ENDBRANCH   3  26
TORSDOF 5
ENDMDL
