MODEL 1
REMARK VINA RESULT:      -8.2      0.000      0.000
REMARK  3 active torsions:
REMARK  status: ('A' for Active; 'I' for Inactive)
REMARK    1  A    between atoms: C_4  and  N_5 
REMARK       I    between atoms: N_5  and  C_6 
REMARK    2  A    between atoms: C_6  and  C_7 
REMARK    3  A    between atoms: C_7  and  C_8 
ROOT
HETATM    1  C   UNL     1      41.361 -16.241   6.410  1.00  0.00     0.286 C 
HETATM    2  N   UNL     1      42.069 -14.900   6.217  1.00  0.00    -0.056 N 
HETATM    3  H   UNL     1      42.255 -14.524   7.171  1.00  0.00     0.278 HD
HETATM    4  H   UNL     1      42.988 -15.037   5.779  1.00  0.00     0.278 HD
HETATM    5  C   UNL     1      41.210 -13.963   5.424  1.00  0.00     0.209 C 
HETATM    6  C   UNL     1      40.977 -14.589   4.030  1.00  0.00     0.115 C 
HETATM    7  N   UNL     1      40.469 -15.958   4.109  1.00  0.00    -0.353 N 
HETATM    8  C   UNL     1      40.920 -16.851   5.061  1.00  0.00     0.249 C 
HETATM    9  O   UNL     1      40.882 -18.057   4.850  1.00  0.00    -0.271 OA
HETATM   10  C   UNL     1      41.872 -12.597   5.308  1.00  0.00     0.035 C 
HETATM   11  C   UNL     1      40.993 -11.667   4.468  1.00  0.00     0.002 C 
HETATM   12  C   UNL     1      40.648 -12.268   3.103  1.00  0.00     0.002 C 
HETATM   13  C   UNL     1      40.063 -13.680   3.207  1.00  0.00     0.027 C 
HETATM   14  H   UNL     1      40.216 -16.419   3.237  1.00  0.00     0.163 HD
ENDROOT
BRANCH   1  15
HETATM   15  C   UNL     1      42.217 -17.210   7.233  1.00  0.00     0.146 C 
BRANCH  15  16
HETATM   16  C   UNL     1      43.662 -16.784   7.172  1.00  0.00     0.224 C 
HETATM   17  N   UNL     1      44.554 -17.333   6.310  1.00  0.00    -0.327 N 
HETATM   18  H   UNL     1      45.506 -17.035   6.508  1.00  0.00     0.169 HD
HETATM   19  O   UNL     1      44.051 -15.905   7.955  1.00  0.00    -0.273 OA
BRANCH  17  20
HETATM   20  C   UNL     1      44.432 -18.251   5.250  1.00  0.00     0.035 A 
HETATM   21  C   UNL     1      44.080 -17.924   3.942  1.00  0.00     0.036 A 
HETATM   22  C   UNL     1      43.982 -18.920   2.954  1.00  0.00    -0.059 A 
HETATM   23  C   UNL     1      43.649 -18.556   1.536  1.00  0.00     0.048 C 
HETATM   24  C   UNL     1      44.269 -20.248   3.285  1.00  0.00     0.013 A 
HETATM   25  C   UNL     1      44.634 -20.595   4.587  1.00  0.00    -0.059 A 
HETATM   26  C   UNL     1      44.734 -19.587   5.555  1.00  0.00     0.036 A 
HETATM   27  C   UNL     1      44.970 -22.018   4.927  1.00  0.00     0.048 C 
ENDBRANCH  17  20
ENDBRANCH  15  16
ENDBRANCH   1  15
TORSDOF 3
ENDMDL
MODEL 2
REMARK VINA RESULT:      -8.0      2.030      3.601
REMARK  3 active torsions:
REMARK  status: ('A' for Active; 'I' for Inactive)
REMARK    1  A    between atoms: C_4  and  N_5 
REMARK       I    between atoms: N_5  and  C_6 
REMARK    2  A    between atoms: C_6  and  C_7 
REMARK    3  A    between atoms: C_7  and  C_8 
ROOT
HETATM    1  C   UNL     1      40.941 -16.004   3.012  1.00  0.00     0.286 C 
HETATM    2  N   UNL     1      39.982 -14.852   2.711  1.00  0.00    -0.056 N 
HETATM    3  H   UNL     1      40.204 -14.527   1.746  1.00  0.00     0.278 HD
HETATM    4  H   UNL     1      39.012 -15.190   2.682  1.00  0.00     0.278 HD
HETATM    5  C   UNL     1      40.156 -13.749   3.708  1.00  0.00     0.209 C 
HETATM    6  C   UNL     1      39.812 -14.309   5.108  1.00  0.00     0.115 C 
HETATM    7  N   UNL     1      40.551 -15.531   5.419  1.00  0.00    -0.353 N 
HETATM    8  C   UNL     1      40.794 -16.502   4.467  1.00  0.00     0.249 C 
HETATM    9  O   UNL     1      40.960 -17.669   4.797  1.00  0.00    -0.271 OA
HETATM   10  C   UNL     1      39.268 -12.563   3.359  1.00  0.00     0.035 C 
HETATM   11  C   UNL     1      39.439 -11.463   4.408  1.00  0.00     0.002 C 
HETATM   12  C   UNL     1      39.199 -11.973   5.832  1.00  0.00     0.002 C 
HETATM   13  C   UNL     1      40.025 -13.220   6.161  1.00  0.00     0.027 C 
HETATM   14  H   UNL     1      40.442 -15.926   6.352  1.00  0.00     0.163 HD
ENDROOT
BRANCH   1  15
HETATM   15  C   UNL     1      40.789 -17.138   1.993  1.00  0.00     0.146 C 
BRANCH  15  16
HETATM   16  C   UNL     1      41.895 -17.051   0.972  1.00  0.00     0.224 C 
HETATM   17  N   UNL     1      43.111 -17.621   1.157  1.00  0.00    -0.327 N 
HETATM   18  H   UNL     1      43.776 -17.338   0.440  1.00  0.00     0.169 HD
HETATM   19  O   UNL     1      41.684 -16.417  -0.073  1.00  0.00    -0.273 OA
BRANCH  17  20
HETATM   20  C   UNL     1      43.639 -18.470   2.148  1.00  0.00     0.035 A 
HETATM   21  C   UNL     1      44.001 -18.073   3.435  1.00  0.00     0.036 A 
HETATM   22  C   UNL     1      44.524 -19.000   4.352  1.00  0.00    -0.059 A 
HETATM   23  C   UNL     1      44.868 -18.578   5.751  1.00  0.00     0.048 C 
HETATM   24  C   UNL     1      44.656 -20.342   3.976  1.00  0.00     0.013 A 
HETATM   25  C   UNL     1      44.288 -20.761   2.695  1.00  0.00    -0.059 A 
HETATM   26  C   UNL     1      43.761 -19.823   1.799  1.00  0.00     0.036 A 
HETATM   27  C   UNL     1      44.405 -22.207   2.310  1.00  0.00     0.048 C 
ENDBRANCH  17  20
ENDBRANCH  15  16
ENDBRANCH   1  15
TORSDOF 3
ENDMDL
MODEL 3
REMARK VINA RESULT:      -7.7      2.712      3.705
REMARK  3 active torsions:
REMARK  status: ('A' for Active; 'I' for Inactive)
REMARK    1  A    between atoms: C_4  and  N_5 
REMARK       I    between atoms: N_5  and  C_6 
REMARK    2  A    between atoms: C_6  and  C_7 
REMARK    3  A    between atoms: C_7  and  C_8 
ROOT
HETATM    1  C   UNL     1      40.430 -15.810   2.887  1.00  0.00     0.286 C 
HETATM    2  N   UNL     1      41.689 -15.147   3.447  1.00  0.00    -0.056 N 
HETATM    3  H   UNL     1      42.263 -15.909   3.865  1.00  0.00     0.278 HD
HETATM    4  H   UNL     1      42.253 -14.748   2.688  1.00  0.00     0.278 HD
HETATM    5  C   UNL     1      41.327 -14.117   4.472  1.00  0.00     0.209 C 
HETATM    6  C   UNL     1      40.477 -13.027   3.778  1.00  0.00     0.115 C 
HETATM    7  N   UNL     1      39.339 -13.585   3.050  1.00  0.00    -0.353 N 
HETATM    8  C   UNL     1      39.432 -14.766   2.340  1.00  0.00     0.249 C 
HETATM    9  O   UNL     1      38.694 -14.978   1.385  1.00  0.00    -0.271 OA
HETATM   10  C   UNL     1      42.580 -13.519   5.097  1.00  0.00     0.035 C 
HETATM   11  C   UNL     1      42.187 -12.448   6.117  1.00  0.00     0.002 C 
HETATM   12  C   UNL     1      41.268 -11.380   5.515  1.00  0.00     0.002 C 
HETATM   13  C   UNL     1      40.049 -11.979   4.806  1.00  0.00     0.027 C 
HETATM   14  H   UNL     1      38.682 -12.931   2.626  1.00  0.00     0.163 HD
ENDROOT
BRANCH   1  15
HETATM   15  C   UNL     1      40.779 -16.880   1.847  1.00  0.00     0.146 C 
BRANCH  15  16
HETATM   16  C   UNL     1      42.049 -16.494   1.131  1.00  0.00     0.224 C 
HETATM   17  N   UNL     1      43.250 -17.054   1.415  1.00  0.00    -0.327 N 
HETATM   18  H   UNL     1      44.014 -16.573   0.945  1.00  0.00     0.169 HD
HETATM   19  O   UNL     1      41.989 -15.616   0.257  1.00  0.00    -0.273 OA
BRANCH  17  20
HETATM   20  C   UNL     1      43.648 -18.115   2.250  1.00  0.00     0.035 A 
HETATM   21  C   UNL     1      43.983 -17.993   3.598  1.00  0.00     0.036 A 
HETATM   22  C   UNL     1      44.373 -19.118   4.346  1.00  0.00    -0.059 A 
HETATM   23  C   UNL     1      44.687 -18.989   5.808  1.00  0.00     0.048 C 
HETATM   24  C   UNL     1      44.395 -20.377   3.736  1.00  0.00     0.013 A 
HETATM   25  C   UNL     1      44.052 -20.521   2.390  1.00  0.00    -0.059 A 
HETATM   26  C   UNL     1      43.659 -19.389   1.664  1.00  0.00     0.036 A 
HETATM   27  C   UNL     1      44.050 -21.879   1.751  1.00  0.00     0.048 C 
ENDBRANCH  17  20
ENDBRANCH  15  16
ENDBRANCH   1  15
TORSDOF 3
ENDMDL
MODEL 4
REMARK VINA RESULT:      -7.6      2.534      3.444
REMARK  3 active torsions:
REMARK  status: ('A' for Active; 'I' for Inactive)
REMARK    1  A    between atoms: C_4  and  N_5 
REMARK       I    between atoms: N_5  and  C_6 
REMARK    2  A    between atoms: C_6  and  C_7 
REMARK    3  A    between atoms: C_7  and  C_8 
ROOT
HETATM    1  C   UNL     1      40.605 -14.884   3.554  1.00  0.00     0.286 C 
HETATM    2  N   UNL     1      40.481 -13.484   2.954  1.00  0.00    -0.056 N 
HETATM    3  H   UNL     1      40.730 -12.814   3.712  1.00  0.00     0.278 HD
HETATM    4  H   UNL     1      41.178 -13.348   2.212  1.00  0.00     0.278 HD
HETATM    5  C   UNL     1      39.088 -13.247   2.457  1.00  0.00     0.209 C 
HETATM    6  C   UNL     1      38.794 -14.277   1.342  1.00  0.00     0.115 C 
HETATM    7  N   UNL     1      39.063 -15.651   1.765  1.00  0.00    -0.353 N 
HETATM    8  C   UNL     1      40.145 -15.973   2.560  1.00  0.00     0.249 C 
HETATM    9  O   UNL     1      40.637 -17.094   2.517  1.00  0.00    -0.271 OA
HETATM   10  C   UNL     1      38.937 -11.823   1.942  1.00  0.00     0.035 C 
HETATM   11  C   UNL     1      37.517 -11.613   1.411  1.00  0.00     0.002 C 
HETATM   12  C   UNL     1      37.127 -12.659   0.363  1.00  0.00     0.002 C 
HETATM   13  C   UNL     1      37.360 -14.095   0.843  1.00  0.00     0.027 C 
HETATM   14  H   UNL     1      38.824 -16.400   1.117  1.00  0.00     0.163 HD
ENDROOT
BRANCH   1  15
HETATM   15  C   UNL     1      42.020 -15.142   4.083  1.00  0.00     0.146 C 
BRANCH  15  16
HETATM   16  C   UNL     1      43.006 -15.068   2.944  1.00  0.00     0.224 C 
HETATM   17  N   UNL     1      43.790 -16.113   2.583  1.00  0.00    -0.327 N 
HETATM   18  H   UNL     1      44.493 -15.842   1.900  1.00  0.00     0.169 HD
HETATM   19  O   UNL     1      43.111 -14.000   2.325  1.00  0.00    -0.273 OA
BRANCH  17  20
HETATM   20  C   UNL     1      43.854 -17.459   2.993  1.00  0.00     0.035 A 
HETATM   21  C   UNL     1      43.782 -18.561   2.142  1.00  0.00     0.036 A 
HETATM   22  C   UNL     1      43.852 -19.869   2.653  1.00  0.00    -0.059 A 
HETATM   23  C   UNL     1      43.821 -21.051   1.728  1.00  0.00     0.048 C 
HETATM   24  C   UNL     1      44.025 -20.063   4.028  1.00  0.00     0.013 A 
HETATM   25  C   UNL     1      44.110 -18.971   4.895  1.00  0.00    -0.059 A 
HETATM   26  C   UNL     1      44.046 -17.677   4.365  1.00  0.00     0.036 A 
HETATM   27  C   UNL     1      44.326 -19.188   6.365  1.00  0.00     0.048 C 
ENDBRANCH  17  20
ENDBRANCH  15  16
ENDBRANCH   1  15
TORSDOF 3
ENDMDL
MODEL 5
REMARK VINA RESULT:      -7.6      1.891      3.429
REMARK  3 active torsions:
REMARK  status: ('A' for Active; 'I' for Inactive)
REMARK    1  A    between atoms: C_4  and  N_5 
REMARK       I    between atoms: N_5  and  C_6 
REMARK    2  A    between atoms: C_6  and  C_7 
REMARK    3  A    between atoms: C_7  and  C_8 
ROOT
HETATM    1  C   UNL     1      41.082 -15.258   4.136  1.00  0.00     0.286 C 
HETATM    2  N   UNL     1      39.915 -14.322   3.817  1.00  0.00    -0.056 N 
HETATM    3  H   UNL     1      39.815 -14.318   2.780  1.00  0.00     0.278 HD
HETATM    4  H   UNL     1      39.037 -14.703   4.189  1.00  0.00     0.278 HD
HETATM    5  C   UNL     1      40.189 -12.946   4.340  1.00  0.00     0.209 C 
HETATM    6  C   UNL     1      40.328 -13.035   5.878  1.00  0.00     0.115 C 
HETATM    7  N   UNL     1      41.298 -14.047   6.294  1.00  0.00    -0.353 N 
HETATM    8  C   UNL     1      41.414 -15.261   5.644  1.00  0.00     0.249 C 
HETATM    9  O   UNL     1      41.837 -16.245   6.237  1.00  0.00    -0.271 OA
HETATM   10  C   UNL     1      39.072 -11.990   3.946  1.00  0.00     0.035 C 
HETATM   11  C   UNL     1      39.356 -10.599   4.517  1.00  0.00     0.002 C 
HETATM   12  C   UNL     1      39.594 -10.629   6.030  1.00  0.00     0.002 C 
HETATM   13  C   UNL     1      40.655 -11.653   6.444  1.00  0.00     0.027 C 
HETATM   14  H   UNL     1      41.509 -14.120   7.288  1.00  0.00     0.163 HD
ENDROOT
BRANCH   1  15
HETATM   15  C   UNL     1      40.828 -16.669   3.595  1.00  0.00     0.146 C 
BRANCH  15  16
HETATM   16  C   UNL     1      41.263 -16.743   2.154  1.00  0.00     0.224 C 
HETATM   17  N   UNL     1      42.273 -17.543   1.732  1.00  0.00    -0.327 N 
HETATM   18  H   UNL     1      42.526 -17.356   0.764  1.00  0.00     0.169 HD
HETATM   19  O   UNL     1      40.679 -16.030   1.325  1.00  0.00    -0.273 OA
BRANCH  17  20
HETATM   20  C   UNL     1      43.056 -18.525   2.366  1.00  0.00     0.035 A 
HETATM   21  C   UNL     1      43.368 -19.774   1.830  1.00  0.00     0.036 A 
HETATM   22  C   UNL     1      44.157 -20.689   2.549  1.00  0.00    -0.059 A 
HETATM   23  C   UNL     1      44.528 -22.013   1.947  1.00  0.00     0.048 C 
HETATM   24  C   UNL     1      44.658 -20.327   3.804  1.00  0.00     0.013 A 
HETATM   25  C   UNL     1      44.367 -19.077   4.354  1.00  0.00    -0.059 A 
HETATM   26  C   UNL     1      43.586 -18.177   3.618  1.00  0.00     0.036 A 
HETATM   27  C   UNL     1      44.933 -18.686   5.688  1.00  0.00     0.048 C 
ENDBRANCH  17  20
ENDBRANCH  15  16
ENDBRANCH   1  15
TORSDOF 3
ENDMDL
MODEL 6
REMARK VINA RESULT:      -7.5      3.565      4.872
REMARK  3 active torsions:
REMARK  status: ('A' for Active; 'I' for Inactive)
REMARK    1  A    between atoms: C_4  and  N_5 
REMARK       I    between atoms: N_5  and  C_6 
REMARK    2  A    between atoms: C_6  and  C_7 
REMARK    3  A    between atoms: C_7  and  C_8 
ROOT
HETATM    1  C   UNL     1      41.016 -15.086   1.459  1.00  0.00     0.286 C 
HETATM    2  N   UNL     1      40.411 -13.892   0.720  1.00  0.00    -0.056 N 
HETATM    3  H   UNL     1      39.670 -13.504   1.342  1.00  0.00     0.278 HD
HETATM    4  H   UNL     1      41.109 -13.147   0.609  1.00  0.00     0.278 HD
HETATM    5  C   UNL     1      39.843 -14.323  -0.597  1.00  0.00     0.209 C 
HETATM    6  C   UNL     1      40.998 -14.886  -1.457  1.00  0.00     0.115 C 
HETATM    7  N   UNL     1      41.763 -15.918  -0.758  1.00  0.00    -0.353 N 
HETATM    8  C   UNL     1      42.054 -15.828   0.589  1.00  0.00     0.249 C 
HETATM    9  O   UNL     1      43.042 -16.385   1.051  1.00  0.00    -0.271 OA
HETATM   10  C   UNL     1      39.160 -13.155  -1.294  1.00  0.00     0.035 C 
HETATM   11  C   UNL     1      38.615 -13.610  -2.650  1.00  0.00     0.002 C 
HETATM   12  C   UNL     1      39.693 -14.262  -3.521  1.00  0.00     0.002 C 
HETATM   13  C   UNL     1      40.446 -15.381  -2.794  1.00  0.00     0.027 C 
HETATM   14  H   UNL     1      42.495 -16.398  -1.279  1.00  0.00     0.163 HD
ENDROOT
BRANCH   1  15
HETATM   15  C   UNL     1      41.589 -14.669   2.817  1.00  0.00     0.146 C 
BRANCH  15  16
HETATM   16  C   UNL     1      40.742 -15.247   3.923  1.00  0.00     0.224 C 
HETATM   17  N   UNL     1      41.019 -16.434   4.515  1.00  0.00    -0.327 N 
HETATM   18  H   UNL     1      40.266 -16.736   5.130  1.00  0.00     0.169 HD
HETATM   19  O   UNL     1      39.743 -14.613   4.292  1.00  0.00    -0.273 OA
BRANCH  17  20
HETATM   20  C   UNL     1      42.095 -17.336   4.415  1.00  0.00     0.035 A 
HETATM   21  C   UNL     1      42.278 -18.255   3.382  1.00  0.00     0.036 A 
HETATM   22  C   UNL     1      43.388 -19.117   3.377  1.00  0.00    -0.059 A 
HETATM   23  C   UNL     1      43.606 -20.072   2.238  1.00  0.00     0.048 C 
HETATM   24  C   UNL     1      44.333 -19.030   4.404  1.00  0.00     0.013 A 
HETATM   25  C   UNL     1      44.174 -18.108   5.442  1.00  0.00    -0.059 A 
HETATM   26  C   UNL     1      43.065 -17.253   5.425  1.00  0.00     0.036 A 
HETATM   27  C   UNL     1      45.208 -18.001   6.524  1.00  0.00     0.048 C 
ENDBRANCH  17  20
ENDBRANCH  15  16
ENDBRANCH   1  15
TORSDOF 3
ENDMDL
MODEL 7
REMARK VINA RESULT:      -7.5      5.474      9.215
REMARK  3 active torsions:
REMARK  status: ('A' for Active; 'I' for Inactive)
REMARK    1  A    between atoms: C_4  and  N_5 
REMARK       I    between atoms: N_5  and  C_6 
REMARK    2  A    between atoms: C_6  and  C_7 
REMARK    3  A    between atoms: C_7  and  C_8 
ROOT
HETATM    1  C   UNL     1      40.693 -15.333  -0.338  1.00  0.00     0.286 C 
HETATM    2  N   UNL     1      42.130 -15.838  -0.215  1.00  0.00    -0.056 N 
HETATM    3  H   UNL     1      42.409 -16.171  -1.162  1.00  0.00     0.278 HD
HETATM    4  H   UNL     1      42.765 -15.065   0.015  1.00  0.00     0.278 HD
HETATM    5  C   UNL     1      42.213 -16.944   0.792  1.00  0.00     0.209 C 
HETATM    6  C   UNL     1      41.784 -16.375   2.165  1.00  0.00     0.115 C 
HETATM    7  N   UNL     1      40.488 -15.700   2.109  1.00  0.00    -0.353 N 
HETATM    8  C   UNL     1      40.115 -14.919   1.033  1.00  0.00     0.249 C 
HETATM    9  O   UNL     1      39.308 -14.009   1.174  1.00  0.00    -0.271 OA
HETATM   10  C   UNL     1      43.625 -17.511   0.852  1.00  0.00     0.035 C 
HETATM   11  C   UNL     1      43.693 -18.615   1.909  1.00  0.00     0.002 C 
HETATM   12  C   UNL     1      43.195 -18.143   3.278  1.00  0.00     0.002 C 
HETATM   13  C   UNL     1      41.811 -17.490   3.212  1.00  0.00     0.027 C 
HETATM   14  H   UNL     1      40.093 -15.362   2.985  1.00  0.00     0.163 HD
ENDROOT
BRANCH   1  15
HETATM   15  C   UNL     1      40.583 -14.211  -1.376  1.00  0.00     0.146 C 
BRANCH  15  16
HETATM   16  C   UNL     1      41.324 -14.607  -2.629  1.00  0.00     0.224 C 
HETATM   17  N   UNL     1      41.999 -13.716  -3.395  1.00  0.00    -0.327 N 
HETATM   18  H   UNL     1      42.310 -14.128  -4.272  1.00  0.00     0.169 HD
HETATM   19  O   UNL     1      41.299 -15.797  -2.976  1.00  0.00    -0.273 OA
BRANCH  17  20
HETATM   20  C   UNL     1      42.307 -12.351  -3.244  1.00  0.00     0.035 A 
HETATM   21  C   UNL     1      42.768 -11.757  -2.070  1.00  0.00     0.036 A 
HETATM   22  C   UNL     1      43.043 -10.380  -2.022  1.00  0.00    -0.059 A 
HETATM   23  C   UNL     1      43.585  -9.754  -0.769  1.00  0.00     0.048 C 
HETATM   24  C   UNL     1      42.879  -9.604  -3.175  1.00  0.00     0.013 A 
HETATM   25  C   UNL     1      42.429 -10.182  -4.364  1.00  0.00    -0.059 A 
HETATM   26  C   UNL     1      42.168 -11.558  -4.393  1.00  0.00     0.036 A 
HETATM   27  C   UNL     1      42.284  -9.348  -5.603  1.00  0.00     0.048 C 
ENDBRANCH  17  20
ENDBRANCH  15  16
ENDBRANCH   1  15
TORSDOF 3
ENDMDL
MODEL 8
REMARK VINA RESULT:      -7.5      2.811      4.458
REMARK  3 active torsions:
REMARK  status: ('A' for Active; 'I' for Inactive)
REMARK    1  A    between atoms: C_4  and  N_5 
REMARK       I    between atoms: N_5  and  C_6 
REMARK    2  A    between atoms: C_6  and  C_7 
REMARK    3  A    between atoms: C_7  and  C_8 
ROOT
HETATM    1  C   UNL     1      40.640 -15.256   1.951  1.00  0.00     0.286 C 
HETATM    2  N   UNL     1      39.508 -15.206   0.924  1.00  0.00    -0.056 N 
HETATM    3  H   UNL     1      39.893 -15.601   0.040  1.00  0.00     0.278 HD
HETATM    4  H   UNL     1      38.741 -15.829   1.205  1.00  0.00     0.278 HD
HETATM    5  C   UNL     1      39.038 -13.798   0.729  1.00  0.00     0.209 C 
HETATM    6  C   UNL     1      38.486 -13.284   2.080  1.00  0.00     0.115 C 
HETATM    7  N   UNL     1      39.438 -13.460   3.175  1.00  0.00    -0.353 N 
HETATM    8  C   UNL     1      40.232 -14.585   3.281  1.00  0.00     0.249 C 
HETATM    9  O   UNL     1      40.642 -14.957   4.373  1.00  0.00    -0.271 OA
HETATM   10  C   UNL     1      37.974 -13.733  -0.358  1.00  0.00     0.035 C 
HETATM   11  C   UNL     1      37.486 -12.291  -0.517  1.00  0.00     0.002 C 
HETATM   12  C   UNL     1      37.007 -11.688   0.807  1.00  0.00     0.002 C 
HETATM   13  C   UNL     1      38.039 -11.829   1.930  1.00  0.00     0.027 C 
HETATM   14  H   UNL     1      39.186 -13.080   4.086  1.00  0.00     0.163 HD
ENDROOT
BRANCH   1  15
HETATM   15  C   UNL     1      41.147 -16.687   2.154  1.00  0.00     0.146 C 
BRANCH  15  16
HETATM   16  C   UNL     1      42.059 -17.067   1.015  1.00  0.00     0.224 C 
HETATM   17  N   UNL     1      43.144 -17.863   1.178  1.00  0.00    -0.327 N 
HETATM   18  H   UNL     1      43.723 -17.891   0.342  1.00  0.00     0.169 HD
HETATM   19  O   UNL     1      41.811 -16.617  -0.114  1.00  0.00    -0.273 OA
BRANCH  17  20
HETATM   20  C   UNL     1      43.644 -18.602   2.266  1.00  0.00     0.035 A 
HETATM   21  C   UNL     1      43.952 -18.077   3.520  1.00  0.00     0.036 A 
HETATM   22  C   UNL     1      44.452 -18.902   4.542  1.00  0.00    -0.059 A 
HETATM   23  C   UNL     1      44.737 -18.340   5.905  1.00  0.00     0.048 C 
HETATM   24  C   UNL     1      44.613 -20.272   4.304  1.00  0.00     0.013 A 
HETATM   25  C   UNL     1      44.300 -20.819   3.058  1.00  0.00    -0.059 A 
HETATM   26  C   UNL     1      43.796 -19.981   2.056  1.00  0.00     0.036 A 
HETATM   27  C   UNL     1      44.447 -22.294   2.821  1.00  0.00     0.048 C 
ENDBRANCH  17  20
ENDBRANCH  15  16
ENDBRANCH   1  15
TORSDOF 3
ENDMDL
MODEL 9
REMARK VINA RESULT:      -7.5      1.609      2.443
REMARK  3 active torsions:
REMARK  status: ('A' for Active; 'I' for Inactive)
REMARK    1  A    between atoms: C_4  and  N_5 
REMARK       I    between atoms: N_5  and  C_6 
REMARK    2  A    between atoms: C_6  and  C_7 
REMARK    3  A    between atoms: C_7  and  C_8 
ROOT
HETATM    1  C   UNL     1      42.970 -16.471   5.916  1.00  0.00     0.286 C 
HETATM    2  N   UNL     1      41.604 -16.244   5.269  1.00  0.00    -0.056 N 
HETATM    3  H   UNL     1      41.451 -17.040   4.615  1.00  0.00     0.278 HD
HETATM    4  H   UNL     1      40.858 -16.305   5.973  1.00  0.00     0.278 HD
HETATM    5  C   UNL     1      41.578 -14.934   4.544  1.00  0.00     0.209 C 
HETATM    6  C   UNL     1      41.815 -13.808   5.578  1.00  0.00     0.115 C 
HETATM    7  N   UNL     1      43.014 -14.032   6.384  1.00  0.00    -0.353 N 
HETATM    8  C   UNL     1      43.373 -15.290   6.827  1.00  0.00     0.249 C 
HETATM    9  O   UNL     1      44.043 -15.424   7.843  1.00  0.00    -0.271 OA
HETATM   10  C   UNL     1      40.251 -14.745   3.823  1.00  0.00     0.035 C 
HETATM   11  C   UNL     1      40.236 -13.388   3.116  1.00  0.00     0.002 C 
HETATM   12  C   UNL     1      40.552 -12.232   4.069  1.00  0.00     0.002 C 
HETATM   13  C   UNL     1      41.842 -12.456   4.864  1.00  0.00     0.027 C 
HETATM   14  H   UNL     1      43.287 -13.301   7.038  1.00  0.00     0.163 HD
ENDROOT
BRANCH   1  15
HETATM   15  C   UNL     1      43.023 -17.815   6.651  1.00  0.00     0.146 C 
BRANCH  15  16
HETATM   16  C   UNL     1      44.413 -18.391   6.552  1.00  0.00     0.224 C 
HETATM   17  N   UNL     1      44.900 -18.942   5.414  1.00  0.00    -0.327 N 
HETATM   18  H   UNL     1      45.790 -19.410   5.569  1.00  0.00     0.169 HD
HETATM   19  O   UNL     1      45.132 -18.370   7.562  1.00  0.00    -0.273 OA
BRANCH  17  20
HETATM   20  C   UNL     1      44.406 -19.037   4.099  1.00  0.00     0.035 A 
HETATM   21  C   UNL     1      43.970 -17.961   3.326  1.00  0.00     0.036 A 
HETATM   22  C   UNL     1      43.489 -18.162   2.021  1.00  0.00    -0.059 A 
HETATM   23  C   UNL     1      43.066 -16.995   1.176  1.00  0.00     0.048 C 
HETATM   24  C   UNL     1      43.477 -19.454   1.483  1.00  0.00     0.013 A 
HETATM   25  C   UNL     1      43.920 -20.543   2.237  1.00  0.00    -0.059 A 
HETATM   26  C   UNL     1      44.402 -20.320   3.533  1.00  0.00     0.036 A 
HETATM   27  C   UNL     1      43.931 -21.921   1.642  1.00  0.00     0.048 C 
ENDBRANCH  17  20
ENDBRANCH  15  16
ENDBRANCH   1  15
TORSDOF 3
ENDMDL
MODEL 10
REMARK VINA RESULT:      -7.5      1.766      2.476
REMARK  3 active torsions:
REMARK  status: ('A' for Active; 'I' for Inactive)
REMARK    1  A    between atoms: C_4  and  N_5 
REMARK       I    between atoms: N_5  and  C_6 
REMARK    2  A    between atoms: C_6  and  C_7 
REMARK    3  A    between atoms: C_7  and  C_8 
ROOT
HETATM    1  C   UNL     1      41.660 -15.774   4.814  1.00  0.00     0.286 C 
HETATM    2  N   UNL     1      41.448 -16.533   3.504  1.00  0.00    -0.056 N 
HETATM    3  H   UNL     1      42.277 -17.152   3.383  1.00  0.00     0.278 HD
HETATM    4  H   UNL     1      40.634 -17.156   3.577  1.00  0.00     0.278 HD
HETATM    5  C   UNL     1      41.314 -15.577   2.359  1.00  0.00     0.209 C 
HETATM    6  C   UNL     1      40.069 -14.696   2.611  1.00  0.00     0.115 C 
HETATM    7  N   UNL     1      40.089 -14.065   3.930  1.00  0.00    -0.353 N 
HETATM    8  C   UNL     1      40.549 -14.727   5.052  1.00  0.00     0.249 C 
HETATM    9  O   UNL     1      40.141 -14.423   6.165  1.00  0.00    -0.271 OA
HETATM   10  C   UNL     1      41.194 -16.330   1.041  1.00  0.00     0.035 C 
HETATM   11  C   UNL     1      41.027 -15.336  -0.109  1.00  0.00     0.002 C 
HETATM   12  C   UNL     1      39.861 -14.370   0.121  1.00  0.00     0.002 C 
HETATM   13  C   UNL     1      39.927 -13.674   1.483  1.00  0.00     0.027 C 
HETATM   14  H   UNL     1      39.343 -13.406   4.151  1.00  0.00     0.163 HD
ENDROOT
BRANCH   1  15
HETATM   15  C   UNL     1      41.814 -16.735   5.997  1.00  0.00     0.146 C 
BRANCH  15  16
HETATM   16  C   UNL     1      43.229 -16.674   6.515  1.00  0.00     0.224 C 
HETATM   17  N   UNL     1      44.196 -17.533   6.110  1.00  0.00    -0.327 N 
HETATM   18  H   UNL     1      45.042 -17.443   6.668  1.00  0.00     0.169 HD
HETATM   19  O   UNL     1      43.511 -15.811   7.359  1.00  0.00    -0.273 OA
BRANCH  17  20
HETATM   20  C   UNL     1      44.246 -18.537   5.124  1.00  0.00     0.035 A 
HETATM   21  C   UNL     1      43.988 -18.342   3.768  1.00  0.00     0.036 A 
HETATM   22  C   UNL     1      44.059 -19.415   2.862  1.00  0.00    -0.059 A 
HETATM   23  C   UNL     1      43.827 -19.190   1.395  1.00  0.00     0.048 C 
HETATM   24  C   UNL     1      44.423 -20.684   3.325  1.00  0.00     0.013 A 
HETATM   25  C   UNL     1      44.696 -20.897   4.678  1.00  0.00    -0.059 A 
HETATM   26  C   UNL     1      44.626 -19.813   5.562  1.00  0.00     0.036 A 
HETATM   27  C   UNL     1      45.114 -22.255   5.161  1.00  0.00     0.048 C 
ENDBRANCH  17  20
ENDBRANCH  15  16
ENDBRANCH   1  15
TORSDOF 3
ENDMDL
