MODEL 1
REMARK VINA RESULT:     -10.2      0.000      0.000
REMARK  7 active torsions:
REMARK  status: ('A' for Active; 'I' for Inactive)
REMARK    1  A    between atoms: C_4  and  N_5 
REMARK    2  A    between atoms: C_6  and  S_7 
REMARK    3  A    between atoms: S_7  and  C_8 
REMARK    4  A    between atoms: C_8  and  C_9 
REMARK       I    between atoms: C_9  and  N_10 
REMARK    5  A    between atoms: C_12  and  C_13 
REMARK    6  A    between atoms: C_13  and  N_14 
REMARK       I    between atoms: N_14  and  C_15 
REMARK       I    between atoms: C_15  and  N_16 
REMARK    7  A    between atoms: N_16  and  C_17 
ROOT
HETATM    1  C   UNL     1      40.079 -12.829   4.938  1.00  0.00     0.229 C 
HETATM    2  N   UNL     1      40.358 -13.870   4.037  1.00  0.00    -0.351 N 
HETATM    3  C   UNL     1      41.696 -14.431   3.871  1.00  0.00     0.132 C 
HETATM    4  C   UNL     1      41.743 -15.799   3.177  1.00  0.00     0.021 C 
HETATM    5  C   UNL     1      40.844 -15.832   1.935  1.00  0.00     0.009 C 
HETATM    6  C   UNL     1      39.445 -15.313   2.233  1.00  0.00     0.020 C 
HETATM    7  C   UNL     1      39.501 -13.922   2.851  1.00  0.00     0.126 C 
HETATM    8  O   UNL     1      39.071 -12.124   4.788  1.00  0.00    -0.273 OA
ENDROOT
BRANCH   1   9
HETATM    9  C   UNL     1      40.872 -12.692   6.232  1.00  0.00     0.185 C 
BRANCH   9  10
HETATM   10  S   UNL     1      41.472 -11.070   6.737  1.00  0.00    -0.082 SA
BRANCH  10  11
HETATM   11  C   UNL     1      40.391 -10.575   7.996  1.00  0.00     0.173 A 
HETATM   12  N   UNL     1      40.738 -10.476   9.342  1.00  0.00    -0.300 N 
HETATM   13  C   UNL     1      39.534 -10.298  10.004  1.00  0.00     0.118 A 
HETATM   14  C   UNL     1      38.564 -10.225   9.036  1.00  0.00     0.137 A 
HETATM   15  N   UNL     1      39.104 -10.404   7.799  1.00  0.00    -0.235 NA
BRANCH  12  16
HETATM   16  C   UNL     1      42.016 -10.514   9.983  1.00  0.00     0.042 A 
HETATM   17  C   UNL     1      43.152 -10.996   9.318  1.00  0.00     0.037 A 
HETATM   18  C   UNL     1      44.401 -11.026   9.954  1.00  0.00    -0.059 A 
HETATM   19  C   UNL     1      45.619 -11.525   9.229  1.00  0.00     0.048 C 
HETATM   20  C   UNL     1      44.513 -10.550  11.264  1.00  0.00     0.013 A 
HETATM   21  C   UNL     1      43.395 -10.051  11.941  1.00  0.00    -0.059 A 
HETATM   22  C   UNL     1      42.152 -10.024  11.291  1.00  0.00     0.037 A 
HETATM   23  C   UNL     1      43.542  -9.548  13.348  1.00  0.00     0.048 C 
ENDBRANCH  12  16
ENDBRANCH  10  11
ENDBRANCH   9  10
ENDBRANCH   1   9
BRANCH   4  24
HETATM   24  C   UNL     1      41.420 -16.908   4.196  1.00  0.00     0.130 C 
BRANCH  24  25
HETATM   25  N   UNL     1      42.430 -17.949   4.275  1.00  0.00    -0.342 N 
HETATM   26  C   UNL     1      43.595 -17.752   4.955  1.00  0.00     0.320 C 
HETATM   27  N   UNL     1      44.444 -18.811   5.066  1.00  0.00    -0.309 N 
HETATM   28  O   UNL     1      43.882 -16.694   5.510  1.00  0.00    -0.247 OA
HETATM   29  H   UNL     1      45.176 -18.608   5.736  1.00  0.00     0.170 HD
HETATM   30  H   UNL     1      42.068 -18.885   4.388  1.00  0.00     0.164 HD
BRANCH  27  31
HETATM   31  C   UNL     1      44.498 -20.070   4.440  1.00  0.00     0.039 A 
HETATM   32  C   UNL     1      44.392 -20.277   3.065  1.00  0.00     0.071 A 
HETATM   33  C   UNL     1      44.437 -21.572   2.554  1.00  0.00     0.118 A 
HETATM   34  F   UNL     1      44.319 -21.759   1.232  1.00  0.00    -0.206 F 
HETATM   35  C   UNL     1      44.607 -22.673   3.383  1.00  0.00     0.042 A 
HETATM   36  C   UNL     1      44.754 -22.475   4.752  1.00  0.00     0.005 A 
HETATM   37  C   UNL     1      44.709 -21.179   5.274  1.00  0.00     0.030 A 
ENDBRANCH  27  31
ENDBRANCH  24  25
ENDBRANCH   4  24
TORSDOF 7
ENDMDL
MODEL 2
REMARK VINA RESULT:     -10.1      0.188      1.464
REMARK  7 active torsions:
REMARK  status: ('A' for Active; 'I' for Inactive)
REMARK    1  A    between atoms: C_4  and  N_5 
REMARK    2  A    between atoms: C_6  and  S_7 
REMARK    3  A    between atoms: S_7  and  C_8 
REMARK    4  A    between atoms: C_8  and  C_9 
REMARK       I    between atoms: C_9  and  N_10 
REMARK    5  A    between atoms: C_12  and  C_13 
REMARK    6  A    between atoms: C_13  and  N_14 
REMARK       I    between atoms: N_14  and  C_15 
REMARK       I    between atoms: C_15  and  N_16 
REMARK    7  A    between atoms: N_16  and  C_17 
ROOT
HETATM    1  C   UNL     1      39.832 -12.932   4.926  1.00  0.00     0.229 C 
HETATM    2  N   UNL     1      40.166 -13.929   3.994  1.00  0.00    -0.351 N 
HETATM    3  C   UNL     1      41.522 -14.451   3.851  1.00  0.00     0.132 C 
HETATM    4  C   UNL     1      41.626 -15.789   3.105  1.00  0.00     0.021 C 
HETATM    5  C   UNL     1      40.770 -15.792   1.833  1.00  0.00     0.009 C 
HETATM    6  C   UNL     1      39.349 -15.317   2.103  1.00  0.00     0.020 C 
HETATM    7  C   UNL     1      39.350 -13.952   2.778  1.00  0.00     0.126 C 
HETATM    8  O   UNL     1      38.813 -12.245   4.770  1.00  0.00    -0.273 OA
ENDROOT
BRANCH   1   9
HETATM    9  C   UNL     1      40.578 -12.830   6.251  1.00  0.00     0.185 C 
BRANCH   9  10
HETATM   10  S   UNL     1      41.396 -11.285   6.691  1.00  0.00    -0.082 SA
BRANCH  10  11
HETATM   11  C   UNL     1      40.372 -10.574   7.892  1.00  0.00     0.173 A 
HETATM   12  N   UNL     1      40.739 -10.366   9.220  1.00  0.00    -0.300 N 
HETATM   13  C   UNL     1      39.560 -10.020   9.862  1.00  0.00     0.118 A 
HETATM   14  C   UNL     1      38.590  -9.967   8.892  1.00  0.00     0.137 A 
HETATM   15  N   UNL     1      39.101 -10.318   7.679  1.00  0.00    -0.235 NA
BRANCH  12  16
HETATM   16  C   UNL     1      42.015 -10.444   9.860  1.00  0.00     0.042 A 
HETATM   17  C   UNL     1      42.203  -9.990  11.173  1.00  0.00     0.037 A 
HETATM   18  C   UNL     1      43.458 -10.074  11.793  1.00  0.00    -0.059 A 
HETATM   19  C   UNL     1      43.647  -9.604  13.207  1.00  0.00     0.048 C 
HETATM   20  C   UNL     1      44.530 -10.636  11.093  1.00  0.00     0.013 A 
HETATM   21  C   UNL     1      44.361 -11.109   9.787  1.00  0.00    -0.059 A 
HETATM   22  C   UNL     1      43.099 -11.021   9.181  1.00  0.00     0.037 A 
HETATM   23  C   UNL     1      45.530 -11.707   9.057  1.00  0.00     0.048 C 
ENDBRANCH  12  16
ENDBRANCH  10  11
ENDBRANCH   9  10
ENDBRANCH   1   9
BRANCH   4  24
HETATM   24  C   UNL     1      41.297 -16.945   4.067  1.00  0.00     0.130 C 
BRANCH  24  25
HETATM   25  N   UNL     1      42.340 -17.952   4.157  1.00  0.00    -0.342 N 
HETATM   26  C   UNL     1      43.522 -17.691   4.784  1.00  0.00     0.320 C 
HETATM   27  N   UNL     1      44.406 -18.719   4.913  1.00  0.00    -0.309 N 
HETATM   28  O   UNL     1      43.797 -16.600   5.278  1.00  0.00    -0.247 OA
HETATM   29  H   UNL     1      45.154 -18.464   5.546  1.00  0.00     0.170 HD
HETATM   30  H   UNL     1      42.011 -18.892   4.327  1.00  0.00     0.164 HD
BRANCH  27  31
HETATM   31  C   UNL     1      44.475 -20.004   4.345  1.00  0.00     0.039 A 
HETATM   32  C   UNL     1      44.380 -20.273   2.979  1.00  0.00     0.071 A 
HETATM   33  C   UNL     1      44.440 -21.590   2.527  1.00  0.00     0.118 A 
HETATM   34  F   UNL     1      44.332 -21.837   1.214  1.00  0.00    -0.206 F 
HETATM   35  C   UNL     1      44.614 -22.650   3.406  1.00  0.00     0.042 A 
HETATM   36  C   UNL     1      44.750 -22.390   4.765  1.00  0.00     0.005 A 
HETATM   37  C   UNL     1      44.690 -21.072   5.229  1.00  0.00     0.030 A 
ENDBRANCH  27  31
ENDBRANCH  24  25
ENDBRANCH   4  24
TORSDOF 7
ENDMDL
MODEL 3
REMARK VINA RESULT:     -10.1      3.408     10.053
REMARK  7 active torsions:
REMARK  status: ('A' for Active; 'I' for Inactive)
REMARK    1  A    between atoms: C_4  and  N_5 
REMARK    2  A    between atoms: C_6  and  S_7 
REMARK    3  A    between atoms: S_7  and  C_8 
REMARK    4  A    between atoms: C_8  and  C_9 
REMARK       I    between atoms: C_9  and  N_10 
REMARK    5  A    between atoms: C_12  and  C_13 
REMARK    6  A    between atoms: C_13  and  N_14 
REMARK       I    between atoms: N_14  and  C_15 
REMARK       I    between atoms: C_15  and  N_16 
REMARK    7  A    between atoms: N_16  and  C_17 
ROOT
HETATM    1  C   UNL     1      40.694 -15.528   4.139  1.00  0.00     0.229 C 
HETATM    2  N   UNL     1      40.330 -14.212   4.470  1.00  0.00    -0.351 N 
HETATM    3  C   UNL     1      39.951 -13.816   5.824  1.00  0.00     0.132 C 
HETATM    4  C   UNL     1      39.988 -12.305   6.091  1.00  0.00     0.021 C 
HETATM    5  C   UNL     1      39.329 -11.515   4.954  1.00  0.00     0.009 C 
HETATM    6  C   UNL     1      39.855 -11.938   3.590  1.00  0.00     0.020 C 
HETATM    7  C   UNL     1      39.708 -13.441   3.392  1.00  0.00     0.126 C 
HETATM    8  O   UNL     1      40.628 -15.919   2.966  1.00  0.00    -0.273 OA
ENDROOT
BRANCH   1   9
HETATM    9  C   UNL     1      41.389 -16.419   5.162  1.00  0.00     0.185 C 
BRANCH   9  10
HETATM   10  S   UNL     1      43.100 -16.079   5.616  1.00  0.00    -0.082 SA
BRANCH  10  11
HETATM   11  C   UNL     1      43.648 -17.535   6.376  1.00  0.00     0.173 A 
HETATM   12  N   UNL     1      43.847 -18.745   5.715  1.00  0.00    -0.300 N 
HETATM   13  C   UNL     1      44.035 -19.673   6.727  1.00  0.00     0.118 A 
HETATM   14  C   UNL     1      44.018 -18.972   7.907  1.00  0.00     0.137 A 
HETATM   15  N   UNL     1      43.770 -17.652   7.679  1.00  0.00    -0.235 NA
BRANCH  12  16
HETATM   16  C   UNL     1      43.886 -19.051   4.319  1.00  0.00     0.042 A 
HETATM   17  C   UNL     1      43.686 -18.061   3.348  1.00  0.00     0.037 A 
HETATM   18  C   UNL     1      43.730 -18.371   1.981  1.00  0.00    -0.059 A 
HETATM   19  C   UNL     1      43.534 -17.300   0.945  1.00  0.00     0.048 C 
HETATM   20  C   UNL     1      43.996 -19.685   1.587  1.00  0.00     0.013 A 
HETATM   21  C   UNL     1      44.213 -20.688   2.539  1.00  0.00    -0.059 A 
HETATM   22  C   UNL     1      44.169 -20.362   3.902  1.00  0.00     0.037 A 
HETATM   23  C   UNL     1      44.495 -22.091   2.088  1.00  0.00     0.048 C 
ENDBRANCH  12  16
ENDBRANCH  10  11
ENDBRANCH   9  10
ENDBRANCH   1   9
BRANCH   4  24
HETATM   24  C   UNL     1      41.436 -11.866   6.382  1.00  0.00     0.130 C 
BRANCH  24  25
HETATM   25  N   UNL     1      41.621 -11.281   7.699  1.00  0.00    -0.342 N 
HETATM   26  C   UNL     1      41.758  -9.934   7.861  1.00  0.00     0.320 C 
HETATM   27  N   UNL     1      41.825  -9.458   9.135  1.00  0.00    -0.309 N 
HETATM   28  O   UNL     1      41.768  -9.139   6.924  1.00  0.00    -0.247 OA
HETATM   29  H   UNL     1      41.740  -8.449   9.140  1.00  0.00     0.170 HD
HETATM   30  H   UNL     1      41.072 -11.706   8.434  1.00  0.00     0.164 HD
BRANCH  27  31
HETATM   31  C   UNL     1      41.997 -10.079  10.385  1.00  0.00     0.039 A 
HETATM   32  C   UNL     1      40.982 -10.715  11.101  1.00  0.00     0.071 A 
HETATM   33  C   UNL     1      41.260 -11.280  12.344  1.00  0.00     0.118 A 
HETATM   34  F   UNL     1      40.273 -11.875  13.028  1.00  0.00    -0.206 F 
HETATM   35  C   UNL     1      42.537 -11.245  12.886  1.00  0.00     0.042 A 
HETATM   36  C   UNL     1      43.565 -10.649  12.163  1.00  0.00     0.005 A 
HETATM   37  C   UNL     1      43.296 -10.078  10.916  1.00  0.00     0.030 A 
ENDBRANCH  27  31
ENDBRANCH  24  25
ENDBRANCH   4  24
TORSDOF 7
ENDMDL
MODEL 4
REMARK VINA RESULT:     -10.0      4.458      8.558
REMARK  7 active torsions:
REMARK  status: ('A' for Active; 'I' for Inactive)
REMARK    1  A    between atoms: C_4  and  N_5 
REMARK    2  A    between atoms: C_6  and  S_7 
REMARK    3  A    between atoms: S_7  and  C_8 
REMARK    4  A    between atoms: C_8  and  C_9 
REMARK       I    between atoms: C_9  and  N_10 
REMARK    5  A    between atoms: C_12  and  C_13 
REMARK    6  A    between atoms: C_13  and  N_14 
REMARK       I    between atoms: N_14  and  C_15 
REMARK       I    between atoms: C_15  and  N_16 
REMARK    7  A    between atoms: N_16  and  C_17 
ROOT
HETATM    1  C   UNL     1      41.194 -13.983   5.288  1.00  0.00     0.229 C 
HETATM    2  N   UNL     1      40.733 -13.496   4.053  1.00  0.00    -0.351 N 
HETATM    3  C   UNL     1      41.102 -12.179   3.538  1.00  0.00     0.132 C 
HETATM    4  C   UNL     1      40.860 -11.982   2.035  1.00  0.00     0.021 C 
HETATM    5  C   UNL     1      39.482 -12.504   1.612  1.00  0.00     0.009 C 
HETATM    6  C   UNL     1      39.230 -13.916   2.121  1.00  0.00     0.020 C 
HETATM    7  C   UNL     1      39.423 -13.994   3.629  1.00  0.00     0.126 C 
HETATM    8  O   UNL     1      40.584 -14.890   5.870  1.00  0.00    -0.273 OA
ENDROOT
BRANCH   1   9
HETATM    9  C   UNL     1      42.562 -13.573   5.819  1.00  0.00     0.185 C 
BRANCH   9  10
HETATM   10  S   UNL     1      43.989 -14.628   5.500  1.00  0.00    -0.082 SA
BRANCH  10  11
HETATM   11  C   UNL     1      43.752 -16.005   6.522  1.00  0.00     0.173 A 
HETATM   12  N   UNL     1      43.319 -17.253   6.079  1.00  0.00    -0.300 N 
HETATM   13  C   UNL     1      43.034 -17.959   7.237  1.00  0.00     0.118 A 
HETATM   14  C   UNL     1      43.377 -17.142   8.286  1.00  0.00     0.137 A 
HETATM   15  N   UNL     1      43.812 -15.934   7.833  1.00  0.00    -0.235 NA
BRANCH  12  16
HETATM   16  C   UNL     1      43.188 -17.782   4.757  1.00  0.00     0.042 A 
HETATM   17  C   UNL     1      43.971 -18.860   4.321  1.00  0.00     0.037 A 
HETATM   18  C   UNL     1      43.833 -19.373   3.023  1.00  0.00    -0.059 A 
HETATM   19  C   UNL     1      44.661 -20.541   2.568  1.00  0.00     0.048 C 
HETATM   20  C   UNL     1      42.887 -18.808   2.162  1.00  0.00     0.013 A 
HETATM   21  C   UNL     1      42.085 -17.741   2.582  1.00  0.00    -0.059 A 
HETATM   22  C   UNL     1      42.232 -17.241   3.884  1.00  0.00     0.037 A 
HETATM   23  C   UNL     1      41.078 -17.153   1.636  1.00  0.00     0.048 C 
ENDBRANCH  12  16
ENDBRANCH  10  11
ENDBRANCH   9  10
ENDBRANCH   1   9
BRANCH   4  24
HETATM   24  C   UNL     1      42.022 -12.604   1.238  1.00  0.00     0.130 C 
BRANCH  24  25
HETATM   25  N   UNL     1      41.659 -13.020  -0.105  1.00  0.00    -0.342 N 
HETATM   26  C   UNL     1      42.336 -12.562  -1.196  1.00  0.00     0.320 C 
HETATM   27  N   UNL     1      41.998 -13.079  -2.410  1.00  0.00    -0.309 N 
HETATM   28  O   UNL     1      43.262 -11.756  -1.125  1.00  0.00    -0.247 OA
HETATM   29  H   UNL     1      42.679 -12.810  -3.110  1.00  0.00     0.170 HD
HETATM   30  H   UNL     1      41.396 -13.992  -0.193  1.00  0.00     0.164 HD
BRANCH  27  31
HETATM   31  C   UNL     1      40.921 -13.868  -2.852  1.00  0.00     0.039 A 
HETATM   32  C   UNL     1      39.666 -13.372  -3.201  1.00  0.00     0.071 A 
HETATM   33  C   UNL     1      38.662 -14.250  -3.606  1.00  0.00     0.118 A 
HETATM   34  F   UNL     1      37.456 -13.762  -3.925  1.00  0.00    -0.206 F 
HETATM   35  C   UNL     1      38.887 -15.617  -3.693  1.00  0.00     0.042 A 
HETATM   36  C   UNL     1      40.147 -16.118  -3.385  1.00  0.00     0.005 A 
HETATM   37  C   UNL     1      41.160 -15.246  -2.976  1.00  0.00     0.030 A 
ENDBRANCH  27  31
ENDBRANCH  24  25
ENDBRANCH   4  24
TORSDOF 7
ENDMDL
MODEL 5
REMARK VINA RESULT:      -9.8      3.565      9.961
REMARK  7 active torsions:
REMARK  status: ('A' for Active; 'I' for Inactive)
REMARK    1  A    between atoms: C_4  and  N_5 
REMARK    2  A    between atoms: C_6  and  S_7 
REMARK    3  A    between atoms: S_7  and  C_8 
REMARK    4  A    between atoms: C_8  and  C_9 
REMARK       I    between atoms: C_9  and  N_10 
REMARK    5  A    between atoms: C_12  and  C_13 
REMARK    6  A    between atoms: C_13  and  N_14 
REMARK       I    between atoms: N_14  and  C_15 
REMARK       I    between atoms: C_15  and  N_16 
REMARK    7  A    between atoms: N_16  and  C_17 
ROOT
HETATM    1  C   UNL     1      41.070 -14.245   4.561  1.00  0.00     0.229 C 
HETATM    2  N   UNL     1      40.606 -13.022   5.073  1.00  0.00    -0.351 N 
HETATM    3  C   UNL     1      40.337 -12.813   6.494  1.00  0.00     0.132 C 
HETATM    4  C   UNL     1      40.242 -11.344   6.926  1.00  0.00     0.021 C 
HETATM    5  C   UNL     1      39.383 -10.525   5.955  1.00  0.00     0.009 C 
HETATM    6  C   UNL     1      39.800 -10.741   4.508  1.00  0.00     0.020 C 
HETATM    7  C   UNL     1      39.793 -12.223   4.154  1.00  0.00     0.126 C 
HETATM    8  O   UNL     1      40.919 -14.520   3.362  1.00  0.00    -0.273 OA
ENDROOT
BRANCH   1   9
HETATM    9  C   UNL     1      41.962 -15.148   5.404  1.00  0.00     0.185 C 
BRANCH   9  10
HETATM   10  S   UNL     1      41.381 -16.793   5.858  1.00  0.00    -0.082 SA
BRANCH  10  11
HETATM   11  C   UNL     1      42.739 -17.539   6.631  1.00  0.00     0.173 A 
HETATM   12  N   UNL     1      43.602 -18.441   6.013  1.00  0.00    -0.300 N 
HETATM   13  C   UNL     1      44.366 -18.962   7.045  1.00  0.00     0.118 A 
HETATM   14  C   UNL     1      43.981 -18.303   8.186  1.00  0.00     0.137 A 
HETATM   15  N   UNL     1      42.970 -17.430   7.920  1.00  0.00    -0.235 NA
BRANCH  12  16
HETATM   16  C   UNL     1      43.753 -18.797   4.636  1.00  0.00     0.042 A 
HETATM   17  C   UNL     1      44.030 -20.115   4.248  1.00  0.00     0.037 A 
HETATM   18  C   UNL     1      44.173 -20.454   2.895  1.00  0.00    -0.059 A 
HETATM   19  C   UNL     1      44.450 -21.872   2.485  1.00  0.00     0.048 C 
HETATM   20  C   UNL     1      44.018 -19.462   1.922  1.00  0.00     0.013 A 
HETATM   21  C   UNL     1      43.727 -18.142   2.286  1.00  0.00    -0.059 A 
HETATM   22  C   UNL     1      43.584 -17.819   3.643  1.00  0.00     0.037 A 
HETATM   23  C   UNL     1      43.568 -17.096   1.221  1.00  0.00     0.048 C 
ENDBRANCH  12  16
ENDBRANCH  10  11
ENDBRANCH   9  10
ENDBRANCH   1   9
BRANCH   4  24
HETATM   24  C   UNL     1      41.658 -10.770   7.124  1.00  0.00     0.130 C 
BRANCH  24  25
HETATM   25  N   UNL     1      42.158 -10.891   8.483  1.00  0.00    -0.342 N 
HETATM   26  C   UNL     1      43.261 -11.639   8.766  1.00  0.00     0.320 C 
HETATM   27  N   UNL     1      43.723 -11.618  10.047  1.00  0.00    -0.309 N 
HETATM   28  O   UNL     1      43.880 -12.277   7.917  1.00  0.00    -0.247 OA
HETATM   29  H   UNL     1      44.637 -12.052  10.100  1.00  0.00     0.170 HD
HETATM   30  H   UNL     1      42.115 -10.041   9.028  1.00  0.00     0.164 HD
BRANCH  27  31
HETATM   31  C   UNL     1      43.184 -11.140  11.255  1.00  0.00     0.039 A 
HETATM   32  C   UNL     1      41.990 -11.586  11.822  1.00  0.00     0.071 A 
HETATM   33  C   UNL     1      41.538 -11.025  13.015  1.00  0.00     0.118 A 
HETATM   34  F   UNL     1      40.382 -11.451  13.542  1.00  0.00    -0.206 F 
HETATM   35  C   UNL     1      42.262 -10.040  13.672  1.00  0.00     0.042 A 
HETATM   36  C   UNL     1      43.474  -9.616  13.137  1.00  0.00     0.005 A 
HETATM   37  C   UNL     1      43.935 -10.172  11.940  1.00  0.00     0.030 A 
ENDBRANCH  27  31
ENDBRANCH  24  25
ENDBRANCH   4  24
TORSDOF 7
ENDMDL
MODEL 6
REMARK VINA RESULT:      -9.8      1.695      2.503
REMARK  7 active torsions:
REMARK  status: ('A' for Active; 'I' for Inactive)
REMARK    1  A    between atoms: C_4  and  N_5 
REMARK    2  A    between atoms: C_6  and  S_7 
REMARK    3  A    between atoms: S_7  and  C_8 
REMARK    4  A    between atoms: C_8  and  C_9 
REMARK       I    between atoms: C_9  and  N_10 
REMARK    5  A    between atoms: C_12  and  C_13 
REMARK    6  A    between atoms: C_13  and  N_14 
REMARK       I    between atoms: N_14  and  C_15 
REMARK       I    between atoms: C_15  and  N_16 
REMARK    7  A    between atoms: N_16  and  C_17 
ROOT
HETATM    1  C   UNL     1      39.935 -12.200   6.210  1.00  0.00     0.229 C 
HETATM    2  N   UNL     1      40.785 -13.037   5.468  1.00  0.00    -0.351 N 
HETATM    3  C   UNL     1      42.199 -12.737   5.255  1.00  0.00     0.132 C 
HETATM    4  C   UNL     1      43.052 -13.927   4.795  1.00  0.00     0.021 C 
HETATM    5  C   UNL     1      42.360 -14.717   3.678  1.00  0.00     0.009 C 
HETATM    6  C   UNL     1      40.921 -15.061   4.034  1.00  0.00     0.020 C 
HETATM    7  C   UNL     1      40.138 -13.808   4.405  1.00  0.00     0.126 C 
HETATM    8  O   UNL     1      38.708 -12.257   6.054  1.00  0.00    -0.273 OA
ENDROOT
BRANCH   1   9
HETATM    9  C   UNL     1      40.480 -11.379   7.372  1.00  0.00     0.185 C 
BRANCH   9  10
HETATM   10  S   UNL     1      39.463 -11.138   8.841  1.00  0.00    -0.082 SA
BRANCH  10  11
HETATM   11  C   UNL     1      39.532  -9.435   9.146  1.00  0.00     0.173 A 
HETATM   12  N   UNL     1      40.365  -8.834  10.088  1.00  0.00    -0.300 N 
HETATM   13  C   UNL     1      39.917  -7.525  10.170  1.00  0.00     0.118 A 
HETATM   14  C   UNL     1      38.916  -7.396   9.240  1.00  0.00     0.137 A 
HETATM   15  N   UNL     1      38.681  -8.585   8.618  1.00  0.00    -0.235 NA
BRANCH  12  16
HETATM   16  C   UNL     1      41.467  -9.360  10.831  1.00  0.00     0.042 A 
HETATM   17  C   UNL     1      41.411  -9.491  12.226  1.00  0.00     0.037 A 
HETATM   18  C   UNL     1      42.496 -10.011  12.946  1.00  0.00    -0.059 A 
HETATM   19  C   UNL     1      42.422 -10.167  14.438  1.00  0.00     0.048 C 
HETATM   20  C   UNL     1      43.640 -10.421  12.256  1.00  0.00     0.013 A 
HETATM   21  C   UNL     1      43.712 -10.314  10.862  1.00  0.00    -0.059 A 
HETATM   22  C   UNL     1      42.618  -9.794  10.155  1.00  0.00     0.037 A 
HETATM   23  C   UNL     1      44.954 -10.760  10.146  1.00  0.00     0.048 C 
ENDBRANCH  12  16
ENDBRANCH  10  11
ENDBRANCH   9  10
ENDBRANCH   1   9
BRANCH   4  24
HETATM   24  C   UNL     1      43.434 -14.791   6.011  1.00  0.00     0.130 C 
BRANCH  24  25
HETATM   25  N   UNL     1      43.524 -16.211   5.719  1.00  0.00    -0.342 N 
HETATM   26  C   UNL     1      43.363 -17.145   6.699  1.00  0.00     0.320 C 
HETATM   27  N   UNL     1      43.362 -18.455   6.324  1.00  0.00    -0.309 N 
HETATM   28  O   UNL     1      43.166 -16.860   7.878  1.00  0.00    -0.247 OA
HETATM   29  H   UNL     1      43.054 -19.041   7.091  1.00  0.00     0.170 HD
HETATM   30  H   UNL     1      43.107 -16.492   4.843  1.00  0.00     0.164 HD
BRANCH  27  31
HETATM   31  C   UNL     1      43.706 -19.113   5.130  1.00  0.00     0.039 A 
HETATM   32  C   UNL     1      43.208 -18.781   3.870  1.00  0.00     0.071 A 
HETATM   33  C   UNL     1      43.602 -19.517   2.754  1.00  0.00     0.118 A 
HETATM   34  F   UNL     1      43.105 -19.198   1.551  1.00  0.00    -0.206 F 
HETATM   35  C   UNL     1      44.502 -20.569   2.861  1.00  0.00     0.042 A 
HETATM   36  C   UNL     1      45.036 -20.882   4.106  1.00  0.00     0.005 A 
HETATM   37  C   UNL     1      44.645 -20.151   5.232  1.00  0.00     0.030 A 
ENDBRANCH  27  31
ENDBRANCH  24  25
ENDBRANCH   4  24
TORSDOF 7
ENDMDL
MODEL 7
REMARK VINA RESULT:      -9.7      3.623      9.606
REMARK  7 active torsions:
REMARK  status: ('A' for Active; 'I' for Inactive)
REMARK    1  A    between atoms: C_4  and  N_5 
REMARK    2  A    between atoms: C_6  and  S_7 
REMARK    3  A    between atoms: S_7  and  C_8 
REMARK    4  A    between atoms: C_8  and  C_9 
REMARK       I    between atoms: C_9  and  N_10 
REMARK    5  A    between atoms: C_12  and  C_13 
REMARK    6  A    between atoms: C_13  and  N_14 
REMARK       I    between atoms: N_14  and  C_15 
REMARK       I    between atoms: C_15  and  N_16 
REMARK    7  A    between atoms: N_16  and  C_17 
ROOT
HETATM    1  C   UNL     1      39.934 -13.144   4.399  1.00  0.00     0.229 C 
HETATM    2  N   UNL     1      40.096 -12.007   5.208  1.00  0.00    -0.351 N 
HETATM    3  C   UNL     1      39.862 -12.024   6.650  1.00  0.00     0.132 C 
HETATM    4  C   UNL     1      40.471 -10.844   7.419  1.00  0.00     0.021 C 
HETATM    5  C   UNL     1      40.199  -9.511   6.713  1.00  0.00     0.009 C 
HETATM    6  C   UNL     1      40.560  -9.567   5.236  1.00  0.00     0.020 C 
HETATM    7  C   UNL     1      39.851 -10.724   4.546  1.00  0.00     0.126 C 
HETATM    8  O   UNL     1      39.755 -13.025   3.180  1.00  0.00    -0.273 OA
ENDROOT
BRANCH   1   9
HETATM    9  C   UNL     1      40.202 -14.536   4.960  1.00  0.00     0.185 C 
BRANCH   9  10
HETATM   10  S   UNL     1      41.541 -15.526   4.270  1.00  0.00    -0.082 SA
BRANCH  10  11
HETATM   11  C   UNL     1      42.890 -15.225   5.313  1.00  0.00     0.173 A 
HETATM   12  N   UNL     1      43.700 -16.217   5.863  1.00  0.00    -0.300 N 
HETATM   13  C   UNL     1      44.472 -15.558   6.807  1.00  0.00     0.118 A 
HETATM   14  C   UNL     1      44.145 -14.228   6.718  1.00  0.00     0.137 A 
HETATM   15  N   UNL     1      43.161 -14.035   5.797  1.00  0.00    -0.235 NA
BRANCH  12  16
HETATM   16  C   UNL     1      43.799 -17.613   5.569  1.00  0.00     0.042 A 
HETATM   17  C   UNL     1      44.039 -18.069   4.265  1.00  0.00     0.037 A 
HETATM   18  C   UNL     1      44.137 -19.440   3.987  1.00  0.00    -0.059 A 
HETATM   19  C   UNL     1      44.414 -19.922   2.591  1.00  0.00     0.048 C 
HETATM   20  C   UNL     1      44.011 -20.360   5.032  1.00  0.00     0.013 A 
HETATM   21  C   UNL     1      43.786 -19.926   6.344  1.00  0.00    -0.059 A 
HETATM   22  C   UNL     1      43.693 -18.551   6.607  1.00  0.00     0.037 A 
HETATM   23  C   UNL     1      43.653 -20.935   7.447  1.00  0.00     0.048 C 
ENDBRANCH  12  16
ENDBRANCH  10  11
ENDBRANCH   9  10
ENDBRANCH   1   9
BRANCH   4  24
HETATM   24  C   UNL     1      41.967 -11.109   7.673  1.00  0.00     0.130 C 
BRANCH  24  25
HETATM   25  N   UNL     1      42.367 -10.948   9.060  1.00  0.00    -0.342 N 
HETATM   26  C   UNL     1      43.673 -11.048   9.436  1.00  0.00     0.320 C 
HETATM   27  N   UNL     1      43.976 -10.784  10.737  1.00  0.00    -0.309 N 
HETATM   28  O   UNL     1      44.583 -11.309   8.651  1.00  0.00    -0.247 OA
HETATM   29  H   UNL     1      44.979 -10.708  10.858  1.00  0.00     0.170 HD
HETATM   30  H   UNL     1      41.874 -10.224   9.563  1.00  0.00     0.164 HD
BRANCH  27  31
HETATM   31  C   UNL     1      43.190 -10.618  11.892  1.00  0.00     0.039 A 
HETATM   32  C   UNL     1      41.987 -11.282  12.134  1.00  0.00     0.071 A 
HETATM   33  C   UNL     1      41.278 -11.025  13.305  1.00  0.00     0.118 A 
HETATM   34  F   UNL     1      40.117 -11.658  13.520  1.00  0.00    -0.206 F 
HETATM   35  C   UNL     1      41.751 -10.133  14.258  1.00  0.00     0.042 A 
HETATM   36  C   UNL     1      42.969  -9.496  14.045  1.00  0.00     0.005 A 
HETATM   37  C   UNL     1      43.688  -9.746  12.872  1.00  0.00     0.030 A 
ENDBRANCH  27  31
ENDBRANCH  24  25
ENDBRANCH   4  24
TORSDOF 7
ENDMDL
MODEL 8
REMARK VINA RESULT:      -9.5      4.331      7.862
REMARK  7 active torsions:
REMARK  status: ('A' for Active; 'I' for Inactive)
REMARK    1  A    between atoms: C_4  and  N_5 
REMARK    2  A    between atoms: C_6  and  S_7 
REMARK    3  A    between atoms: S_7  and  C_8 
REMARK    4  A    between atoms: C_8  and  C_9 
REMARK       I    between atoms: C_9  and  N_10 
REMARK    5  A    between atoms: C_12  and  C_13 
REMARK    6  A    between atoms: C_13  and  N_14 
REMARK       I    between atoms: N_14  and  C_15 
REMARK       I    between atoms: C_15  and  N_16 
REMARK    7  A    between atoms: N_16  and  C_17 
ROOT
HETATM    1  C   UNL     1      40.928 -12.652   3.998  1.00  0.00     0.229 C 
HETATM    2  N   UNL     1      41.336 -13.927   4.426  1.00  0.00    -0.351 N 
HETATM    3  C   UNL     1      40.397 -15.023   4.644  1.00  0.00     0.132 C 
HETATM    4  C   UNL     1      41.032 -16.419   4.702  1.00  0.00     0.021 C 
HETATM    5  C   UNL     1      42.289 -16.430   5.580  1.00  0.00     0.009 C 
HETATM    6  C   UNL     1      43.246 -15.305   5.215  1.00  0.00     0.020 C 
HETATM    7  C   UNL     1      42.541 -13.955   5.257  1.00  0.00     0.126 C 
HETATM    8  O   UNL     1      41.650 -11.665   4.193  1.00  0.00    -0.273 OA
ENDROOT
BRANCH   1   9
HETATM    9  C   UNL     1      39.713 -12.493   3.093  1.00  0.00     0.185 C 
BRANCH   9  10
HETATM   10  S   UNL     1      39.939 -11.922   1.398  1.00  0.00    -0.082 SA
BRANCH  10  11
HETATM   11  C   UNL     1      40.600 -13.286   0.561  1.00  0.00     0.173 A 
HETATM   12  N   UNL     1      41.229 -13.223  -0.681  1.00  0.00    -0.300 N 
HETATM   13  C   UNL     1      41.368 -14.545  -1.074  1.00  0.00     0.118 A 
HETATM   14  C   UNL     1      40.896 -15.311  -0.037  1.00  0.00     0.137 A 
HETATM   15  N   UNL     1      40.417 -14.523   0.965  1.00  0.00    -0.235 NA
BRANCH  12  16
HETATM   16  C   UNL     1      41.685 -12.101  -1.441  1.00  0.00     0.042 A 
HETATM   17  C   UNL     1      42.715 -11.272  -0.976  1.00  0.00     0.037 A 
HETATM   18  C   UNL     1      43.157 -10.176  -1.730  1.00  0.00    -0.059 A 
HETATM   19  C   UNL     1      44.275  -9.305  -1.234  1.00  0.00     0.048 C 
HETATM   20  C   UNL     1      42.569  -9.921  -2.973  1.00  0.00     0.013 A 
HETATM   21  C   UNL     1      41.549 -10.744  -3.464  1.00  0.00    -0.059 A 
HETATM   22  C   UNL     1      41.120 -11.839  -2.699  1.00  0.00     0.037 A 
HETATM   23  C   UNL     1      40.935 -10.446  -4.801  1.00  0.00     0.048 C 
ENDBRANCH  12  16
ENDBRANCH  10  11
ENDBRANCH   9  10
ENDBRANCH   1   9
BRANCH   4  24
HETATM   24  C   UNL     1      41.280 -16.935   3.272  1.00  0.00     0.130 C 
BRANCH  24  25
HETATM   25  N   UNL     1      42.334 -17.930   3.179  1.00  0.00    -0.342 N 
HETATM   26  C   UNL     1      43.450 -17.709   2.428  1.00  0.00     0.320 C 
HETATM   27  N   UNL     1      44.436 -18.648   2.475  1.00  0.00    -0.309 N 
HETATM   28  O   UNL     1      43.626 -16.689   1.765  1.00  0.00    -0.247 OA
HETATM   29  H   UNL     1      45.278 -18.298   2.035  1.00  0.00     0.170 HD
HETATM   30  H   UNL     1      42.537 -18.416   4.041  1.00  0.00     0.164 HD
BRANCH  27  31
HETATM   31  C   UNL     1      44.492 -19.957   2.986  1.00  0.00     0.039 A 
HETATM   32  C   UNL     1      44.690 -20.276   4.329  1.00  0.00     0.071 A 
HETATM   33  C   UNL     1      44.750 -21.612   4.722  1.00  0.00     0.118 A 
HETATM   34  F   UNL     1      44.957 -21.906   6.013  1.00  0.00    -0.206 F 
HETATM   35  C   UNL     1      44.595 -22.644   3.807  1.00  0.00     0.042 A 
HETATM   36  C   UNL     1      44.357 -22.337   2.472  1.00  0.00     0.005 A 
HETATM   37  C   UNL     1      44.296 -21.000   2.067  1.00  0.00     0.030 A 
ENDBRANCH  27  31
ENDBRANCH  24  25
ENDBRANCH   4  24
TORSDOF 7
ENDMDL
MODEL 9
REMARK VINA RESULT:      -9.4      2.769      9.225
REMARK  7 active torsions:
REMARK  status: ('A' for Active; 'I' for Inactive)
REMARK    1  A    between atoms: C_4  and  N_5 
REMARK    2  A    between atoms: C_6  and  S_7 
REMARK    3  A    between atoms: S_7  and  C_8 
REMARK    4  A    between atoms: C_8  and  C_9 
REMARK       I    between atoms: C_9  and  N_10 
REMARK    5  A    between atoms: C_12  and  C_13 
REMARK    6  A    between atoms: C_13  and  N_14 
REMARK       I    between atoms: N_14  and  C_15 
REMARK       I    between atoms: C_15  and  N_16 
REMARK    7  A    between atoms: N_16  and  C_17 
ROOT
HETATM    1  C   UNL     1      40.940 -14.705   3.753  1.00  0.00     0.229 C 
HETATM    2  N   UNL     1      40.225 -13.512   3.950  1.00  0.00    -0.351 N 
HETATM    3  C   UNL     1      39.847 -13.029   5.276  1.00  0.00     0.132 C 
HETATM    4  C   UNL     1      39.451 -11.548   5.337  1.00  0.00     0.021 C 
HETATM    5  C   UNL     1      38.505 -11.169   4.192  1.00  0.00     0.009 C 
HETATM    6  C   UNL     1      39.031 -11.636   2.843  1.00  0.00     0.020 C 
HETATM    7  C   UNL     1      39.325 -13.130   2.861  1.00  0.00     0.126 C 
HETATM    8  O   UNL     1      40.907 -15.281   2.656  1.00  0.00    -0.273 OA
ENDROOT
BRANCH   1   9
HETATM    9  C   UNL     1      41.942 -15.188   4.795  1.00  0.00     0.185 C 
BRANCH   9  10
HETATM   10  S   UNL     1      41.601 -16.697   5.719  1.00  0.00    -0.082 SA
BRANCH  10  11
HETATM   11  C   UNL     1      43.150 -17.222   6.287  1.00  0.00     0.173 A 
HETATM   12  N   UNL     1      43.983 -18.109   5.606  1.00  0.00    -0.300 N 
HETATM   13  C   UNL     1      44.973 -18.434   6.520  1.00  0.00     0.118 A 
HETATM   14  C   UNL     1      44.729 -17.684   7.643  1.00  0.00     0.137 A 
HETATM   15  N   UNL     1      43.596 -16.944   7.491  1.00  0.00    -0.235 NA
BRANCH  12  16
HETATM   16  C   UNL     1      43.922 -18.607   4.268  1.00  0.00     0.042 A 
HETATM   17  C   UNL     1      43.653 -17.759   3.184  1.00  0.00     0.037 A 
HETATM   18  C   UNL     1      43.598 -18.256   1.874  1.00  0.00    -0.059 A 
HETATM   19  C   UNL     1      43.329 -17.338   0.716  1.00  0.00     0.048 C 
HETATM   20  C   UNL     1      43.834 -19.615   1.650  1.00  0.00     0.013 A 
HETATM   21  C   UNL     1      44.119 -20.478   2.714  1.00  0.00    -0.059 A 
HETATM   22  C   UNL     1      44.173 -19.965   4.019  1.00  0.00     0.037 A 
HETATM   23  C   UNL     1      44.367 -21.934   2.445  1.00  0.00     0.048 C 
ENDBRANCH  12  16
ENDBRANCH  10  11
ENDBRANCH   9  10
ENDBRANCH   1   9
BRANCH   4  24
HETATM   24  C   UNL     1      40.720 -10.675   5.397  1.00  0.00     0.130 C 
BRANCH  24  25
HETATM   25  N   UNL     1      41.495 -10.845   6.614  1.00  0.00    -0.342 N 
HETATM   26  C   UNL     1      40.974 -10.529   7.833  1.00  0.00     0.320 C 
HETATM   27  N   UNL     1      41.728 -10.813   8.932  1.00  0.00    -0.309 N 
HETATM   28  O   UNL     1      39.849 -10.058   7.985  1.00  0.00    -0.247 OA
HETATM   29  H   UNL     1      41.176 -10.710   9.775  1.00  0.00     0.170 HD
HETATM   30  H   UNL     1      42.067 -11.678   6.641  1.00  0.00     0.164 HD
BRANCH  27  31
HETATM   31  C   UNL     1      43.071 -11.191   9.104  1.00  0.00     0.039 A 
HETATM   32  C   UNL     1      43.727 -12.156   8.338  1.00  0.00     0.071 A 
HETATM   33  C   UNL     1      45.058 -12.468   8.610  1.00  0.00     0.118 A 
HETATM   34  F   UNL     1      45.673 -13.407   7.877  1.00  0.00    -0.206 F 
HETATM   35  C   UNL     1      45.762 -11.824   9.618  1.00  0.00     0.042 A 
HETATM   36  C   UNL     1      45.130 -10.833  10.361  1.00  0.00     0.005 A 
HETATM   37  C   UNL     1      43.794 -10.513  10.097  1.00  0.00     0.030 A 
ENDBRANCH  27  31
ENDBRANCH  24  25
ENDBRANCH   4  24
TORSDOF 7
ENDMDL
MODEL 10
REMARK VINA RESULT:      -9.3      3.714     10.176
REMARK  7 active torsions:
REMARK  status: ('A' for Active; 'I' for Inactive)
REMARK    1  A    between atoms: C_4  and  N_5 
REMARK    2  A    between atoms: C_6  and  S_7 
REMARK    3  A    between atoms: S_7  and  C_8 
REMARK    4  A    between atoms: C_8  and  C_9 
REMARK       I    between atoms: C_9  and  N_10 
REMARK    5  A    between atoms: C_12  and  C_13 
REMARK    6  A    between atoms: C_13  and  N_14 
REMARK       I    between atoms: N_14  and  C_15 
REMARK       I    between atoms: C_15  and  N_16 
REMARK    7  A    between atoms: N_16  and  C_17 
ROOT
HETATM    1  C   UNL     1      40.997 -11.670   3.600  1.00  0.00     0.229 C 
HETATM    2  N   UNL     1      40.990 -10.930   4.795  1.00  0.00    -0.351 N 
HETATM    3  C   UNL     1      40.496 -11.475   6.057  1.00  0.00     0.132 C 
HETATM    4  C   UNL     1      40.936 -10.707   7.310  1.00  0.00     0.021 C 
HETATM    5  C   UNL     1      40.777  -9.193   7.128  1.00  0.00     0.009 C 
HETATM    6  C   UNL     1      41.404  -8.710   5.828  1.00  0.00     0.020 C 
HETATM    7  C   UNL     1      40.851  -9.481   4.637  1.00  0.00     0.126 C 
HETATM    8  O   UNL     1      41.042 -11.091   2.506  1.00  0.00    -0.273 OA
ENDROOT
BRANCH   1   9
HETATM    9  C   UNL     1      41.179 -13.183   3.628  1.00  0.00     0.185 C 
BRANCH   9  10
HETATM   10  S   UNL     1      42.634 -13.914   2.856  1.00  0.00    -0.082 SA
BRANCH  10  11
HETATM   11  C   UNL     1      42.002 -14.941   1.614  1.00  0.00     0.173 A 
HETATM   12  N   UNL     1      42.182 -16.322   1.562  1.00  0.00    -0.300 N 
HETATM   13  C   UNL     1      41.737 -16.688   0.302  1.00  0.00     0.118 A 
HETATM   14  C   UNL     1      41.255 -15.547  -0.289  1.00  0.00     0.137 A 
HETATM   15  N   UNL     1      41.430 -14.471   0.528  1.00  0.00    -0.235 NA
BRANCH  12  16
HETATM   16  C   UNL     1      42.681 -17.236   2.541  1.00  0.00     0.042 A 
HETATM   17  C   UNL     1      42.408 -17.066   3.906  1.00  0.00     0.037 A 
HETATM   18  C   UNL     1      42.899 -17.970   4.858  1.00  0.00    -0.059 A 
HETATM   19  C   UNL     1      42.586 -17.793   6.317  1.00  0.00     0.048 C 
HETATM   20  C   UNL     1      43.657 -19.066   4.433  1.00  0.00     0.013 A 
HETATM   21  C   UNL     1      43.929 -19.263   3.075  1.00  0.00    -0.059 A 
HETATM   22  C   UNL     1      43.429 -18.352   2.133  1.00  0.00     0.037 A 
HETATM   23  C   UNL     1      44.747 -20.447   2.646  1.00  0.00     0.048 C 
ENDBRANCH  12  16
ENDBRANCH  10  11
ENDBRANCH   9  10
ENDBRANCH   1   9
BRANCH   4  24
HETATM   24  C   UNL     1      42.364 -11.131   7.703  1.00  0.00     0.130 C 
BRANCH  24  25
HETATM   25  N   UNL     1      42.665 -10.953   9.113  1.00  0.00    -0.342 N 
HETATM   26  C   UNL     1      43.945 -11.018   9.576  1.00  0.00     0.320 C 
HETATM   27  N   UNL     1      44.152 -10.740  10.893  1.00  0.00    -0.309 N 
HETATM   28  O   UNL     1      44.911 -11.258   8.856  1.00  0.00    -0.247 OA
HETATM   29  H   UNL     1      45.142 -10.638  11.081  1.00  0.00     0.170 HD
HETATM   30  H   UNL     1      42.120 -10.240   9.577  1.00  0.00     0.164 HD
BRANCH  27  31
HETATM   31  C   UNL     1      43.286 -10.590  11.991  1.00  0.00     0.039 A 
HETATM   32  C   UNL     1      42.108 -11.315  12.177  1.00  0.00     0.071 A 
HETATM   33  C   UNL     1      41.313 -11.069  13.294  1.00  0.00     0.118 A 
HETATM   34  F   UNL     1      40.176 -11.761  13.454  1.00  0.00    -0.206 F 
HETATM   35  C   UNL     1      41.674 -10.127  14.247  1.00  0.00     0.042 A 
HETATM   36  C   UNL     1      42.866  -9.427  14.093  1.00  0.00     0.005 A 
HETATM   37  C   UNL     1      43.670  -9.666  12.975  1.00  0.00     0.030 A 
ENDBRANCH  27  31
ENDBRANCH  24  25
ENDBRANCH   4  24
TORSDOF 7
ENDMDL
