MODEL 1
REMARK VINA RESULT:      -7.6      0.000      0.000
REMARK  7 active torsions:
REMARK  status: ('A' for Active; 'I' for Inactive)
REMARK    1  A    between atoms: O_2  and  C_3 
REMARK    2  A    between atoms: C_4  and  O_5 
REMARK    3  A    between atoms: C_9  and  C_10 
REMARK    4  A    between atoms: C_10  and  N_11 
REMARK    5  A    between atoms: C_14  and  C_15 
REMARK    6  A    between atoms: C_15  and  N_16 
REMARK    7  A    between atoms: N_16  and  C_17 
ROOT
HETATM    1  N   UNL     1      42.119 -16.953   2.605  1.00  0.00    -0.067 N 
HETATM    2  H   UNL     1      42.205 -17.923   2.259  1.00  0.00     0.280 HD
HETATM    3  C   UNL     1      42.594 -16.028   1.505  1.00  0.00     0.241 C 
HETATM    4  C   UNL     1      41.502 -14.966   1.409  1.00  0.00     0.031 C 
HETATM    5  C   UNL     1      40.244 -15.789   1.664  1.00  0.00     0.035 C 
HETATM    6  C   UNL     1      40.644 -16.685   2.828  1.00  0.00     0.235 C 
ENDROOT
BRANCH   1   7
HETATM    7  C   UNL     1      42.932 -16.925   3.883  1.00  0.00     0.274 C 
BRANCH   7   8
HETATM    8  C   UNL     1      43.564 -18.251   4.222  1.00  0.00    -0.012 A 
HETATM    9  C   UNL     1      43.720 -18.691   5.551  1.00  0.00     0.021 A 
HETATM   10  C   UNL     1      44.279 -19.937   5.825  1.00  0.00     0.059 A 
HETATM   11 BR   UNL     1      43.156 -17.638   7.028  1.00  0.00    -0.050 Br
HETATM   12  C   UNL     1      44.678 -20.750   4.773  1.00  0.00     0.100 A 
HETATM   13  C   UNL     1      44.543 -20.349   3.442  1.00  0.00     0.101 A 
HETATM   14  C   UNL     1      43.996 -19.094   3.173  1.00  0.00     0.049 A 
BRANCH  12  15
HETATM   15  O   UNL     1      45.206 -21.971   5.079  1.00  0.00    -0.358 OA
HETATM   16  H   UNL     1      45.453 -22.391   4.232  1.00  0.00     0.218 HD
ENDBRANCH  12  15
BRANCH  13  17
HETATM   17  O   UNL     1      44.965 -21.264   2.518  1.00  0.00    -0.353 OA
HETATM   18  C   UNL     1      43.985 -21.845   1.665  1.00  0.00     0.210 C 
ENDBRANCH  13  17
ENDBRANCH   7   8
ENDBRANCH   1   7
BRANCH   4  19
HETATM   19  C   UNL     1      41.535 -14.232   0.065  1.00  0.00     0.127 C 
BRANCH  19  20
HETATM   20  N   UNL     1      41.524 -15.176  -1.054  1.00  0.00    -0.376 N 
HETATM   21  H   UNL     1      42.031 -16.044  -0.916  1.00  0.00     0.161 HD
BRANCH  20  22
HETATM   22  C   UNL     1      40.472 -15.182  -1.957  1.00  0.00     0.100 A 
HETATM   23  N   UNL     1      39.384 -14.442  -1.672  1.00  0.00    -0.353 N 
HETATM   24  H   UNL     1      39.374 -13.920  -0.802  1.00  0.00     0.166 HD
HETATM   25  C   UNL     1      38.301 -14.369  -2.462  1.00  0.00     0.089 A 
HETATM   26  C   UNL     1      38.252 -15.086  -3.646  1.00  0.00     0.017 A 
HETATM   27  C   UNL     1      39.334 -15.885  -3.983  1.00  0.00     0.005 A 
HETATM   28  C   UNL     1      40.441 -15.941  -3.136  1.00  0.00     0.048 A 
ENDBRANCH  20  22
ENDBRANCH  19  20
ENDBRANCH   4  19
TORSDOF 7
ENDMDL
MODEL 2
REMARK VINA RESULT:      -7.6      4.881      7.857
REMARK  7 active torsions:
REMARK  status: ('A' for Active; 'I' for Inactive)
REMARK    1  A    between atoms: O_2  and  C_3 
REMARK    2  A    between atoms: C_4  and  O_5 
REMARK    3  A    between atoms: C_9  and  C_10 
REMARK    4  A    between atoms: C_10  and  N_11 
REMARK    5  A    between atoms: C_14  and  C_15 
REMARK    6  A    between atoms: C_15  and  N_16 
REMARK    7  A    between atoms: N_16  and  C_17 
ROOT
HETATM    1  N   UNL     1      43.289 -15.998   4.666  1.00  0.00    -0.067 N 
HETATM    2  H   UNL     1      44.218 -16.447   4.723  1.00  0.00     0.280 HD
HETATM    3  C   UNL     1      43.095 -15.182   5.927  1.00  0.00     0.241 C 
HETATM    4  C   UNL     1      42.607 -13.825   5.425  1.00  0.00     0.031 C 
HETATM    5  C   UNL     1      43.413 -13.660   4.141  1.00  0.00     0.035 C 
HETATM    6  C   UNL     1      43.325 -15.036   3.496  1.00  0.00     0.235 C 
ENDROOT
BRANCH   1   7
HETATM    7  C   UNL     1      42.317 -17.142   4.471  1.00  0.00     0.274 C 
BRANCH   7   8
HETATM    8  C   UNL     1      42.929 -18.340   3.788  1.00  0.00    -0.012 A 
HETATM    9  C   UNL     1      42.664 -18.654   2.441  1.00  0.00     0.021 A 
HETATM   10  C   UNL     1      43.273 -19.750   1.835  1.00  0.00     0.059 A 
HETATM   11 BR   UNL     1      41.500 -17.597   1.375  1.00  0.00    -0.050 Br
HETATM   12  C   UNL     1      44.154 -20.532   2.571  1.00  0.00     0.100 A 
HETATM   13  C   UNL     1      44.441 -20.256   3.909  1.00  0.00     0.101 A 
HETATM   14  C   UNL     1      43.817 -19.165   4.516  1.00  0.00     0.049 A 
BRANCH  12  15
HETATM   15  O   UNL     1      44.745 -21.588   1.938  1.00  0.00    -0.358 OA
HETATM   16  H   UNL     1      45.374 -21.981   2.576  1.00  0.00     0.218 HD
ENDBRANCH  12  15
BRANCH  13  17
HETATM   17  O   UNL     1      45.339 -21.104   4.495  1.00  0.00    -0.353 OA
HETATM   18  C   UNL     1      44.843 -22.044   5.441  1.00  0.00     0.210 C 
ENDBRANCH  13  17
ENDBRANCH   7   8
ENDBRANCH   1   7
BRANCH   4  19
HETATM   19  C   UNL     1      42.815 -12.721   6.467  1.00  0.00     0.127 C 
BRANCH  19  20
HETATM   20  N   UNL     1      43.804 -13.120   7.470  1.00  0.00    -0.376 N 
HETATM   21  H   UNL     1      44.509 -13.784   7.167  1.00  0.00     0.161 HD
BRANCH  20  22
HETATM   22  C   UNL     1      44.129 -12.268   8.514  1.00  0.00     0.100 A 
HETATM   23  N   UNL     1      43.136 -11.573   9.101  1.00  0.00    -0.353 N 
HETATM   24  H   UNL     1      42.193 -11.693   8.747  1.00  0.00     0.166 HD
HETATM   25  C   UNL     1      43.323 -10.715  10.116  1.00  0.00     0.089 A 
HETATM   26  C   UNL     1      44.595 -10.493  10.616  1.00  0.00     0.017 A 
HETATM   27  C   UNL     1      45.662 -11.163  10.037  1.00  0.00     0.005 A 
HETATM   28  C   UNL     1      45.432 -12.045   8.981  1.00  0.00     0.048 A 
ENDBRANCH  20  22
ENDBRANCH  19  20
ENDBRANCH   4  19
TORSDOF 7
ENDMDL
MODEL 3
REMARK VINA RESULT:      -7.5      1.434      1.814
REMARK  7 active torsions:
REMARK  status: ('A' for Active; 'I' for Inactive)
REMARK    1  A    between atoms: O_2  and  C_3 
REMARK    2  A    between atoms: C_4  and  O_5 
REMARK    3  A    between atoms: C_9  and  C_10 
REMARK    4  A    between atoms: C_10  and  N_11 
REMARK    5  A    between atoms: C_14  and  C_15 
REMARK    6  A    between atoms: C_15  and  N_16 
REMARK    7  A    between atoms: N_16  and  C_17 
ROOT
HETATM    1  N   UNL     1      42.135 -17.249   4.086  1.00  0.00    -0.067 N 
HETATM    2  H   UNL     1      41.695 -18.091   4.490  1.00  0.00     0.280 HD
HETATM    3  C   UNL     1      41.690 -17.144   2.643  1.00  0.00     0.241 C 
HETATM    4  C   UNL     1      41.247 -15.692   2.491  1.00  0.00     0.031 C 
HETATM    5  C   UNL     1      40.603 -15.419   3.845  1.00  0.00     0.035 C 
HETATM    6  C   UNL     1      41.578 -16.051   4.828  1.00  0.00     0.235 C 
ENDROOT
BRANCH   1   7
HETATM    7  C   UNL     1      43.621 -17.448   4.301  1.00  0.00     0.274 C 
BRANCH   7   8
HETATM    8  C   UNL     1      44.021 -18.897   4.427  1.00  0.00    -0.012 A 
HETATM    9  C   UNL     1      44.123 -19.542   5.675  1.00  0.00     0.021 A 
HETATM   10  C   UNL     1      44.463 -20.890   5.751  1.00  0.00     0.059 A 
HETATM   11 BR   UNL     1      43.777 -18.631   7.305  1.00  0.00    -0.050 Br
HETATM   12  C   UNL     1      44.696 -21.600   4.580  1.00  0.00     0.100 A 
HETATM   13  C   UNL     1      44.608 -20.996   3.325  1.00  0.00     0.101 A 
HETATM   14  C   UNL     1      44.281 -19.642   3.254  1.00  0.00     0.049 A 
BRANCH  12  15
HETATM   15  O   UNL     1      45.012 -22.924   4.693  1.00  0.00    -0.358 OA
HETATM   16  H   UNL     1      45.390 -23.047   5.586  1.00  0.00     0.218 HD
ENDBRANCH  12  15
BRANCH  13  17
HETATM   17  O   UNL     1      44.849 -21.828   2.266  1.00  0.00    -0.353 OA
HETATM   18  C   UNL     1      43.829 -21.961   1.283  1.00  0.00     0.210 C 
ENDBRANCH  13  17
ENDBRANCH   7   8
ENDBRANCH   1   7
BRANCH   4  19
HETATM   19  C   UNL     1      40.324 -15.499   1.283  1.00  0.00     0.127 C 
BRANCH  19  20
HETATM   20  N   UNL     1      40.902 -16.092   0.075  1.00  0.00    -0.376 N 
HETATM   21  H   UNL     1      40.691 -17.071  -0.090  1.00  0.00     0.161 HD
BRANCH  20  22
HETATM   22  C   UNL     1      41.194 -15.301  -1.025  1.00  0.00     0.100 A 
HETATM   23  N   UNL     1      41.824 -14.130  -0.819  1.00  0.00    -0.353 N 
HETATM   24  H   UNL     1      42.049 -13.869   0.136  1.00  0.00     0.166 HD
HETATM   25  C   UNL     1      42.156 -13.276  -1.800  1.00  0.00     0.089 A 
HETATM   26  C   UNL     1      41.844 -13.572  -3.116  1.00  0.00     0.017 A 
HETATM   27  C   UNL     1      41.174 -14.754  -3.390  1.00  0.00     0.005 A 
HETATM   28  C   UNL     1      40.841 -15.616  -2.345  1.00  0.00     0.048 A 
ENDBRANCH  20  22
ENDBRANCH  19  20
ENDBRANCH   4  19
TORSDOF 7
ENDMDL
MODEL 4
REMARK VINA RESULT:      -7.4      1.821      2.375
REMARK  7 active torsions:
REMARK  status: ('A' for Active; 'I' for Inactive)
REMARK    1  A    between atoms: O_2  and  C_3 
REMARK    2  A    between atoms: C_4  and  O_5 
REMARK    3  A    between atoms: C_9  and  C_10 
REMARK    4  A    between atoms: C_10  and  N_11 
REMARK    5  A    between atoms: C_14  and  C_15 
REMARK    6  A    between atoms: C_15  and  N_16 
REMARK    7  A    between atoms: N_16  and  C_17 
ROOT
HETATM    1  N   UNL     1      42.211 -17.163   2.226  1.00  0.00    -0.067 N 
HETATM    2  H   UNL     1      42.150 -18.173   2.017  1.00  0.00     0.280 HD
HETATM    3  C   UNL     1      42.207 -16.420   0.907  1.00  0.00     0.241 C 
HETATM    4  C   UNL     1      41.169 -15.317   1.100  1.00  0.00     0.031 C 
HETATM    5  C   UNL     1      40.118 -16.024   1.948  1.00  0.00     0.035 C 
HETATM    6  C   UNL     1      40.949 -16.782   2.974  1.00  0.00     0.235 C 
ENDROOT
BRANCH   1   7
HETATM    7  C   UNL     1      43.467 -17.015   3.059  1.00  0.00     0.274 C 
BRANCH   7   8
HETATM    8  C   UNL     1      43.936 -18.310   3.673  1.00  0.00    -0.012 A 
HETATM    9  C   UNL     1      44.194 -18.437   5.052  1.00  0.00     0.021 A 
HETATM   10  C   UNL     1      44.595 -19.658   5.589  1.00  0.00     0.059 A 
HETATM   11 BR   UNL     1      43.984 -16.978   6.250  1.00  0.00    -0.050 Br
HETATM   12  C   UNL     1      44.733 -20.758   4.753  1.00  0.00     0.100 A 
HETATM   13  C   UNL     1      44.489 -20.672   3.381  1.00  0.00     0.101 A 
HETATM   14  C   UNL     1      44.102 -19.443   2.844  1.00  0.00     0.049 A 
BRANCH  12  15
HETATM   15  O   UNL     1      45.111 -21.941   5.317  1.00  0.00    -0.358 OA
HETATM   16  H   UNL     1      44.940 -21.862   6.277  1.00  0.00     0.218 HD
ENDBRANCH  12  15
BRANCH  13  17
HETATM   17  O   UNL     1      44.651 -21.842   2.691  1.00  0.00    -0.353 OA
HETATM   18  C   UNL     1      44.025 -21.953   1.418  1.00  0.00     0.210 C 
ENDBRANCH  13  17
ENDBRANCH   7   8
ENDBRANCH   1   7
BRANCH   4  19
HETATM   19  C   UNL     1      40.663 -14.768  -0.237  1.00  0.00     0.127 C 
BRANCH  19  20
HETATM   20  N   UNL     1      41.759 -14.616  -1.196  1.00  0.00    -0.376 N 
HETATM   21  H   UNL     1      41.979 -15.430  -1.761  1.00  0.00     0.161 HD
BRANCH  20  22
HETATM   22  C   UNL     1      42.070 -13.369  -1.715  1.00  0.00     0.100 A 
HETATM   23  N   UNL     1      42.343 -12.371  -0.855  1.00  0.00    -0.353 N 
HETATM   24  H   UNL     1      42.297 -12.569   0.140  1.00  0.00     0.166 HD
HETATM   25  C   UNL     1      42.652 -11.121  -1.233  1.00  0.00     0.089 A 
HETATM   26  C   UNL     1      42.698 -10.791  -2.577  1.00  0.00     0.017 A 
HETATM   27  C   UNL     1      42.404 -11.771  -3.511  1.00  0.00     0.005 A 
HETATM   28  C   UNL     1      42.082 -13.059  -3.083  1.00  0.00     0.048 A 
ENDBRANCH  20  22
ENDBRANCH  19  20
ENDBRANCH   4  19
TORSDOF 7
ENDMDL
MODEL 5
REMARK VINA RESULT:      -7.3      4.972      8.430
REMARK  7 active torsions:
REMARK  status: ('A' for Active; 'I' for Inactive)
REMARK    1  A    between atoms: O_2  and  C_3 
REMARK    2  A    between atoms: C_4  and  O_5 
REMARK    3  A    between atoms: C_9  and  C_10 
REMARK    4  A    between atoms: C_10  and  N_11 
REMARK    5  A    between atoms: C_14  and  C_15 
REMARK    6  A    between atoms: C_15  and  N_16 
REMARK    7  A    between atoms: N_16  and  C_17 
ROOT
HETATM    1  N   UNL     1      41.612 -16.834   6.405  1.00  0.00    -0.067 N 
HETATM    2  H   UNL     1      40.752 -16.672   6.953  1.00  0.00     0.280 HD
HETATM    3  C   UNL     1      42.093 -15.492   5.895  1.00  0.00     0.241 C 
HETATM    4  C   UNL     1      43.581 -15.471   6.236  1.00  0.00     0.031 C 
HETATM    5  C   UNL     1      43.603 -16.191   7.580  1.00  0.00     0.035 C 
HETATM    6  C   UNL     1      42.661 -17.367   7.361  1.00  0.00     0.235 C 
ENDROOT
BRANCH   1   7
HETATM    7  C   UNL     1      41.211 -17.834   5.340  1.00  0.00     0.274 C 
BRANCH   7   8
HETATM    8  C   UNL     1      41.612 -17.420   3.947  1.00  0.00    -0.012 A 
HETATM    9  C   UNL     1      42.823 -17.834   3.359  1.00  0.00     0.021 A 
HETATM   10  C   UNL     1      43.145 -17.459   2.057  1.00  0.00     0.059 A 
HETATM   11 BR   UNL     1      44.059 -18.941   4.284  1.00  0.00    -0.050 Br
HETATM   12  C   UNL     1      42.256 -16.674   1.335  1.00  0.00     0.100 A 
HETATM   13  C   UNL     1      41.047 -16.240   1.883  1.00  0.00     0.101 A 
HETATM   14  C   UNL     1      40.735 -16.607   3.193  1.00  0.00     0.049 A 
BRANCH  12  15
HETATM   15  O   UNL     1      42.598 -16.339   0.057  1.00  0.00    -0.358 OA
HETATM   16  H   UNL     1      43.366 -15.737   0.120  1.00  0.00     0.218 HD
ENDBRANCH  12  15
BRANCH  13  17
HETATM   17  O   UNL     1      40.270 -15.489   1.046  1.00  0.00    -0.353 OA
HETATM   18  C   UNL     1      40.027 -14.134   1.405  1.00  0.00     0.210 C 
ENDBRANCH  13  17
ENDBRANCH   7   8
ENDBRANCH   1   7
BRANCH   4  19
HETATM   19  C   UNL     1      44.144 -14.047   6.254  1.00  0.00     0.127 C 
BRANCH  19  20
HETATM   20  N   UNL     1      45.076 -13.860   7.367  1.00  0.00    -0.376 N 
HETATM   21  H   UNL     1      46.012 -14.229   7.236  1.00  0.00     0.161 HD
BRANCH  20  22
HETATM   22  C   UNL     1      44.919 -12.798   8.244  1.00  0.00     0.100 A 
HETATM   23  N   UNL     1      43.684 -12.294   8.419  1.00  0.00    -0.353 N 
HETATM   24  H   UNL     1      42.920 -12.704   7.892  1.00  0.00     0.166 HD
HETATM   25  C   UNL     1      43.404 -11.266   9.236  1.00  0.00     0.089 A 
HETATM   26  C   UNL     1      44.416 -10.652   9.954  1.00  0.00     0.017 A 
HETATM   27  C   UNL     1      45.714 -11.112   9.798  1.00  0.00     0.005 A 
HETATM   28  C   UNL     1      45.969 -12.180   8.938  1.00  0.00     0.048 A 
ENDBRANCH  20  22
ENDBRANCH  19  20
ENDBRANCH   4  19
TORSDOF 7
ENDMDL
MODEL 6
REMARK VINA RESULT:      -7.2      4.795      8.072
REMARK  7 active torsions:
REMARK  status: ('A' for Active; 'I' for Inactive)
REMARK    1  A    between atoms: O_2  and  C_3 
REMARK    2  A    between atoms: C_4  and  O_5 
REMARK    3  A    between atoms: C_9  and  C_10 
REMARK    4  A    between atoms: C_10  and  N_11 
REMARK    5  A    between atoms: C_14  and  C_15 
REMARK    6  A    between atoms: C_15  and  N_16 
REMARK    7  A    between atoms: N_16  and  C_17 
ROOT
HETATM    1  N   UNL     1      41.513 -16.632   6.600  1.00  0.00    -0.067 N 
HETATM    2  H   UNL     1      40.727 -16.381   7.221  1.00  0.00     0.280 HD
HETATM    3  C   UNL     1      42.255 -15.357   6.258  1.00  0.00     0.241 C 
HETATM    4  C   UNL     1      43.722 -15.699   6.501  1.00  0.00     0.031 C 
HETATM    5  C   UNL     1      43.633 -16.605   7.724  1.00  0.00     0.035 C 
HETATM    6  C   UNL     1      42.454 -17.511   7.400  1.00  0.00     0.235 C 
ENDROOT
BRANCH   1   7
HETATM    7  C   UNL     1      40.872 -17.350   5.432  1.00  0.00     0.274 C 
BRANCH   7   8
HETATM    8  C   UNL     1      41.725 -17.356   4.188  1.00  0.00    -0.012 A 
HETATM    9  C   UNL     1      41.581 -16.389   3.174  1.00  0.00     0.021 A 
HETATM   10  C   UNL     1      42.410 -16.407   2.054  1.00  0.00     0.059 A 
HETATM   11 BR   UNL     1      40.286 -15.004   3.285  1.00  0.00    -0.050 Br
HETATM   12  C   UNL     1      43.389 -17.386   1.948  1.00  0.00     0.100 A 
HETATM   13  C   UNL     1      43.562 -18.362   2.930  1.00  0.00     0.101 A 
HETATM   14  C   UNL     1      42.720 -18.350   4.043  1.00  0.00     0.049 A 
BRANCH  12  15
HETATM   15  O   UNL     1      44.193 -17.361   0.844  1.00  0.00    -0.358 OA
HETATM   16  H   UNL     1      43.709 -16.864   0.156  1.00  0.00     0.218 HD
ENDBRANCH  12  15
BRANCH  13  17
HETATM   17  O   UNL     1      44.577 -19.248   2.692  1.00  0.00    -0.353 OA
HETATM   18  C   UNL     1      44.255 -20.633   2.663  1.00  0.00     0.210 C 
ENDBRANCH  13  17
ENDBRANCH   7   8
ENDBRANCH   1   7
BRANCH   4  19
HETATM   19  C   UNL     1      44.579 -14.442   6.686  1.00  0.00     0.127 C 
BRANCH  19  20
HETATM   20  N   UNL     1      43.769 -13.313   7.150  1.00  0.00    -0.376 N 
HETATM   21  H   UNL     1      42.767 -13.397   7.022  1.00  0.00     0.161 HD
BRANCH  20  22
HETATM   22  C   UNL     1      44.222 -12.501   8.178  1.00  0.00     0.100 A 
HETATM   23  N   UNL     1      43.337 -11.689   8.786  1.00  0.00    -0.353 N 
HETATM   24  H   UNL     1      42.376 -11.697   8.458  1.00  0.00     0.166 HD
HETATM   25  C   UNL     1      43.653 -10.854   9.788  1.00  0.00     0.089 A 
HETATM   26  C   UNL     1      44.956 -10.783  10.251  1.00  0.00     0.017 A 
HETATM   27  C   UNL     1      45.918 -11.578   9.649  1.00  0.00     0.005 A 
HETATM   28  C   UNL     1      45.556 -12.432   8.607  1.00  0.00     0.048 A 
ENDBRANCH  20  22
ENDBRANCH  19  20
ENDBRANCH   4  19
TORSDOF 7
ENDMDL
MODEL 7
REMARK VINA RESULT:      -7.2      2.266      3.383
REMARK  7 active torsions:
REMARK  status: ('A' for Active; 'I' for Inactive)
REMARK    1  A    between atoms: O_2  and  C_3 
REMARK    2  A    between atoms: C_4  and  O_5 
REMARK    3  A    between atoms: C_9  and  C_10 
REMARK    4  A    between atoms: C_10  and  N_11 
REMARK    5  A    between atoms: C_14  and  C_15 
REMARK    6  A    between atoms: C_15  and  N_16 
REMARK    7  A    between atoms: N_16  and  C_17 
ROOT
HETATM    1  N   UNL     1      42.240 -16.978   4.725  1.00  0.00    -0.067 N 
HETATM    2  H   UNL     1      41.887 -17.922   4.949  1.00  0.00     0.280 HD
HETATM    3  C   UNL     1      41.304 -16.366   3.705  1.00  0.00     0.241 C 
HETATM    4  C   UNL     1      41.011 -14.972   4.253  1.00  0.00     0.031 C 
HETATM    5  C   UNL     1      40.957 -15.232   5.754  1.00  0.00     0.035 C 
HETATM    6  C   UNL     1      42.147 -16.151   5.991  1.00  0.00     0.235 C 
ENDROOT
BRANCH   1   7
HETATM    7  C   UNL     1      43.664 -17.198   4.257  1.00  0.00     0.274 C 
BRANCH   7   8
HETATM    8  C   UNL     1      43.921 -18.597   3.755  1.00  0.00    -0.012 A 
HETATM    9  C   UNL     1      43.872 -18.925   2.386  1.00  0.00     0.021 A 
HETATM   10  C   UNL     1      44.148 -20.221   1.957  1.00  0.00     0.059 A 
HETATM   11 BR   UNL     1      43.464 -17.629   1.059  1.00  0.00    -0.050 Br
HETATM   12  C   UNL     1      44.479 -21.192   2.893  1.00  0.00     0.100 A 
HETATM   13  C   UNL     1      44.536 -20.908   4.258  1.00  0.00     0.101 A 
HETATM   14  C   UNL     1      44.245 -19.612   4.685  1.00  0.00     0.049 A 
BRANCH  12  15
HETATM   15  O   UNL     1      44.759 -22.447   2.433  1.00  0.00    -0.358 OA
HETATM   16  H   UNL     1      44.068 -22.666   1.777  1.00  0.00     0.218 HD
ENDBRANCH  12  15
BRANCH  13  17
HETATM   17  O   UNL     1      44.892 -21.962   5.054  1.00  0.00    -0.353 OA
HETATM   18  C   UNL     1      44.355 -22.010   6.370  1.00  0.00     0.210 C 
ENDBRANCH  13  17
ENDBRANCH   7   8
ENDBRANCH   1   7
BRANCH   4  19
HETATM   19  C   UNL     1      39.733 -14.377   3.651  1.00  0.00     0.127 C 
BRANCH  19  20
HETATM   20  N   UNL     1      39.268 -15.169   2.511  1.00  0.00    -0.376 N 
HETATM   21  H   UNL     1      38.789 -16.036   2.730  1.00  0.00     0.161 HD
BRANCH  20  22
HETATM   22  C   UNL     1      38.965 -14.553   1.306  1.00  0.00     0.100 A 
HETATM   23  N   UNL     1      39.816 -14.715   0.276  1.00  0.00    -0.353 N 
HETATM   24  H   UNL     1      40.651 -15.271   0.428  1.00  0.00     0.166 HD
HETATM   25  C   UNL     1      39.637 -14.168  -0.936  1.00  0.00     0.089 A 
HETATM   26  C   UNL     1      38.529 -13.376  -1.185  1.00  0.00     0.017 A 
HETATM   27  C   UNL     1      37.627 -13.153  -0.157  1.00  0.00     0.005 A 
HETATM   28  C   UNL     1      37.847 -13.734   1.092  1.00  0.00     0.048 A 
ENDBRANCH  20  22
ENDBRANCH  19  20
ENDBRANCH   4  19
TORSDOF 7
ENDMDL
MODEL 8
REMARK VINA RESULT:      -7.0      3.420      4.663
REMARK  7 active torsions:
REMARK  status: ('A' for Active; 'I' for Inactive)
REMARK    1  A    between atoms: O_2  and  C_3 
REMARK    2  A    between atoms: C_4  and  O_5 
REMARK    3  A    between atoms: C_9  and  C_10 
REMARK    4  A    between atoms: C_10  and  N_11 
REMARK    5  A    between atoms: C_14  and  C_15 
REMARK    6  A    between atoms: C_15  and  N_16 
REMARK    7  A    between atoms: N_16  and  C_17 
ROOT
HETATM    1  N   UNL     1      43.827 -17.627   3.063  1.00  0.00    -0.067 N 
HETATM    2  H   UNL     1      44.240 -16.765   3.455  1.00  0.00     0.280 HD
HETATM    3  C   UNL     1      42.324 -17.451   3.046  1.00  0.00     0.241 C 
HETATM    4  C   UNL     1      41.911 -17.879   1.641  1.00  0.00     0.031 C 
HETATM    5  C   UNL     1      43.072 -17.356   0.802  1.00  0.00     0.035 C 
HETATM    6  C   UNL     1      44.295 -17.736   1.626  1.00  0.00     0.235 C 
ENDROOT
BRANCH   1   7
HETATM    7  C   UNL     1      44.347 -18.741   3.947  1.00  0.00     0.274 C 
BRANCH   7   8
HETATM    8  C   UNL     1      44.141 -18.486   5.419  1.00  0.00    -0.012 A 
HETATM    9  C   UNL     1      44.041 -19.532   6.357  1.00  0.00     0.021 A 
HETATM   10  C   UNL     1      43.883 -19.257   7.713  1.00  0.00     0.059 A 
HETATM   11 BR   UNL     1      44.145 -21.356   5.839  1.00  0.00    -0.050 Br
HETATM   12  C   UNL     1      43.831 -17.936   8.138  1.00  0.00     0.100 A 
HETATM   13  C   UNL     1      43.923 -16.871   7.240  1.00  0.00     0.101 A 
HETATM   14  C   UNL     1      44.066 -17.151   5.880  1.00  0.00     0.049 A 
BRANCH  12  15
HETATM   15  O   UNL     1      43.692 -17.705   9.476  1.00  0.00    -0.358 OA
HETATM   16  H   UNL     1      43.062 -16.962   9.569  1.00  0.00     0.218 HD
ENDBRANCH  12  15
BRANCH  13  17
HETATM   17  O   UNL     1      43.872 -15.628   7.809  1.00  0.00    -0.353 OA
HETATM   18  C   UNL     1      44.458 -14.547   7.094  1.00  0.00     0.210 C 
ENDBRANCH  13  17
ENDBRANCH   7   8
ENDBRANCH   1   7
BRANCH   4  19
HETATM   19  C   UNL     1      40.534 -17.329   1.256  1.00  0.00     0.127 C 
BRANCH  19  20
HETATM   20  N   UNL     1      40.652 -16.041   0.569  1.00  0.00    -0.376 N 
HETATM   21  H   UNL     1      40.382 -16.027  -0.409  1.00  0.00     0.161 HD
BRANCH  20  22
HETATM   22  C   UNL     1      40.560 -14.855   1.280  1.00  0.00     0.100 A 
HETATM   23  N   UNL     1      41.582 -13.982   1.199  1.00  0.00    -0.353 N 
HETATM   24  H   UNL     1      42.383 -14.235   0.630  1.00  0.00     0.166 HD
HETATM   25  C   UNL     1      41.613 -12.805   1.842  1.00  0.00     0.089 A 
HETATM   26  C   UNL     1      40.558 -12.427   2.655  1.00  0.00     0.017 A 
HETATM   27  C   UNL     1      39.486 -13.294   2.797  1.00  0.00     0.005 A 
HETATM   28  C   UNL     1      39.488 -14.512   2.117  1.00  0.00     0.048 A 
ENDBRANCH  20  22
ENDBRANCH  19  20
ENDBRANCH   4  19
TORSDOF 7
ENDMDL
MODEL 9
REMARK VINA RESULT:      -6.9      4.231      7.394
REMARK  7 active torsions:
REMARK  status: ('A' for Active; 'I' for Inactive)
REMARK    1  A    between atoms: O_2  and  C_3 
REMARK    2  A    between atoms: C_4  and  O_5 
REMARK    3  A    between atoms: C_9  and  C_10 
REMARK    4  A    between atoms: C_10  and  N_11 
REMARK    5  A    between atoms: C_14  and  C_15 
REMARK    6  A    between atoms: C_15  and  N_16 
REMARK    7  A    between atoms: N_16  and  C_17 
ROOT
HETATM    1  N   UNL     1      43.734 -14.195   4.856  1.00  0.00    -0.067 N 
HETATM    2  H   UNL     1      44.603 -13.955   4.353  1.00  0.00     0.280 HD
HETATM    3  C   UNL     1      43.387 -15.629   4.517  1.00  0.00     0.241 C 
HETATM    4  C   UNL     1      43.095 -16.275   5.869  1.00  0.00     0.031 C 
HETATM    5  C   UNL     1      44.119 -15.592   6.769  1.00  0.00     0.035 C 
HETATM    6  C   UNL     1      44.042 -14.134   6.339  1.00  0.00     0.235 C 
ENDROOT
BRANCH   1   7
HETATM    7  C   UNL     1      42.728 -13.154   4.411  1.00  0.00     0.274 C 
BRANCH   7   8
HETATM    8  C   UNL     1      41.815 -13.634   3.310  1.00  0.00    -0.012 A 
HETATM    9  C   UNL     1      40.527 -14.140   3.570  1.00  0.00     0.021 A 
HETATM   10  C   UNL     1      39.699 -14.544   2.525  1.00  0.00     0.059 A 
HETATM   11 BR   UNL     1      39.837 -14.270   5.335  1.00  0.00    -0.050 Br
HETATM   12  C   UNL     1      40.154 -14.438   1.217  1.00  0.00     0.100 A 
HETATM   13  C   UNL     1      41.425 -13.945   0.918  1.00  0.00     0.101 A 
HETATM   14  C   UNL     1      42.256 -13.555   1.969  1.00  0.00     0.049 A 
BRANCH  12  15
HETATM   15  O   UNL     1      39.309 -14.828   0.218  1.00  0.00    -0.358 OA
HETATM   16  H   UNL     1      38.630 -14.130   0.136  1.00  0.00     0.218 HD
ENDBRANCH  12  15
BRANCH  13  17
HETATM   17  O   UNL     1      41.724 -13.885  -0.415  1.00  0.00    -0.353 OA
HETATM   18  C   UNL     1      42.068 -12.618  -0.961  1.00  0.00     0.210 C 
ENDBRANCH  13  17
ENDBRANCH   7   8
ENDBRANCH   1   7
BRANCH   4  19
HETATM   19  C   UNL     1      43.201 -17.802   5.808  1.00  0.00     0.127 C 
BRANCH  19  20
HETATM   20  N   UNL     1      44.335 -18.221   4.983  1.00  0.00    -0.376 N 
HETATM   21  H   UNL     1      45.254 -18.132   5.403  1.00  0.00     0.161 HD
BRANCH  20  22
HETATM   22  C   UNL     1      44.169 -19.179   3.995  1.00  0.00     0.100 A 
HETATM   23  N   UNL     1      43.360 -18.891   2.958  1.00  0.00    -0.353 N 
HETATM   24  H   UNL     1      42.896 -17.989   2.949  1.00  0.00     0.166 HD
HETATM   25  C   UNL     1      43.115 -19.736   1.944  1.00  0.00     0.089 A 
HETATM   26  C   UNL     1      43.700 -20.990   1.925  1.00  0.00     0.017 A 
HETATM   27  C   UNL     1      44.526 -21.354   2.978  1.00  0.00     0.005 A 
HETATM   28  C   UNL     1      44.755 -20.453   4.018  1.00  0.00     0.048 A 
ENDBRANCH  20  22
ENDBRANCH  19  20
ENDBRANCH   4  19
TORSDOF 7
ENDMDL
MODEL 10
REMARK VINA RESULT:      -6.9      1.974      2.479
REMARK  7 active torsions:
REMARK  status: ('A' for Active; 'I' for Inactive)
REMARK    1  A    between atoms: O_2  and  C_3 
REMARK    2  A    between atoms: C_4  and  O_5 
REMARK    3  A    between atoms: C_9  and  C_10 
REMARK    4  A    between atoms: C_10  and  N_11 
REMARK    5  A    between atoms: C_14  and  C_15 
REMARK    6  A    between atoms: C_15  and  N_16 
REMARK    7  A    between atoms: N_16  and  C_17 
ROOT
HETATM    1  N   UNL     1      42.398 -17.338   2.610  1.00  0.00    -0.067 N 
HETATM    2  H   UNL     1      42.347 -18.369   2.590  1.00  0.00     0.280 HD
HETATM    3  C   UNL     1      42.419 -16.850   1.176  1.00  0.00     0.241 C 
HETATM    4  C   UNL     1      41.371 -15.742   1.141  1.00  0.00     0.031 C 
HETATM    5  C   UNL     1      40.305 -16.290   2.082  1.00  0.00     0.035 C 
HETATM    6  C   UNL     1      41.117 -16.837   3.247  1.00  0.00     0.235 C 
ENDROOT
BRANCH   1   7
HETATM    7  C   UNL     1      43.634 -17.026   3.426  1.00  0.00     0.274 C 
BRANCH   7   8
HETATM    8  C   UNL     1      43.692 -17.770   4.737  1.00  0.00    -0.012 A 
HETATM    9  C   UNL     1      43.491 -17.128   5.974  1.00  0.00     0.021 A 
HETATM   10  C   UNL     1      43.519 -17.854   7.163  1.00  0.00     0.059 A 
HETATM   11 BR   UNL     1      43.144 -15.265   6.093  1.00  0.00    -0.050 Br
HETATM   12  C   UNL     1      43.741 -19.224   7.119  1.00  0.00     0.100 A 
HETATM   13  C   UNL     1      43.947 -19.896   5.913  1.00  0.00     0.101 A 
HETATM   14  C   UNL     1      43.933 -19.163   4.726  1.00  0.00     0.049 A 
BRANCH  12  15
HETATM   15  O   UNL     1      43.745 -19.905   8.302  1.00  0.00    -0.358 OA
HETATM   16  H   UNL     1      43.392 -19.293   8.979  1.00  0.00     0.218 HD
ENDBRANCH  12  15
BRANCH  13  17
HETATM   17  O   UNL     1      44.136 -21.246   6.028  1.00  0.00    -0.353 OA
HETATM   18  C   UNL     1      45.003 -21.876   5.094  1.00  0.00     0.210 C 
ENDBRANCH  13  17
ENDBRANCH   7   8
ENDBRANCH   1   7
BRANCH   4  19
HETATM   19  C   UNL     1      40.891 -15.454  -0.286  1.00  0.00     0.127 C 
BRANCH  19  20
HETATM   20  N   UNL     1      41.954 -14.848  -1.090  1.00  0.00    -0.376 N 
HETATM   21  H   UNL     1      42.774 -15.422  -1.257  1.00  0.00     0.161 HD
BRANCH  20  22
HETATM   22  C   UNL     1      41.658 -13.863  -2.018  1.00  0.00     0.100 A 
HETATM   23  N   UNL     1      40.391 -13.766  -2.462  1.00  0.00    -0.353 N 
HETATM   24  H   UNL     1      39.707 -14.427  -2.107  1.00  0.00     0.166 HD
HETATM   25  C   UNL     1      39.980 -12.859  -3.362  1.00  0.00     0.089 A 
HETATM   26  C   UNL     1      40.880 -11.954  -3.899  1.00  0.00     0.017 A 
HETATM   27  C   UNL     1      42.206 -12.019  -3.499  1.00  0.00     0.005 A 
HETATM   28  C   UNL     1      42.598 -12.977  -2.564  1.00  0.00     0.048 A 
ENDBRANCH  20  22
ENDBRANCH  19  20
ENDBRANCH   4  19
TORSDOF 7
ENDMDL
