MODEL 1
REMARK VINA RESULT:      -8.1      0.000      0.000
REMARK  7 active torsions:
REMARK  status: ('A' for Active; 'I' for Inactive)
REMARK    1  A    between atoms: C_5  and  N_6 
REMARK    2  A    between atoms: N_6  and  C_9 
REMARK    3  A    between atoms: C_9  and  C_10 
REMARK    4  A    between atoms: C_10  and  C_11 
REMARK    5  A    between atoms: C_10  and  C_13 
REMARK    6  A    between atoms: C_11  and  O_12 
REMARK    7  A    between atoms: C_13  and  C_14 
ROOT
HETATM    1  N   UNL     1      42.342 -17.935   3.470  1.00  0.00    -0.066 N 
HETATM    2  H   UNL     1      41.856 -18.793   3.149  1.00  0.00     0.278 HD
HETATM    3  H   UNL     1      42.043 -17.814   4.456  1.00  0.00     0.278 HD
ENDROOT
BRANCH   1   4
HETATM    4  C   UNL     1      43.780 -18.256   3.350  1.00  0.00     0.220 C 
HETATM    5  C   UNL     1      43.980 -19.699   3.002  1.00  0.00    -0.021 A 
HETATM    6  C   UNL     1      44.479 -20.431   4.092  1.00  0.00    -0.040 A 
HETATM    7  C   UNL     1      43.686 -20.320   1.795  1.00  0.00     0.010 A 
HETATM    8  C   UNL     1      44.740 -21.797   3.981  1.00  0.00    -0.055 A 
HETATM    9  C   UNL     1      44.654 -19.548   5.298  1.00  0.00     0.018 C 
HETATM   10  C   UNL     1      45.283 -22.611   5.117  1.00  0.00     0.049 C 
HETATM   11  C   UNL     1      44.433 -22.418   2.761  1.00  0.00     0.007 A 
HETATM   12  C   UNL     1      43.911 -21.690   1.682  1.00  0.00     0.001 A 
HETATM   13  C   UNL     1      44.554 -18.140   4.674  1.00  0.00     0.047 C 
HETATM   14  C   UNL     1      43.593 -19.785   6.367  1.00  0.00     0.015 C 
ENDBRANCH   1   4
BRANCH   1  15
HETATM   15  C   UNL     1      41.785 -16.825   2.654  1.00  0.00     0.240 C 
BRANCH  15  16
HETATM   16  C   UNL     1      40.932 -15.874   3.519  1.00  0.00     0.040 C 
BRANCH  16  17
HETATM   17  C   UNL     1      39.867 -15.180   2.656  1.00  0.00     0.170 C 
BRANCH  17  18
HETATM   18  O   UNL     1      39.067 -16.167   2.005  1.00  0.00    -0.400 OA
HETATM   19  H   UNL     1      39.011 -15.899   1.064  1.00  0.00     0.209 HD
ENDBRANCH  17  18
ENDBRANCH  16  17
BRANCH  16  20
HETATM   20  C   UNL     1      41.739 -14.804   4.291  1.00  0.00     0.067 C 
BRANCH  20  21
HETATM   21  C   UNL     1      42.418 -15.342   5.522  1.00  0.00     0.034 A 
HETATM   22  N   UNL     1      41.759 -16.339   6.178  1.00  0.00    -0.266 NA
HETATM   23  C   UNL     1      42.361 -16.831   7.289  1.00  0.00     0.117 A 
HETATM   24  C   UNL     1      43.560 -16.358   7.796  1.00  0.00     0.019 A 
HETATM   25  C   UNL     1      44.197 -15.325   7.120  1.00  0.00     0.003 A 
HETATM   26  C   UNL     1      43.623 -14.805   5.965  1.00  0.00     0.027 A 
ENDBRANCH  20  21
ENDBRANCH  16  20
ENDBRANCH  15  16
ENDBRANCH   1  15
TORSDOF 7
ENDMDL
MODEL 2
REMARK VINA RESULT:      -7.9      2.135      3.926
REMARK  7 active torsions:
REMARK  status: ('A' for Active; 'I' for Inactive)
REMARK    1  A    between atoms: C_5  and  N_6 
REMARK    2  A    between atoms: N_6  and  C_9 
REMARK    3  A    between atoms: C_9  and  C_10 
REMARK    4  A    between atoms: C_10  and  C_11 
REMARK    5  A    between atoms: C_10  and  C_13 
REMARK    6  A    between atoms: C_11  and  O_12 
REMARK    7  A    between atoms: C_13  and  C_14 
ROOT
HETATM    1  N   UNL     1      42.772 -17.575   6.148  1.00  0.00    -0.066 N 
HETATM    2  H   UNL     1      42.036 -18.094   5.635  1.00  0.00     0.278 HD
HETATM    3  H   UNL     1      42.898 -18.100   7.034  1.00  0.00     0.278 HD
ENDROOT
BRANCH   1   4
HETATM    4  C   UNL     1      43.961 -17.654   5.273  1.00  0.00     0.220 C 
HETATM    5  C   UNL     1      43.621 -18.301   3.965  1.00  0.00    -0.021 A 
HETATM    6  C   UNL     1      44.159 -19.596   3.872  1.00  0.00    -0.040 A 
HETATM    7  C   UNL     1      42.839 -17.773   2.946  1.00  0.00     0.010 A 
HETATM    8  C   UNL     1      43.962 -20.374   2.731  1.00  0.00    -0.055 A 
HETATM    9  C   UNL     1      44.910 -19.958   5.125  1.00  0.00     0.018 C 
HETATM   10  C   UNL     1      44.528 -21.755   2.588  1.00  0.00     0.049 C 
HETATM   11  C   UNL     1      43.165 -19.838   1.710  1.00  0.00     0.007 A 
HETATM   12  C   UNL     1      42.608 -18.554   1.816  1.00  0.00     0.001 A 
HETATM   13  C   UNL     1      45.065 -18.582   5.807  1.00  0.00     0.047 C 
HETATM   14  C   UNL     1      44.160 -20.957   5.999  1.00  0.00     0.015 C 
ENDBRANCH   1   4
BRANCH   1  15
HETATM   15  C   UNL     1      42.193 -16.241   6.451  1.00  0.00     0.240 C 
BRANCH  15  16
HETATM   16  C   UNL     1      42.979 -15.121   5.737  1.00  0.00     0.040 C 
BRANCH  16  17
HETATM   17  C   UNL     1      43.951 -14.445   6.716  1.00  0.00     0.170 C 
BRANCH  17  18
HETATM   18  O   UNL     1      43.996 -15.192   7.932  1.00  0.00    -0.400 OA
HETATM   19  H   UNL     1      43.745 -16.111   7.701  1.00  0.00     0.209 HD
ENDBRANCH  17  18
ENDBRANCH  16  17
BRANCH  16  20
HETATM   20  C   UNL     1      42.098 -14.040   5.066  1.00  0.00     0.067 C 
BRANCH  20  21
HETATM   21  C   UNL     1      41.594 -14.442   3.707  1.00  0.00     0.034 A 
HETATM   22  N   UNL     1      42.412 -14.147   2.657  1.00  0.00    -0.266 NA
HETATM   23  C   UNL     1      41.967 -14.503   1.426  1.00  0.00     0.117 A 
HETATM   24  C   UNL     1      40.741 -15.101   1.187  1.00  0.00     0.019 A 
HETATM   25  C   UNL     1      39.918 -15.368   2.274  1.00  0.00     0.003 A 
HETATM   26  C   UNL     1      40.345 -15.036   3.555  1.00  0.00     0.027 A 
ENDBRANCH  20  21
ENDBRANCH  16  20
ENDBRANCH  15  16
ENDBRANCH   1  15
TORSDOF 7
ENDMDL
MODEL 3
REMARK VINA RESULT:      -7.7      2.952      4.290
REMARK  7 active torsions:
REMARK  status: ('A' for Active; 'I' for Inactive)
REMARK    1  A    between atoms: C_5  and  N_6 
REMARK    2  A    between atoms: N_6  and  C_9 
REMARK    3  A    between atoms: C_9  and  C_10 
REMARK    4  A    between atoms: C_10  and  C_11 
REMARK    5  A    between atoms: C_10  and  C_13 
REMARK    6  A    between atoms: C_11  and  O_12 
REMARK    7  A    between atoms: C_13  and  C_14 
ROOT
HETATM    1  N   UNL     1      43.923 -16.609   5.748  1.00  0.00    -0.066 N 
HETATM    2  H   UNL     1      44.812 -17.139   5.775  1.00  0.00     0.278 HD
HETATM    3  H   UNL     1      44.068 -15.883   5.021  1.00  0.00     0.278 HD
ENDROOT
BRANCH   1   4
HETATM    4  C   UNL     1      42.906 -17.607   5.353  1.00  0.00     0.220 C 
HETATM    5  C   UNL     1      43.548 -18.918   5.013  1.00  0.00    -0.021 A 
HETATM    6  C   UNL     1      43.518 -19.166   3.630  1.00  0.00    -0.040 A 
HETATM    7  C   UNL     1      44.158 -19.806   5.889  1.00  0.00     0.010 A 
HETATM    8  C   UNL     1      44.061 -20.336   3.100  1.00  0.00    -0.055 A 
HETATM    9  C   UNL     1      42.861 -18.030   2.894  1.00  0.00     0.018 C 
HETATM   10  C   UNL     1      44.041 -20.643   1.632  1.00  0.00     0.049 C 
HETATM   11  C   UNL     1      44.683 -21.224   3.989  1.00  0.00     0.007 A 
HETATM   12  C   UNL     1      44.733 -20.962   5.367  1.00  0.00     0.001 A 
HETATM   13  C   UNL     1      42.174 -17.265   4.045  1.00  0.00     0.047 C 
HETATM   14  C   UNL     1      43.856 -17.162   2.132  1.00  0.00     0.015 C 
ENDBRANCH   1   4
BRANCH   1  15
HETATM   15  C   UNL     1      43.802 -15.950   7.074  1.00  0.00     0.240 C 
BRANCH  15  16
HETATM   16  C   UNL     1      43.836 -14.414   6.936  1.00  0.00     0.040 C 
BRANCH  16  17
HETATM   17  C   UNL     1      43.302 -13.991   5.559  1.00  0.00     0.170 C 
BRANCH  17  18
HETATM   18  O   UNL     1      44.398 -13.673   4.701  1.00  0.00    -0.400 OA
HETATM   19  H   UNL     1      44.384 -12.700   4.585  1.00  0.00     0.209 HD
ENDBRANCH  17  18
ENDBRANCH  16  17
BRANCH  16  20
HETATM   20  C   UNL     1      45.227 -13.776   7.160  1.00  0.00     0.067 C 
BRANCH  20  21
HETATM   21  C   UNL     1      45.285 -12.881   8.368  1.00  0.00     0.034 A 
HETATM   22  N   UNL     1      44.415 -13.181   9.374  1.00  0.00    -0.266 NA
HETATM   23  C   UNL     1      44.456 -12.380  10.468  1.00  0.00     0.117 A 
HETATM   24  C   UNL     1      45.292 -11.283  10.594  1.00  0.00     0.019 A 
HETATM   25  C   UNL     1      46.152 -10.987   9.544  1.00  0.00     0.003 A 
HETATM   26  C   UNL     1      46.154 -11.795   8.412  1.00  0.00     0.027 A 
ENDBRANCH  20  21
ENDBRANCH  16  20
ENDBRANCH  15  16
ENDBRANCH   1  15
TORSDOF 7
ENDMDL
MODEL 4
REMARK VINA RESULT:      -7.7      2.084      4.352
REMARK  7 active torsions:
REMARK  status: ('A' for Active; 'I' for Inactive)
REMARK    1  A    between atoms: C_5  and  N_6 
REMARK    2  A    between atoms: N_6  and  C_9 
REMARK    3  A    between atoms: C_9  and  C_10 
REMARK    4  A    between atoms: C_10  and  C_11 
REMARK    5  A    between atoms: C_10  and  C_13 
REMARK    6  A    between atoms: C_11  and  O_12 
REMARK    7  A    between atoms: C_13  and  C_14 
ROOT
HETATM    1  N   UNL     1      42.203 -17.820   3.887  1.00  0.00    -0.066 N 
HETATM    2  H   UNL     1      41.758 -18.247   3.055  1.00  0.00     0.278 HD
HETATM    3  H   UNL     1      41.800 -18.330   4.695  1.00  0.00     0.278 HD
ENDROOT
BRANCH   1   4
HETATM    4  C   UNL     1      43.647 -18.087   3.715  1.00  0.00     0.220 C 
HETATM    5  C   UNL     1      43.879 -19.493   3.253  1.00  0.00    -0.021 A 
HETATM    6  C   UNL     1      44.423 -20.292   4.273  1.00  0.00    -0.040 A 
HETATM    7  C   UNL     1      43.577 -20.028   2.006  1.00  0.00     0.010 A 
HETATM    8  C   UNL     1      44.719 -21.636   4.050  1.00  0.00    -0.055 A 
HETATM    9  C   UNL     1      44.599 -19.499   5.540  1.00  0.00     0.018 C 
HETATM   10  C   UNL     1      45.310 -22.519   5.109  1.00  0.00     0.049 C 
HETATM   11  C   UNL     1      44.404 -22.171   2.793  1.00  0.00     0.007 A 
HETATM   12  C   UNL     1      43.838 -21.378   1.784  1.00  0.00     0.001 A 
HETATM   13  C   UNL     1      44.446 -18.051   5.028  1.00  0.00     0.047 C 
HETATM   14  C   UNL     1      43.569 -19.849   6.607  1.00  0.00     0.015 C 
ENDBRANCH   1   4
BRANCH   1  15
HETATM   15  C   UNL     1      41.735 -16.410   3.920  1.00  0.00     0.240 C 
BRANCH  15  16
HETATM   16  C   UNL     1      40.749 -16.127   2.767  1.00  0.00     0.040 C 
BRANCH  16  17
HETATM   17  C   UNL     1      40.865 -17.214   1.687  1.00  0.00     0.170 C 
BRANCH  17  18
HETATM   18  O   UNL     1      41.978 -16.925   0.841  1.00  0.00    -0.400 OA
HETATM   19  H   UNL     1      41.944 -17.577   0.109  1.00  0.00     0.209 HD
ENDBRANCH  17  18
ENDBRANCH  16  17
BRANCH  16  20
HETATM   20  C   UNL     1      40.907 -14.736   2.108  1.00  0.00     0.067 C 
BRANCH  20  21
HETATM   21  C   UNL     1      39.834 -14.428   1.100  1.00  0.00     0.034 A 
HETATM   22  N   UNL     1      40.259 -14.225  -0.180  1.00  0.00    -0.266 NA
HETATM   23  C   UNL     1      39.301 -13.946  -1.098  1.00  0.00     0.117 A 
HETATM   24  C   UNL     1      37.954 -13.824  -0.800  1.00  0.00     0.019 A 
HETATM   25  C   UNL     1      37.552 -14.013   0.516  1.00  0.00     0.003 A 
HETATM   26  C   UNL     1      38.501 -14.320   1.485  1.00  0.00     0.027 A 
ENDBRANCH  20  21
ENDBRANCH  16  20
ENDBRANCH  15  16
ENDBRANCH   1  15
TORSDOF 7
ENDMDL
MODEL 5
REMARK VINA RESULT:      -7.6      1.775      3.652
REMARK  7 active torsions:
REMARK  status: ('A' for Active; 'I' for Inactive)
REMARK    1  A    between atoms: C_5  and  N_6 
REMARK    2  A    between atoms: N_6  and  C_9 
REMARK    3  A    between atoms: C_9  and  C_10 
REMARK    4  A    between atoms: C_10  and  C_11 
REMARK    5  A    between atoms: C_10  and  C_13 
REMARK    6  A    between atoms: C_11  and  O_12 
REMARK    7  A    between atoms: C_13  and  C_14 
ROOT
HETATM    1  N   UNL     1      42.058 -17.770   4.321  1.00  0.00    -0.066 N 
HETATM    2  H   UNL     1      41.669 -17.502   3.399  1.00  0.00     0.278 HD
HETATM    3  H   UNL     1      41.574 -18.654   4.567  1.00  0.00     0.278 HD
ENDROOT
BRANCH   1   4
HETATM    4  C   UNL     1      43.502 -17.966   4.074  1.00  0.00     0.220 C 
HETATM    5  C   UNL     1      43.764 -19.316   3.480  1.00  0.00    -0.021 A 
HETATM    6  C   UNL     1      44.375 -20.180   4.404  1.00  0.00    -0.040 A 
HETATM    7  C   UNL     1      43.432 -19.750   2.203  1.00  0.00     0.010 A 
HETATM    8  C   UNL     1      44.709 -21.487   4.053  1.00  0.00    -0.055 A 
HETATM    9  C   UNL     1      44.574 -19.495   5.730  1.00  0.00     0.018 C 
HETATM   10  C   UNL     1      45.371 -22.436   5.007  1.00  0.00     0.049 C 
HETATM   11  C   UNL     1      44.363 -21.921   2.765  1.00  0.00     0.007 A 
HETATM   12  C   UNL     1      43.731 -21.065   1.852  1.00  0.00     0.001 A 
HETATM   13  C   UNL     1      44.351 -18.014   5.355  1.00  0.00     0.047 C 
HETATM   14  C   UNL     1      43.600 -19.976   6.799  1.00  0.00     0.015 C 
ENDBRANCH   1   4
BRANCH   1  15
HETATM   15  C   UNL     1      41.631 -16.705   5.266  1.00  0.00     0.240 C 
BRANCH  15  16
HETATM   16  C   UNL     1      41.432 -15.361   4.533  1.00  0.00     0.040 C 
BRANCH  16  17
HETATM   17  C   UNL     1      41.336 -14.211   5.547  1.00  0.00     0.170 C 
BRANCH  17  18
HETATM   18  O   UNL     1      40.295 -14.489   6.483  1.00  0.00    -0.400 OA
HETATM   19  H   UNL     1      39.450 -14.358   6.003  1.00  0.00     0.209 HD
ENDBRANCH  17  18
ENDBRANCH  16  17
BRANCH  16  20
HETATM   20  C   UNL     1      40.205 -15.314   3.592  1.00  0.00     0.067 C 
BRANCH  20  21
HETATM   21  C   UNL     1      40.570 -15.370   2.133  1.00  0.00     0.034 A 
HETATM   22  N   UNL     1      41.143 -16.531   1.707  1.00  0.00    -0.266 NA
HETATM   23  C   UNL     1      41.477 -16.592   0.394  1.00  0.00     0.117 A 
HETATM   24  C   UNL     1      41.303 -15.549  -0.501  1.00  0.00     0.019 A 
HETATM   25  C   UNL     1      40.738 -14.370  -0.032  1.00  0.00     0.003 A 
HETATM   26  C   UNL     1      40.364 -14.273   1.303  1.00  0.00     0.027 A 
ENDBRANCH  20  21
ENDBRANCH  16  20
ENDBRANCH  15  16
ENDBRANCH   1  15
TORSDOF 7
ENDMDL
MODEL 6
REMARK VINA RESULT:      -7.5      2.328      2.868
REMARK  7 active torsions:
REMARK  status: ('A' for Active; 'I' for Inactive)
REMARK    1  A    between atoms: C_5  and  N_6 
REMARK    2  A    between atoms: N_6  and  C_9 
REMARK    3  A    between atoms: C_9  and  C_10 
REMARK    4  A    between atoms: C_10  and  C_11 
REMARK    5  A    between atoms: C_10  and  C_13 
REMARK    6  A    between atoms: C_11  and  O_12 
REMARK    7  A    between atoms: C_13  and  C_14 
ROOT
HETATM    1  N   UNL     1      42.034 -17.851   4.306  1.00  0.00    -0.066 N 
HETATM    2  H   UNL     1      41.577 -18.656   3.839  1.00  0.00     0.278 HD
HETATM    3  H   UNL     1      41.804 -17.962   5.311  1.00  0.00     0.278 HD
ENDROOT
BRANCH   1   4
HETATM    4  C   UNL     1      43.476 -18.032   4.034  1.00  0.00     0.220 C 
HETATM    5  C   UNL     1      43.743 -19.383   3.442  1.00  0.00    -0.021 A 
HETATM    6  C   UNL     1      44.381 -20.234   4.361  1.00  0.00    -0.040 A 
HETATM    7  C   UNL     1      43.392 -19.829   2.174  1.00  0.00     0.010 A 
HETATM    8  C   UNL     1      44.723 -21.540   4.010  1.00  0.00    -0.055 A 
HETATM    9  C   UNL     1      44.595 -19.539   5.678  1.00  0.00     0.018 C 
HETATM   10  C   UNL     1      45.413 -22.475   4.958  1.00  0.00     0.049 C 
HETATM   11  C   UNL     1      44.358 -21.985   2.732  1.00  0.00     0.007 A 
HETATM   12  C   UNL     1      43.700 -21.141   1.825  1.00  0.00     0.001 A 
HETATM   13  C   UNL     1      44.348 -18.063   5.299  1.00  0.00     0.047 C 
HETATM   14  C   UNL     1      43.646 -20.025   6.767  1.00  0.00     0.015 C 
ENDBRANCH   1   4
BRANCH   1  15
HETATM   15  C   UNL     1      41.354 -16.638   3.783  1.00  0.00     0.240 C 
BRANCH  15  16
HETATM   16  C   UNL     1      41.340 -15.512   4.837  1.00  0.00     0.040 C 
BRANCH  16  17
HETATM   17  C   UNL     1      41.187 -16.103   6.247  1.00  0.00     0.170 C 
BRANCH  17  18
HETATM   18  O   UNL     1      39.947 -16.804   6.335  1.00  0.00    -0.400 OA
HETATM   19  H   UNL     1      39.793 -17.206   5.454  1.00  0.00     0.209 HD
ENDBRANCH  17  18
ENDBRANCH  16  17
BRANCH  16  20
HETATM   20  C   UNL     1      40.253 -14.433   4.617  1.00  0.00     0.067 C 
BRANCH  20  21
HETATM   21  C   UNL     1      40.377 -13.261   5.553  1.00  0.00     0.034 A 
HETATM   22  N   UNL     1      41.590 -12.638   5.569  1.00  0.00    -0.266 NA
HETATM   23  C   UNL     1      41.714 -11.581   6.410  1.00  0.00     0.117 A 
HETATM   24  C   UNL     1      40.709 -11.140   7.255  1.00  0.00     0.019 A 
HETATM   25  C   UNL     1      39.492 -11.809   7.234  1.00  0.00     0.003 A 
HETATM   26  C   UNL     1      39.317 -12.886   6.372  1.00  0.00     0.027 A 
ENDBRANCH  20  21
ENDBRANCH  16  20
ENDBRANCH  15  16
ENDBRANCH   1  15
TORSDOF 7
ENDMDL
MODEL 7
REMARK VINA RESULT:      -7.4      2.325      4.230
REMARK  7 active torsions:
REMARK  status: ('A' for Active; 'I' for Inactive)
REMARK    1  A    between atoms: C_5  and  N_6 
REMARK    2  A    between atoms: N_6  and  C_9 
REMARK    3  A    between atoms: C_9  and  C_10 
REMARK    4  A    between atoms: C_10  and  C_11 
REMARK    5  A    between atoms: C_10  and  C_13 
REMARK    6  A    between atoms: C_11  and  O_12 
REMARK    7  A    between atoms: C_13  and  C_14 
ROOT
HETATM    1  N   UNL     1      43.796 -16.638   4.859  1.00  0.00    -0.066 N 
HETATM    2  H   UNL     1      44.723 -17.096   4.798  1.00  0.00     0.278 HD
HETATM    3  H   UNL     1      43.803 -15.922   4.108  1.00  0.00     0.278 HD
ENDROOT
BRANCH   1   4
HETATM    4  C   UNL     1      42.826 -17.722   4.596  1.00  0.00     0.220 C 
HETATM    5  C   UNL     1      43.515 -19.051   4.526  1.00  0.00    -0.021 A 
HETATM    6  C   UNL     1      43.569 -19.538   3.210  1.00  0.00    -0.040 A 
HETATM    7  C   UNL     1      44.095 -19.751   5.576  1.00  0.00     0.010 A 
HETATM    8  C   UNL     1      44.167 -20.765   2.923  1.00  0.00    -0.055 A 
HETATM    9  C   UNL     1      42.928 -18.571   2.251  1.00  0.00     0.018 C 
HETATM   10  C   UNL     1      44.235 -21.325   1.534  1.00  0.00     0.049 C 
HETATM   11  C   UNL     1      44.758 -21.463   3.986  1.00  0.00     0.007 A 
HETATM   12  C   UNL     1      44.724 -20.962   5.296  1.00  0.00     0.001 A 
HETATM   13  C   UNL     1      42.161 -17.638   3.212  1.00  0.00     0.047 C 
HETATM   14  C   UNL     1      43.944 -17.818   1.400  1.00  0.00     0.015 C 
ENDBRANCH   1   4
BRANCH   1  15
HETATM   15  C   UNL     1      43.766 -15.957   6.179  1.00  0.00     0.240 C 
BRANCH  15  16
HETATM   16  C   UNL     1      44.023 -14.443   6.028  1.00  0.00     0.040 C 
BRANCH  16  17
HETATM   17  C   UNL     1      44.767 -13.902   7.259  1.00  0.00     0.170 C 
BRANCH  17  18
HETATM   18  O   UNL     1      43.928 -12.979   7.953  1.00  0.00    -0.400 OA
HETATM   19  H   UNL     1      43.270 -13.517   8.442  1.00  0.00     0.209 HD
ENDBRANCH  17  18
ENDBRANCH  16  17
BRANCH  16  20
HETATM   20  C   UNL     1      42.754 -13.592   5.786  1.00  0.00     0.067 C 
BRANCH  20  21
HETATM   21  C   UNL     1      42.099 -13.862   4.458  1.00  0.00     0.034 A 
HETATM   22  N   UNL     1      42.912 -13.783   3.367  1.00  0.00    -0.266 NA
HETATM   23  C   UNL     1      42.333 -14.023   2.164  1.00  0.00     0.117 A 
HETATM   24  C   UNL     1      40.987 -14.301   1.993  1.00  0.00     0.019 A 
HETATM   25  C   UNL     1      40.178 -14.352   3.121  1.00  0.00     0.003 A 
HETATM   26  C   UNL     1      40.737 -14.131   4.375  1.00  0.00     0.027 A 
ENDBRANCH  20  21
ENDBRANCH  16  20
ENDBRANCH  15  16
ENDBRANCH   1  15
TORSDOF 7
ENDMDL
MODEL 8
REMARK VINA RESULT:      -7.2      3.502      6.041
REMARK  7 active torsions:
REMARK  status: ('A' for Active; 'I' for Inactive)
REMARK    1  A    between atoms: C_5  and  N_6 
REMARK    2  A    between atoms: N_6  and  C_9 
REMARK    3  A    between atoms: C_9  and  C_10 
REMARK    4  A    between atoms: C_10  and  C_11 
REMARK    5  A    between atoms: C_10  and  C_13 
REMARK    6  A    between atoms: C_11  and  O_12 
REMARK    7  A    between atoms: C_13  and  C_14 
ROOT
HETATM    1  N   UNL     1      41.456 -15.516   2.757  1.00  0.00    -0.066 N 
HETATM    2  H   UNL     1      41.712 -15.269   3.730  1.00  0.00     0.278 HD
HETATM    3  H   UNL     1      42.319 -15.354   2.206  1.00  0.00     0.278 HD
ENDROOT
BRANCH   1   4
HETATM    4  C   UNL     1      41.085 -16.945   2.820  1.00  0.00     0.220 C 
HETATM    5  C   UNL     1      41.960 -17.682   3.789  1.00  0.00    -0.021 A 
HETATM    6  C   UNL     1      42.871 -18.523   3.128  1.00  0.00    -0.040 A 
HETATM    7  C   UNL     1      41.963 -17.566   5.173  1.00  0.00     0.010 A 
HETATM    8  C   UNL     1      43.777 -19.303   3.846  1.00  0.00    -0.055 A 
HETATM    9  C   UNL     1      42.709 -18.425   1.635  1.00  0.00     0.018 C 
HETATM   10  C   UNL     1      44.758 -20.221   3.179  1.00  0.00     0.049 C 
HETATM   11  C   UNL     1      43.781 -19.175   5.242  1.00  0.00     0.007 A 
HETATM   12  C   UNL     1      42.886 -18.316   5.898  1.00  0.00     0.001 A 
HETATM   13  C   UNL     1      41.344 -17.713   1.514  1.00  0.00     0.047 C 
HETATM   14  C   UNL     1      43.833 -17.642   0.966  1.00  0.00     0.015 C 
ENDBRANCH   1   4
BRANCH   1  15
HETATM   15  C   UNL     1      40.425 -14.527   2.347  1.00  0.00     0.240 C 
BRANCH  15  16
HETATM   16  C   UNL     1      40.897 -13.709   1.126  1.00  0.00     0.040 C 
BRANCH  16  17
HETATM   17  C   UNL     1      41.581 -12.412   1.586  1.00  0.00     0.170 C 
BRANCH  17  18
HETATM   18  O   UNL     1      42.827 -12.728   2.207  1.00  0.00    -0.400 OA
HETATM   19  H   UNL     1      43.120 -13.580   1.821  1.00  0.00     0.209 HD
ENDBRANCH  17  18
ENDBRANCH  16  17
BRANCH  16  20
HETATM   20  C   UNL     1      39.783 -13.364   0.110  1.00  0.00     0.067 C 
BRANCH  20  21
HETATM   21  C   UNL     1      39.875 -14.154  -1.167  1.00  0.00     0.034 A 
HETATM   22  N   UNL     1      38.888 -13.926  -2.081  1.00  0.00    -0.266 NA
HETATM   23  C   UNL     1      38.960 -14.633  -3.236  1.00  0.00     0.117 A 
HETATM   24  C   UNL     1      39.938 -15.575  -3.509  1.00  0.00     0.019 A 
HETATM   25  C   UNL     1      40.916 -15.804  -2.550  1.00  0.00     0.003 A 
HETATM   26  C   UNL     1      40.890 -15.085  -1.360  1.00  0.00     0.027 A 
ENDBRANCH  20  21
ENDBRANCH  16  20
ENDBRANCH  15  16
ENDBRANCH   1  15
TORSDOF 7
ENDMDL
MODEL 9
REMARK VINA RESULT:      -7.1      3.546      5.958
REMARK  7 active torsions:
REMARK  status: ('A' for Active; 'I' for Inactive)
REMARK    1  A    between atoms: C_5  and  N_6 
REMARK    2  A    between atoms: N_6  and  C_9 
REMARK    3  A    between atoms: C_9  and  C_10 
REMARK    4  A    between atoms: C_10  and  C_11 
REMARK    5  A    between atoms: C_10  and  C_13 
REMARK    6  A    between atoms: C_11  and  O_12 
REMARK    7  A    between atoms: C_13  and  C_14 
ROOT
HETATM    1  N   UNL     1      41.888 -15.727   2.663  1.00  0.00    -0.066 N 
HETATM    2  H   UNL     1      41.679 -16.641   2.223  1.00  0.00     0.278 HD
HETATM    3  H   UNL     1      41.148 -15.602   3.379  1.00  0.00     0.278 HD
ENDROOT
BRANCH   1   4
HETATM    4  C   UNL     1      43.228 -15.899   3.260  1.00  0.00     0.220 C 
HETATM    5  C   UNL     1      43.632 -17.342   3.264  1.00  0.00    -0.021 A 
HETATM    6  C   UNL     1      43.598 -17.886   4.559  1.00  0.00    -0.040 A 
HETATM    7  C   UNL     1      43.962 -18.124   2.165  1.00  0.00     0.010 A 
HETATM    8  C   UNL     1      43.941 -19.219   4.786  1.00  0.00    -0.055 A 
HETATM    9  C   UNL     1      43.152 -16.858   5.563  1.00  0.00     0.018 C 
HETATM   10  C   UNL     1      43.929 -19.835   6.153  1.00  0.00     0.049 C 
HETATM   11  C   UNL     1      44.266 -20.005   3.670  1.00  0.00     0.007 A 
HETATM   12  C   UNL     1      44.275 -19.465   2.376  1.00  0.00     0.001 A 
HETATM   13  C   UNL     1      43.292 -15.550   4.756  1.00  0.00     0.047 C 
HETATM   14  C   UNL     1      41.728 -17.087   6.055  1.00  0.00     0.015 C 
ENDBRANCH   1   4
BRANCH   1  15
HETATM   15  C   UNL     1      41.706 -14.711   1.594  1.00  0.00     0.240 C 
BRANCH  15  16
HETATM   16  C   UNL     1      41.006 -15.321   0.362  1.00  0.00     0.040 C 
BRANCH  16  17
HETATM   17  C   UNL     1      41.417 -16.792   0.190  1.00  0.00     0.170 C 
BRANCH  17  18
HETATM   18  O   UNL     1      40.507 -17.626   0.906  1.00  0.00    -0.400 OA
HETATM   19  H   UNL     1      40.833 -18.545   0.799  1.00  0.00     0.209 HD
ENDBRANCH  17  18
ENDBRANCH  16  17
BRANCH  16  20
HETATM   20  C   UNL     1      41.254 -14.564  -0.964  1.00  0.00     0.067 C 
BRANCH  20  21
HETATM   21  C   UNL     1      40.183 -14.798  -1.994  1.00  0.00     0.034 A 
HETATM   22  N   UNL     1      39.001 -14.151  -1.782  1.00  0.00    -0.266 NA
HETATM   23  C   UNL     1      38.027 -14.356  -2.704  1.00  0.00     0.117 A 
HETATM   24  C   UNL     1      38.159 -15.194  -3.799  1.00  0.00     0.019 A 
HETATM   25  C   UNL     1      39.366 -15.858  -3.976  1.00  0.00     0.003 A 
HETATM   26  C   UNL     1      40.397 -15.661  -3.065  1.00  0.00     0.027 A 
ENDBRANCH  20  21
ENDBRANCH  16  20
ENDBRANCH  15  16
ENDBRANCH   1  15
TORSDOF 7
ENDMDL
MODEL 10
REMARK VINA RESULT:      -7.0      1.992      3.428
REMARK  7 active torsions:
REMARK  status: ('A' for Active; 'I' for Inactive)
REMARK    1  A    between atoms: C_5  and  N_6 
REMARK    2  A    between atoms: N_6  and  C_9 
REMARK    3  A    between atoms: C_9  and  C_10 
REMARK    4  A    between atoms: C_10  and  C_11 
REMARK    5  A    between atoms: C_10  and  C_13 
REMARK    6  A    between atoms: C_11  and  O_12 
REMARK    7  A    between atoms: C_13  and  C_14 
ROOT
HETATM    1  N   UNL     1      43.099 -17.934   6.179  1.00  0.00    -0.066 N 
HETATM    2  H   UNL     1      42.266 -18.024   5.570  1.00  0.00     0.278 HD
HETATM    3  H   UNL     1      43.052 -18.750   6.817  1.00  0.00     0.278 HD
ENDROOT
BRANCH   1   4
HETATM    4  C   UNL     1      44.248 -18.008   5.252  1.00  0.00     0.220 C 
HETATM    5  C   UNL     1      43.827 -18.553   3.921  1.00  0.00    -0.021 A 
HETATM    6  C   UNL     1      44.299 -19.861   3.723  1.00  0.00    -0.040 A 
HETATM    7  C   UNL     1      43.032 -17.925   2.971  1.00  0.00     0.010 A 
HETATM    8  C   UNL     1      44.022 -20.553   2.545  1.00  0.00    -0.055 A 
HETATM    9  C   UNL     1      45.080 -20.337   4.918  1.00  0.00     0.018 C 
HETATM   10  C   UNL     1      44.516 -21.946   2.291  1.00  0.00     0.049 C 
HETATM   11  C   UNL     1      43.212 -19.916   1.594  1.00  0.00     0.007 A 
HETATM   12  C   UNL     1      42.721 -18.619   1.804  1.00  0.00     0.001 A 
HETATM   13  C   UNL     1      45.327 -19.017   5.679  1.00  0.00     0.047 C 
HETATM   14  C   UNL     1      44.318 -21.357   5.757  1.00  0.00     0.015 C 
ENDBRANCH   1   4
BRANCH   1  15
HETATM   15  C   UNL     1      42.893 -16.690   6.965  1.00  0.00     0.240 C 
BRANCH  15  16
HETATM   16  C   UNL     1      41.678 -15.897   6.440  1.00  0.00     0.040 C 
BRANCH  16  17
HETATM   17  C   UNL     1      40.449 -16.812   6.336  1.00  0.00     0.170 C 
BRANCH  17  18
HETATM   18  O   UNL     1      40.427 -17.432   5.050  1.00  0.00    -0.400 OA
HETATM   19  H   UNL     1      40.604 -16.722   4.398  1.00  0.00     0.209 HD
ENDBRANCH  17  18
ENDBRANCH  16  17
BRANCH  16  20
HETATM   20  C   UNL     1      41.905 -15.191   5.082  1.00  0.00     0.067 C 
BRANCH  20  21
HETATM   21  C   UNL     1      41.213 -13.859   4.979  1.00  0.00     0.034 A 
HETATM   22  N   UNL     1      41.741 -12.853   5.733  1.00  0.00    -0.266 NA
HETATM   23  C   UNL     1      41.125 -11.648   5.650  1.00  0.00     0.117 A 
HETATM   24  C   UNL     1      39.996 -11.405   4.886  1.00  0.00     0.019 A 
HETATM   25  C   UNL     1      39.465 -12.455   4.147  1.00  0.00     0.003 A 
HETATM   26  C   UNL     1      40.079 -13.702   4.189  1.00  0.00     0.027 A 
ENDBRANCH  20  21
ENDBRANCH  16  20
ENDBRANCH  15  16
ENDBRANCH   1  15
TORSDOF 7
ENDMDL
