MODEL 1
REMARK VINA RESULT:      -9.2      0.000      0.000
REMARK  5 active torsions:
REMARK  status: ('A' for Active; 'I' for Inactive)
REMARK    1  A    between atoms: C_7  and  N_8 
REMARK    2  A    between atoms: N_8  and  C_9 
REMARK    3  A    between atoms: C_11  and  C_12 
REMARK       I    between atoms: C_12  and  N_13 
REMARK    4  A    between atoms: N_13  and  C_14 
REMARK    5  A    between atoms: C_14  and  C_15 
ROOT
HETATM    1  C   UNL     1      42.333 -15.927   2.636  1.00  0.00     0.142 A 
HETATM    2  N   UNL     1      41.814 -15.474   1.461  1.00  0.00    -0.225 NA
HETATM    3  C   UNL     1      40.641 -14.773   1.443  1.00  0.00     0.129 A 
HETATM    4  C   UNL     1      39.875 -14.465   2.551  1.00  0.00     0.075 A 
HETATM    5  C   UNL     1      40.407 -14.956   3.726  1.00  0.00     0.091 A 
HETATM    6  C   UNL     1      41.596 -15.670   3.816  1.00  0.00     0.046 A 
HETATM    7  O   UNL     1      39.844 -14.809   4.957  1.00  0.00    -0.322 OA
HETATM    8  C   UNL     1      40.662 -15.424   5.847  1.00  0.00     0.143 A 
HETATM    9  C   UNL     1      41.750 -15.966   5.204  1.00  0.00     0.042 A 
ENDROOT
BRANCH   3  10
HETATM   10  C   UNL     1      40.172 -14.313   0.095  1.00  0.00     0.270 C 
HETATM   11  N   UNL     1      41.078 -14.502  -0.921  1.00  0.00    -0.351 N 
HETATM   12  H   UNL     1      41.989 -14.869  -0.665  1.00  0.00     0.163 HD
HETATM   13  O   UNL     1      39.063 -13.816  -0.062  1.00  0.00    -0.266 OA
BRANCH  11  14
HETATM   14  C   UNL     1      40.837 -14.036  -2.263  1.00  0.00     0.165 C 
BRANCH  14  15
HETATM   15  C   UNL     1      39.941 -15.002  -2.947  1.00  0.00     0.002 A 
HETATM   16  C   UNL     1      38.632 -14.790  -3.464  1.00  0.00     0.060 A 
HETATM   17  C   UNL     1      37.820 -13.547  -3.454  1.00  0.00     0.073 C 
HETATM   18  N   UNL     1      38.122 -15.905  -4.003  1.00  0.00    -0.180 NA
HETATM   19  N   UNL     1      39.081 -16.823  -3.829  1.00  0.00    -0.288 N 
HETATM   20  H   UNL     1      38.911 -17.768  -4.159  1.00  0.00     0.188 HD
HETATM   21  C   UNL     1      40.188 -16.337  -3.204  1.00  0.00     0.120 A 
ENDBRANCH  14  15
ENDBRANCH  11  14
ENDBRANCH   3  10
BRANCH   1  22
HETATM   22  N   UNL     1      43.539 -16.642   2.691  1.00  0.00    -0.340 N 
HETATM   23  H   UNL     1      44.324 -16.119   2.329  1.00  0.00     0.167 HD
BRANCH  22  24
HETATM   24  C   UNL     1      43.861 -17.950   3.087  1.00  0.00     0.034 A 
HETATM   25  C   UNL     1      44.255 -18.166   4.416  1.00  0.00     0.031 A 
HETATM   26  C   UNL     1      44.553 -19.447   4.888  1.00  0.00     0.022 A 
HETATM   27  C   UNL     1      44.452 -20.547   4.035  1.00  0.00     0.017 A 
HETATM   28  C   UNL     1      44.061 -20.371   2.703  1.00  0.00    -0.043 A 
HETATM   29 BR   UNL     1      44.858 -22.256   4.754  1.00  0.00    -0.051 Br
HETATM   30  C   UNL     1      43.922 -21.522   1.744  1.00  0.00     0.049 C 
HETATM   31  C   UNL     1      43.772 -19.068   2.251  1.00  0.00     0.037 A 
ENDBRANCH  22  24
ENDBRANCH   1  22
TORSDOF 5
ENDMDL
MODEL 2
REMARK VINA RESULT:      -8.8      0.672      1.327
REMARK  5 active torsions:
REMARK  status: ('A' for Active; 'I' for Inactive)
REMARK    1  A    between atoms: C_7  and  N_8 
REMARK    2  A    between atoms: N_8  and  C_9 
REMARK    3  A    between atoms: C_11  and  C_12 
REMARK       I    between atoms: C_12  and  N_13 
REMARK    4  A    between atoms: N_13  and  C_14 
REMARK    5  A    between atoms: C_14  and  C_15 
ROOT
HETATM    1  C   UNL     1      42.200 -15.504   2.702  1.00  0.00     0.142 A 
HETATM    2  N   UNL     1      41.751 -15.029   1.507  1.00  0.00    -0.225 NA
HETATM    3  C   UNL     1      40.608 -14.281   1.440  1.00  0.00     0.129 A 
HETATM    4  C   UNL     1      39.808 -13.945   2.515  1.00  0.00     0.075 A 
HETATM    5  C   UNL     1      40.269 -14.458   3.710  1.00  0.00     0.091 A 
HETATM    6  C   UNL     1      41.423 -15.218   3.849  1.00  0.00     0.046 A 
HETATM    7  O   UNL     1      39.660 -14.290   4.916  1.00  0.00    -0.322 OA
HETATM    8  C   UNL     1      40.413 -14.938   5.839  1.00  0.00     0.143 A 
HETATM    9  C   UNL     1      41.506 -15.522   5.242  1.00  0.00     0.042 A 
ENDROOT
BRANCH   3  10
HETATM   10  C   UNL     1      40.217 -13.802   0.075  1.00  0.00     0.270 C 
HETATM   11  N   UNL     1      40.925 -14.371  -0.956  1.00  0.00    -0.351 N 
HETATM   12  H   UNL     1      41.678 -15.004  -0.705  1.00  0.00     0.163 HD
HETATM   13  O   UNL     1      39.330 -12.971  -0.082  1.00  0.00    -0.266 OA
BRANCH  11  14
HETATM   14  C   UNL     1      40.751 -13.962  -2.327  1.00  0.00     0.165 C 
BRANCH  14  15
HETATM   15  C   UNL     1      39.842 -14.927  -2.997  1.00  0.00     0.002 A 
HETATM   16  C   UNL     1      38.499 -14.734  -3.427  1.00  0.00     0.060 A 
HETATM   17  C   UNL     1      37.654 -13.518  -3.316  1.00  0.00     0.073 C 
HETATM   18  N   UNL     1      37.989 -15.841  -3.982  1.00  0.00    -0.180 NA
HETATM   19  N   UNL     1      38.982 -16.736  -3.903  1.00  0.00    -0.288 N 
HETATM   20  H   UNL     1      38.818 -17.671  -4.263  1.00  0.00     0.188 HD
HETATM   21  C   UNL     1      40.110 -16.242  -3.324  1.00  0.00     0.120 A 
ENDBRANCH  14  15
ENDBRANCH  11  14
ENDBRANCH   3  10
BRANCH   1  22
HETATM   22  N   UNL     1      43.373 -16.265   2.806  1.00  0.00    -0.340 N 
HETATM   23  H   UNL     1      44.213 -15.707   2.747  1.00  0.00     0.167 HD
BRANCH  22  24
HETATM   24  C   UNL     1      43.615 -17.645   2.915  1.00  0.00     0.034 A 
HETATM   25  C   UNL     1      43.553 -18.425   1.750  1.00  0.00     0.031 A 
HETATM   26  C   UNL     1      43.820 -19.797   1.780  1.00  0.00     0.022 A 
HETATM   27  C   UNL     1      44.165 -20.416   2.981  1.00  0.00     0.017 A 
HETATM   28  C   UNL     1      44.238 -19.670   4.163  1.00  0.00    -0.043 A 
HETATM   29 BR   UNL     1      44.528 -22.279   2.936  1.00  0.00    -0.051 Br
HETATM   30  C   UNL     1      44.620 -20.283   5.482  1.00  0.00     0.049 C 
HETATM   31  C   UNL     1      43.959 -18.290   4.107  1.00  0.00     0.037 A 
ENDBRANCH  22  24
ENDBRANCH   1  22
TORSDOF 5
ENDMDL
MODEL 3
REMARK VINA RESULT:      -8.7      1.184      1.741
REMARK  5 active torsions:
REMARK  status: ('A' for Active; 'I' for Inactive)
REMARK    1  A    between atoms: C_7  and  N_8 
REMARK    2  A    between atoms: N_8  and  C_9 
REMARK    3  A    between atoms: C_11  and  C_12 
REMARK       I    between atoms: C_12  and  N_13 
REMARK    4  A    between atoms: N_13  and  C_14 
REMARK    5  A    between atoms: C_14  and  C_15 
ROOT
HETATM    1  C   UNL     1      42.228 -16.016   2.564  1.00  0.00     0.142 A 
HETATM    2  N   UNL     1      41.640 -15.724   1.371  1.00  0.00    -0.225 NA
HETATM    3  C   UNL     1      40.456 -15.042   1.327  1.00  0.00     0.129 A 
HETATM    4  C   UNL     1      39.745 -14.601   2.427  1.00  0.00     0.075 A 
HETATM    5  C   UNL     1      40.347 -14.931   3.624  1.00  0.00     0.091 A 
HETATM    6  C   UNL     1      41.550 -15.615   3.739  1.00  0.00     0.046 A 
HETATM    7  O   UNL     1      39.848 -14.630   4.854  1.00  0.00    -0.322 OA
HETATM    8  C   UNL     1      40.721 -15.117   5.770  1.00  0.00     0.143 A 
HETATM    9  C   UNL     1      41.783 -15.727   5.144  1.00  0.00     0.042 A 
ENDROOT
BRANCH   3  10
HETATM   10  C   UNL     1      39.909 -14.765  -0.041  1.00  0.00     0.270 C 
HETATM   11  N   UNL     1      40.578 -15.395  -1.063  1.00  0.00    -0.351 N 
HETATM   12  H   UNL     1      41.405 -15.929  -0.814  1.00  0.00     0.163 HD
HETATM   13  O   UNL     1      38.939 -14.035  -0.207  1.00  0.00    -0.266 OA
BRANCH  11  14
HETATM   14  C   UNL     1      40.253 -15.171  -2.449  1.00  0.00     0.165 C 
BRANCH  14  15
HETATM   15  C   UNL     1      40.959 -13.949  -2.910  1.00  0.00     0.002 A 
HETATM   16  C   UNL     1      40.404 -12.721  -3.371  1.00  0.00     0.060 A 
HETATM   17  C   UNL     1      38.976 -12.342  -3.512  1.00  0.00     0.073 C 
HETATM   18  N   UNL     1      41.356 -11.845  -3.719  1.00  0.00    -0.180 NA
HETATM   19  N   UNL     1      42.503 -12.499  -3.497  1.00  0.00    -0.288 N 
HETATM   20  H   UNL     1      43.377 -12.024  -3.702  1.00  0.00     0.188 HD
HETATM   21  C   UNL     1      42.323 -13.758  -3.014  1.00  0.00     0.120 A 
ENDBRANCH  14  15
ENDBRANCH  11  14
ENDBRANCH   3  10
BRANCH   1  22
HETATM   22  N   UNL     1      43.447 -16.705   2.644  1.00  0.00    -0.340 N 
HETATM   23  H   UNL     1      44.228 -16.170   2.291  1.00  0.00     0.167 HD
BRANCH  22  24
HETATM   24  C   UNL     1      43.789 -18.004   3.058  1.00  0.00     0.034 A 
HETATM   25  C   UNL     1      44.151 -18.202   4.399  1.00  0.00     0.031 A 
HETATM   26  C   UNL     1      44.465 -19.474   4.886  1.00  0.00     0.022 A 
HETATM   27  C   UNL     1      44.415 -20.580   4.037  1.00  0.00     0.017 A 
HETATM   28  C   UNL     1      44.057 -20.421   2.694  1.00  0.00    -0.043 A 
HETATM   29 BR   UNL     1      44.840 -22.276   4.778  1.00  0.00    -0.051 Br
HETATM   30  C   UNL     1      43.971 -21.580   1.739  1.00  0.00     0.049 C 
HETATM   31  C   UNL     1      43.750 -19.127   2.226  1.00  0.00     0.037 A 
ENDBRANCH  22  24
ENDBRANCH   1  22
TORSDOF 5
ENDMDL
MODEL 4
REMARK VINA RESULT:      -8.6      1.776      2.326
REMARK  5 active torsions:
REMARK  status: ('A' for Active; 'I' for Inactive)
REMARK    1  A    between atoms: C_7  and  N_8 
REMARK    2  A    between atoms: N_8  and  C_9 
REMARK    3  A    between atoms: C_11  and  C_12 
REMARK       I    between atoms: C_12  and  N_13 
REMARK    4  A    between atoms: N_13  and  C_14 
REMARK    5  A    between atoms: C_14  and  C_15 
ROOT
HETATM    1  C   UNL     1      42.524 -14.967   3.523  1.00  0.00     0.142 A 
HETATM    2  N   UNL     1      42.514 -14.230   2.377  1.00  0.00    -0.225 NA
HETATM    3  C   UNL     1      41.547 -13.288   2.165  1.00  0.00     0.129 A 
HETATM    4  C   UNL     1      40.513 -12.992   3.032  1.00  0.00     0.075 A 
HETATM    5  C   UNL     1      40.529 -13.768   4.173  1.00  0.00     0.091 A 
HETATM    6  C   UNL     1      41.484 -14.737   4.454  1.00  0.00     0.046 A 
HETATM    7  O   UNL     1      39.615 -13.692   5.179  1.00  0.00    -0.322 OA
HETATM    8  C   UNL     1      39.972 -14.607   6.114  1.00  0.00     0.143 A 
HETATM    9  C   UNL     1      41.110 -15.274   5.723  1.00  0.00     0.042 A 
ENDROOT
BRANCH   3  10
HETATM   10  C   UNL     1      41.643 -12.529   0.875  1.00  0.00     0.270 C 
HETATM   11  N   UNL     1      40.543 -12.643   0.060  1.00  0.00    -0.351 N 
HETATM   12  H   UNL     1      39.805 -13.269   0.366  1.00  0.00     0.163 HD
HETATM   13  O   UNL     1      42.634 -11.864   0.597  1.00  0.00    -0.266 OA
BRANCH  11  14
HETATM   14  C   UNL     1      40.498 -12.061  -1.257  1.00  0.00     0.165 C 
BRANCH  14  15
HETATM   15  C   UNL     1      40.985 -13.065  -2.237  1.00  0.00     0.002 A 
HETATM   16  C   UNL     1      40.242 -14.050  -2.947  1.00  0.00     0.060 A 
HETATM   17  C   UNL     1      38.786 -14.331  -2.893  1.00  0.00     0.073 C 
HETATM   18  N   UNL     1      41.028 -14.792  -3.738  1.00  0.00    -0.180 NA
HETATM   19  N   UNL     1      42.257 -14.302  -3.534  1.00  0.00    -0.288 N 
HETATM   20  H   UNL     1      43.034 -14.725  -4.033  1.00  0.00     0.188 HD
HETATM   21  C   UNL     1      42.288 -13.271  -2.648  1.00  0.00     0.120 A 
ENDBRANCH  14  15
ENDBRANCH  11  14
ENDBRANCH   3  10
BRANCH   1  22
HETATM   22  N   UNL     1      43.507 -15.935   3.777  1.00  0.00    -0.340 N 
HETATM   23  H   UNL     1      44.308 -15.566   4.269  1.00  0.00     0.167 HD
BRANCH  22  24
HETATM   24  C   UNL     1      43.628 -17.292   3.432  1.00  0.00     0.034 A 
HETATM   25  C   UNL     1      43.335 -17.673   2.114  1.00  0.00     0.031 A 
HETATM   26  C   UNL     1      43.472 -18.999   1.694  1.00  0.00     0.022 A 
HETATM   27  C   UNL     1      43.917 -19.974   2.588  1.00  0.00     0.017 A 
HETATM   28  C   UNL     1      44.220 -19.631   3.910  1.00  0.00    -0.043 A 
HETATM   29 BR   UNL     1      44.092 -21.749   1.937  1.00  0.00    -0.051 Br
HETATM   30  C   UNL     1      44.718 -20.637   4.911  1.00  0.00     0.049 C 
HETATM   31  C   UNL     1      44.069 -18.287   4.310  1.00  0.00     0.037 A 
ENDBRANCH  22  24
ENDBRANCH   1  22
TORSDOF 5
ENDMDL
MODEL 5
REMARK VINA RESULT:      -8.3      4.663      9.072
REMARK  5 active torsions:
REMARK  status: ('A' for Active; 'I' for Inactive)
REMARK    1  A    between atoms: C_7  and  N_8 
REMARK    2  A    between atoms: N_8  and  C_9 
REMARK    3  A    between atoms: C_11  and  C_12 
REMARK       I    between atoms: C_12  and  N_13 
REMARK    4  A    between atoms: N_13  and  C_14 
REMARK    5  A    between atoms: C_14  and  C_15 
ROOT
HETATM    1  C   UNL     1      42.329 -16.511   3.858  1.00  0.00     0.142 A 
HETATM    2  N   UNL     1      42.582 -15.951   5.074  1.00  0.00    -0.225 NA
HETATM    3  C   UNL     1      43.517 -16.494   5.910  1.00  0.00     0.129 A 
HETATM    4  C   UNL     1      44.271 -17.621   5.643  1.00  0.00     0.075 A 
HETATM    5  C   UNL     1      43.980 -18.185   4.417  1.00  0.00     0.091 A 
HETATM    6  C   UNL     1      43.047 -17.682   3.519  1.00  0.00     0.046 A 
HETATM    7  O   UNL     1      44.565 -19.308   3.919  1.00  0.00    -0.322 OA
HETATM    8  C   UNL     1      44.017 -19.539   2.700  1.00  0.00     0.143 A 
HETATM    9  C   UNL     1      43.084 -18.572   2.404  1.00  0.00     0.042 A 
ENDROOT
BRANCH   3  10
HETATM   10  C   UNL     1      43.720 -15.787   7.215  1.00  0.00     0.270 C 
HETATM   11  N   UNL     1      43.945 -14.435   7.106  1.00  0.00    -0.351 N 
HETATM   12  H   UNL     1      44.017 -14.054   6.168  1.00  0.00     0.163 HD
HETATM   13  O   UNL     1      43.678 -16.388   8.283  1.00  0.00    -0.266 OA
BRANCH  11  14
HETATM   14  C   UNL     1      44.254 -13.611   8.247  1.00  0.00     0.165 C 
BRANCH  14  15
HETATM   15  C   UNL     1      45.532 -12.901   7.987  1.00  0.00     0.002 A 
HETATM   16  C   UNL     1      46.082 -11.780   8.670  1.00  0.00     0.060 A 
HETATM   17  C   UNL     1      45.521 -11.026   9.819  1.00  0.00     0.073 C 
HETATM   18  N   UNL     1      47.253 -11.401   8.142  1.00  0.00    -0.180 NA
HETATM   19  N   UNL     1      47.451 -12.257   7.132  1.00  0.00    -0.288 N 
HETATM   20  H   UNL     1      48.291 -12.154   6.570  1.00  0.00     0.188 HD
HETATM   21  C   UNL     1      46.454 -13.172   6.995  1.00  0.00     0.120 A 
ENDBRANCH  14  15
ENDBRANCH  11  14
ENDBRANCH   3  10
BRANCH   1  22
HETATM   22  N   UNL     1      41.383 -15.973   2.974  1.00  0.00    -0.340 N 
HETATM   23  H   UNL     1      40.431 -16.114   3.280  1.00  0.00     0.167 HD
BRANCH  22  24
HETATM   24  C   UNL     1      41.490 -15.337   1.726  1.00  0.00     0.034 A 
HETATM   25  C   UNL     1      41.238 -16.090   0.570  1.00  0.00     0.031 A 
HETATM   26  C   UNL     1      41.289 -15.511  -0.701  1.00  0.00     0.022 A 
HETATM   27  C   UNL     1      41.586 -14.155  -0.840  1.00  0.00     0.017 A 
HETATM   28  C   UNL     1      41.841 -13.371   0.290  1.00  0.00    -0.043 A 
HETATM   29 BR   UNL     1      41.621 -13.439  -2.598  1.00  0.00    -0.051 Br
HETATM   30  C   UNL     1      42.151 -11.902   0.200  1.00  0.00     0.049 C 
HETATM   31  C   UNL     1      41.789 -13.981   1.560  1.00  0.00     0.037 A 
ENDBRANCH  22  24
ENDBRANCH   1  22
TORSDOF 5
ENDMDL
MODEL 6
REMARK VINA RESULT:      -8.3      1.781      2.345
REMARK  5 active torsions:
REMARK  status: ('A' for Active; 'I' for Inactive)
REMARK    1  A    between atoms: C_7  and  N_8 
REMARK    2  A    between atoms: N_8  and  C_9 
REMARK    3  A    between atoms: C_11  and  C_12 
REMARK       I    between atoms: C_12  and  N_13 
REMARK    4  A    between atoms: N_13  and  C_14 
REMARK    5  A    between atoms: C_14  and  C_15 
ROOT
HETATM    1  C   UNL     1      42.405 -15.972   2.711  1.00  0.00     0.142 A 
HETATM    2  N   UNL     1      41.922 -15.635   1.482  1.00  0.00    -0.225 NA
HETATM    3  C   UNL     1      40.744 -14.952   1.361  1.00  0.00     0.129 A 
HETATM    4  C   UNL     1      39.938 -14.554   2.409  1.00  0.00     0.075 A 
HETATM    5  C   UNL     1      40.434 -14.928   3.642  1.00  0.00     0.091 A 
HETATM    6  C   UNL     1      41.625 -15.616   3.836  1.00  0.00     0.046 A 
HETATM    7  O   UNL     1      39.828 -14.675   4.834  1.00  0.00    -0.322 OA
HETATM    8  C   UNL     1      40.619 -15.196   5.804  1.00  0.00     0.143 A 
HETATM    9  C   UNL     1      41.734 -15.781   5.250  1.00  0.00     0.042 A 
ENDROOT
BRANCH   3  10
HETATM   10  C   UNL     1      40.318 -14.624  -0.039  1.00  0.00     0.270 C 
HETATM   11  N   UNL     1      38.982 -14.335  -0.178  1.00  0.00    -0.351 N 
HETATM   12  H   UNL     1      38.401 -14.430   0.648  1.00  0.00     0.163 HD
HETATM   13  O   UNL     1      41.119 -14.618  -0.966  1.00  0.00    -0.266 OA
BRANCH  11  14
HETATM   14  C   UNL     1      38.378 -14.090  -1.463  1.00  0.00     0.165 C 
BRANCH  14  15
HETATM   15  C   UNL     1      38.381 -12.627  -1.717  1.00  0.00     0.002 A 
HETATM   16  C   UNL     1      39.146 -11.889  -2.664  1.00  0.00     0.060 A 
HETATM   17  C   UNL     1      40.142 -12.389  -3.643  1.00  0.00     0.073 C 
HETATM   18  N   UNL     1      38.892 -10.576  -2.594  1.00  0.00    -0.180 NA
HETATM   19  N   UNL     1      37.987 -10.467  -1.613  1.00  0.00    -0.288 N 
HETATM   20  H   UNL     1      37.645  -9.542  -1.372  1.00  0.00     0.188 HD
HETATM   21  C   UNL     1      37.646 -11.661  -1.056  1.00  0.00     0.120 A 
ENDBRANCH  14  15
ENDBRANCH  11  14
ENDBRANCH   3  10
BRANCH   1  22
HETATM   22  N   UNL     1      43.615 -16.663   2.871  1.00  0.00    -0.340 N 
HETATM   23  H   UNL     1      44.423 -16.105   2.634  1.00  0.00     0.167 HD
BRANCH  22  24
HETATM   24  C   UNL     1      43.923 -17.984   3.235  1.00  0.00     0.034 A 
HETATM   25  C   UNL     1      44.284 -18.243   4.566  1.00  0.00     0.031 A 
HETATM   26  C   UNL     1      44.566 -19.539   5.004  1.00  0.00     0.022 A 
HETATM   27  C   UNL     1      44.483 -20.611   4.115  1.00  0.00     0.017 A 
HETATM   28  C   UNL     1      44.125 -20.393   2.780  1.00  0.00    -0.043 A 
HETATM   29 BR   UNL     1      44.865 -22.344   4.790  1.00  0.00    -0.051 Br
HETATM   30  C   UNL     1      44.005 -21.513   1.783  1.00  0.00     0.049 C 
HETATM   31  C   UNL     1      43.851 -19.075   2.362  1.00  0.00     0.037 A 
ENDBRANCH  22  24
ENDBRANCH   1  22
TORSDOF 5
ENDMDL
MODEL 7
REMARK VINA RESULT:      -8.2      3.945      6.864
REMARK  5 active torsions:
REMARK  status: ('A' for Active; 'I' for Inactive)
REMARK    1  A    between atoms: C_7  and  N_8 
REMARK    2  A    between atoms: N_8  and  C_9 
REMARK    3  A    between atoms: C_11  and  C_12 
REMARK       I    between atoms: C_12  and  N_13 
REMARK    4  A    between atoms: N_13  and  C_14 
REMARK    5  A    between atoms: C_14  and  C_15 
ROOT
HETATM    1  C   UNL     1      42.758 -15.880   3.429  1.00  0.00     0.142 A 
HETATM    2  N   UNL     1      43.133 -15.071   4.459  1.00  0.00    -0.225 NA
HETATM    3  C   UNL     1      42.263 -14.149   4.971  1.00  0.00     0.129 A 
HETATM    4  C   UNL     1      40.974 -13.930   4.525  1.00  0.00     0.075 A 
HETATM    5  C   UNL     1      40.626 -14.743   3.466  1.00  0.00     0.091 A 
HETATM    6  C   UNL     1      41.457 -15.703   2.902  1.00  0.00     0.046 A 
HETATM    7  O   UNL     1      39.423 -14.719   2.829  1.00  0.00    -0.322 OA
HETATM    8  C   UNL     1      39.468 -15.659   1.852  1.00  0.00     0.143 A 
HETATM    9  C   UNL     1      40.689 -16.293   1.854  1.00  0.00     0.042 A 
ENDROOT
BRANCH   3  10
HETATM   10  C   UNL     1      42.780 -13.323   6.111  1.00  0.00     0.270 C 
HETATM   11  N   UNL     1      41.937 -12.317   6.517  1.00  0.00    -0.351 N 
HETATM   12  H   UNL     1      41.086 -12.182   5.980  1.00  0.00     0.163 HD
HETATM   13  O   UNL     1      43.869 -13.552   6.625  1.00  0.00    -0.266 OA
BRANCH  11  14
HETATM   14  C   UNL     1      42.309 -11.366   7.534  1.00  0.00     0.165 C 
BRANCH  14  15
HETATM   15  C   UNL     1      41.198 -10.395   7.704  1.00  0.00     0.002 A 
HETATM   16  C   UNL     1      40.894  -9.243   6.923  1.00  0.00     0.060 A 
HETATM   17  C   UNL     1      41.610  -8.711   5.737  1.00  0.00     0.073 C 
HETATM   18  N   UNL     1      39.818  -8.597   7.388  1.00  0.00    -0.180 NA
HETATM   19  N   UNL     1      39.439  -9.312   8.454  1.00  0.00    -0.288 N 
HETATM   20  H   UNL     1      38.630  -8.999   8.983  1.00  0.00     0.188 HD
HETATM   21  C   UNL     1      40.228 -10.396   8.687  1.00  0.00     0.120 A 
ENDBRANCH  14  15
ENDBRANCH  11  14
ENDBRANCH   3  10
BRANCH   1  22
HETATM   22  N   UNL     1      43.622 -16.843   2.887  1.00  0.00    -0.340 N 
HETATM   23  H   UNL     1      44.056 -16.544   2.025  1.00  0.00     0.167 HD
BRANCH  22  24
HETATM   24  C   UNL     1      43.957 -18.154   3.266  1.00  0.00     0.034 A 
HETATM   25  C   UNL     1      44.282 -18.396   4.608  1.00  0.00     0.031 A 
HETATM   26  C   UNL     1      44.587 -19.683   5.061  1.00  0.00     0.022 A 
HETATM   27  C   UNL     1      44.563 -20.760   4.175  1.00  0.00     0.017 A 
HETATM   28  C   UNL     1      44.241 -20.557   2.829  1.00  0.00    -0.043 A 
HETATM   29 BR   UNL     1      44.973 -22.479   4.870  1.00  0.00    -0.051 Br
HETATM   30  C   UNL     1      44.184 -21.684   1.833  1.00  0.00     0.049 C 
HETATM   31  C   UNL     1      43.943 -19.249   2.396  1.00  0.00     0.037 A 
ENDBRANCH  22  24
ENDBRANCH   1  22
TORSDOF 5
ENDMDL
MODEL 8
REMARK VINA RESULT:      -8.2      1.784      2.590
REMARK  5 active torsions:
REMARK  status: ('A' for Active; 'I' for Inactive)
REMARK    1  A    between atoms: C_7  and  N_8 
REMARK    2  A    between atoms: N_8  and  C_9 
REMARK    3  A    between atoms: C_11  and  C_12 
REMARK       I    between atoms: C_12  and  N_13 
REMARK    4  A    between atoms: N_13  and  C_14 
REMARK    5  A    between atoms: C_14  and  C_15 
ROOT
HETATM    1  C   UNL     1      40.034 -15.182   2.624  1.00  0.00     0.142 A 
HETATM    2  N   UNL     1      39.918 -14.604   1.396  1.00  0.00    -0.225 NA
HETATM    3  C   UNL     1      39.822 -13.246   1.273  1.00  0.00     0.129 A 
HETATM    4  C   UNL     1      39.819 -12.345   2.320  1.00  0.00     0.075 A 
HETATM    5  C   UNL     1      39.912 -12.955   3.555  1.00  0.00     0.091 A 
HETATM    6  C   UNL     1      40.019 -14.326   3.751  1.00  0.00     0.046 A 
HETATM    7  O   UNL     1      39.914 -12.300   4.748  1.00  0.00    -0.322 OA
HETATM    8  C   UNL     1      40.021 -13.240   5.720  1.00  0.00     0.143 A 
HETATM    9  C   UNL     1      40.091 -14.497   5.166  1.00  0.00     0.042 A 
ENDROOT
BRANCH   3  10
HETATM   10  C   UNL     1      39.712 -12.722  -0.127  1.00  0.00     0.270 C 
HETATM   11  N   UNL     1      38.667 -13.242  -0.853  1.00  0.00    -0.351 N 
HETATM   12  H   UNL     1      38.112 -13.967  -0.409  1.00  0.00     0.163 HD
HETATM   13  O   UNL     1      40.501 -11.892  -0.564  1.00  0.00    -0.266 OA
BRANCH  11  14
HETATM   14  C   UNL     1      38.463 -12.925  -2.244  1.00  0.00     0.165 C 
BRANCH  14  15
HETATM   15  C   UNL     1      38.699 -14.150  -3.049  1.00  0.00     0.002 A 
HETATM   16  C   UNL     1      39.932 -14.677  -3.528  1.00  0.00     0.060 A 
HETATM   17  C   UNL     1      41.304 -14.138  -3.350  1.00  0.00     0.073 C 
HETATM   18  N   UNL     1      39.752 -15.799  -4.237  1.00  0.00    -0.180 NA
HETATM   19  N   UNL     1      38.427 -15.988  -4.223  1.00  0.00    -0.288 N 
HETATM   20  H   UNL     1      38.049 -16.792  -4.715  1.00  0.00     0.188 HD
HETATM   21  C   UNL     1      37.751 -15.033  -3.528  1.00  0.00     0.120 A 
ENDBRANCH  14  15
ENDBRANCH  11  14
ENDBRANCH   3  10
BRANCH   1  22
HETATM   22  N   UNL     1      40.144 -16.571   2.786  1.00  0.00    -0.340 N 
HETATM   23  H   UNL     1      39.252 -17.044   2.756  1.00  0.00     0.167 HD
BRANCH  22  24
HETATM   24  C   UNL     1      41.231 -17.424   3.040  1.00  0.00     0.034 A 
HETATM   25  C   UNL     1      41.913 -17.978   1.947  1.00  0.00     0.031 A 
HETATM   26  C   UNL     1      43.026 -18.804   2.127  1.00  0.00     0.022 A 
HETATM   27  C   UNL     1      43.487 -19.085   3.413  1.00  0.00     0.017 A 
HETATM   28  C   UNL     1      42.834 -18.549   4.528  1.00  0.00    -0.043 A 
HETATM   29 BR   UNL     1      45.014 -20.201   3.575  1.00  0.00    -0.051 Br
HETATM   30  C   UNL     1      43.297 -18.806   5.936  1.00  0.00     0.049 C 
HETATM   31  C   UNL     1      41.710 -17.723   4.320  1.00  0.00     0.037 A 
ENDBRANCH  22  24
ENDBRANCH   1  22
TORSDOF 5
ENDMDL
MODEL 9
REMARK VINA RESULT:      -8.1      4.800      8.545
REMARK  5 active torsions:
REMARK  status: ('A' for Active; 'I' for Inactive)
REMARK    1  A    between atoms: C_7  and  N_8 
REMARK    2  A    between atoms: N_8  and  C_9 
REMARK    3  A    between atoms: C_11  and  C_12 
REMARK       I    between atoms: C_12  and  N_13 
REMARK    4  A    between atoms: N_13  and  C_14 
REMARK    5  A    between atoms: C_14  and  C_15 
ROOT
HETATM    1  C   UNL     1      40.058 -14.349   5.456  1.00  0.00     0.142 A 
HETATM    2  N   UNL     1      40.268 -13.433   6.442  1.00  0.00    -0.225 NA
HETATM    3  C   UNL     1      40.158 -12.095   6.184  1.00  0.00     0.129 A 
HETATM    4  C   UNL     1      39.850 -11.539   4.958  1.00  0.00     0.075 A 
HETATM    5  C   UNL     1      39.666 -12.485   3.969  1.00  0.00     0.091 A 
HETATM    6  C   UNL     1      39.756 -13.857   4.165  1.00  0.00     0.046 A 
HETATM    7  O   UNL     1      39.371 -12.205   2.670  1.00  0.00    -0.322 OA
HETATM    8  C   UNL     1      39.269 -13.390   2.019  1.00  0.00     0.143 A 
HETATM    9  C   UNL     1      39.493 -14.435   2.886  1.00  0.00     0.042 A 
ENDROOT
BRANCH   3  10
HETATM   10  C   UNL     1      40.398 -11.182   7.348  1.00  0.00     0.270 C 
HETATM   11  N   UNL     1      41.648 -11.286   7.910  1.00  0.00    -0.351 N 
HETATM   12  H   UNL     1      42.263 -12.003   7.537  1.00  0.00     0.163 HD
HETATM   13  O   UNL     1      39.534 -10.409   7.745  1.00  0.00    -0.266 OA
BRANCH  11  14
HETATM   14  C   UNL     1      42.023 -10.555   9.094  1.00  0.00     0.165 C 
BRANCH  14  15
HETATM   15  C   UNL     1      43.366 -11.016   9.529  1.00  0.00     0.002 A 
HETATM   16  C   UNL     1      44.060 -10.720  10.737  1.00  0.00     0.060 A 
HETATM   17  C   UNL     1      43.624  -9.873  11.875  1.00  0.00     0.073 C 
HETATM   18  N   UNL     1      45.265 -11.305  10.774  1.00  0.00    -0.180 NA
HETATM   19  N   UNL     1      45.350 -11.958   9.609  1.00  0.00    -0.288 N 
HETATM   20  H   UNL     1      46.199 -12.479   9.409  1.00  0.00     0.188 HD
HETATM   21  C   UNL     1      44.245 -11.819   8.828  1.00  0.00     0.120 A 
ENDBRANCH  14  15
ENDBRANCH  11  14
ENDBRANCH   3  10
BRANCH   1  22
HETATM   22  N   UNL     1      40.153 -15.729   5.689  1.00  0.00    -0.340 N 
HETATM   23  H   UNL     1      39.323 -16.116   6.117  1.00  0.00     0.167 HD
BRANCH  22  24
HETATM   24  C   UNL     1      41.185 -16.664   5.505  1.00  0.00     0.034 A 
HETATM   25  C   UNL     1      41.914 -17.081   6.628  1.00  0.00     0.031 A 
HETATM   26  C   UNL     1      42.929 -18.036   6.523  1.00  0.00     0.022 A 
HETATM   27  C   UNL     1      43.228 -18.604   5.284  1.00  0.00     0.017 A 
HETATM   28  C   UNL     1      42.521 -18.215   4.141  1.00  0.00    -0.043 A 
HETATM   29 BR   UNL     1      44.609 -19.907   5.225  1.00  0.00    -0.051 Br
HETATM   30  C   UNL     1      42.792 -18.805   2.784  1.00  0.00     0.049 C 
HETATM   31  C   UNL     1      41.507 -17.245   4.274  1.00  0.00     0.037 A 
ENDBRANCH  22  24
ENDBRANCH   1  22
TORSDOF 5
ENDMDL
MODEL 10
REMARK VINA RESULT:      -8.1      2.060      2.713
REMARK  5 active torsions:
REMARK  status: ('A' for Active; 'I' for Inactive)
REMARK    1  A    between atoms: C_7  and  N_8 
REMARK    2  A    between atoms: N_8  and  C_9 
REMARK    3  A    between atoms: C_11  and  C_12 
REMARK       I    between atoms: C_12  and  N_13 
REMARK    4  A    between atoms: N_13  and  C_14 
REMARK    5  A    between atoms: C_14  and  C_15 
ROOT
HETATM    1  C   UNL     1      40.168 -14.574   3.162  1.00  0.00     0.142 A 
HETATM    2  N   UNL     1      40.346 -13.949   1.964  1.00  0.00    -0.225 NA
HETATM    3  C   UNL     1      40.308 -12.586   1.878  1.00  0.00     0.129 A 
HETATM    4  C   UNL     1      40.084 -11.723   2.933  1.00  0.00     0.075 A 
HETATM    5  C   UNL     1      39.880 -12.379   4.131  1.00  0.00     0.091 A 
HETATM    6  C   UNL     1      39.913 -13.758   4.289  1.00  0.00     0.046 A 
HETATM    7  O   UNL     1      39.623 -11.767   5.319  1.00  0.00    -0.322 OA
HETATM    8  C   UNL     1      39.487 -12.742   6.250  1.00  0.00     0.143 A 
HETATM    9  C   UNL     1      39.657 -13.981   5.676  1.00  0.00     0.042 A 
ENDROOT
BRANCH   3  10
HETATM   10  C   UNL     1      40.530 -12.009   0.512  1.00  0.00     0.270 C 
HETATM   11  N   UNL     1      39.720 -12.530  -0.468  1.00  0.00    -0.351 N 
HETATM   12  H   UNL     1      39.100 -13.288  -0.201  1.00  0.00     0.163 HD
HETATM   13  O   UNL     1      41.371 -11.140   0.313  1.00  0.00    -0.266 OA
BRANCH  11  14
HETATM   14  C   UNL     1      39.857 -12.164  -1.855  1.00  0.00     0.165 C 
BRANCH  14  15
HETATM   15  C   UNL     1      40.685 -13.191  -2.537  1.00  0.00     0.002 A 
HETATM   16  C   UNL     1      40.258 -14.341  -3.260  1.00  0.00     0.060 A 
HETATM   17  C   UNL     1      38.876 -14.814  -3.520  1.00  0.00     0.073 C 
HETATM   18  N   UNL     1      41.296 -15.049  -3.725  1.00  0.00    -0.180 NA
HETATM   19  N   UNL     1      42.372 -14.374  -3.302  1.00  0.00    -0.288 N 
HETATM   20  H   UNL     1      43.291 -14.737  -3.535  1.00  0.00     0.188 HD
HETATM   21  C   UNL     1      42.064 -13.258  -2.589  1.00  0.00     0.120 A 
ENDBRANCH  14  15
ENDBRANCH  11  14
ENDBRANCH   3  10
BRANCH   1  22
HETATM   22  N   UNL     1      40.211 -15.970   3.287  1.00  0.00    -0.340 N 
HETATM   23  H   UNL     1      39.302 -16.403   3.203  1.00  0.00     0.167 HD
BRANCH  22  24
HETATM   24  C   UNL     1      41.248 -16.876   3.565  1.00  0.00     0.034 A 
HETATM   25  C   UNL     1      41.476 -17.238   4.901  1.00  0.00     0.031 A 
HETATM   26  C   UNL     1      42.466 -18.163   5.244  1.00  0.00     0.022 A 
HETATM   27  C   UNL     1      43.245 -18.756   4.250  1.00  0.00     0.017 A 
HETATM   28  C   UNL     1      43.045 -18.421   2.906  1.00  0.00    -0.043 A 
HETATM   29 BR   UNL     1      44.557 -20.015   4.795  1.00  0.00    -0.051 Br
HETATM   30  C   UNL     1      43.844 -19.040   1.792  1.00  0.00     0.049 C 
HETATM   31  C   UNL     1      42.044 -17.481   2.587  1.00  0.00     0.037 A 
ENDBRANCH  22  24
ENDBRANCH   1  22
TORSDOF 5
ENDMDL
