MODEL 1
REMARK VINA RESULT:      -8.1      0.000      0.000
REMARK  6 active torsions:
REMARK  status: ('A' for Active; 'I' for Inactive)
REMARK    1  A    between atoms: C_5  and  N_6 
REMARK    2  A    between atoms: N_6  and  C_7 
REMARK    3  A    between atoms: C_7  and  N_8 
REMARK    4  A    between atoms: C_11  and  C_12 
REMARK    5  A    between atoms: N_14  and  C_15 
REMARK    6  A    between atoms: C_21  and  O_22 
ROOT
HETATM    1  N   UNL     1      40.674 -14.272   0.302  1.00  0.00    -0.358 N 
HETATM    2  C   UNL     1      41.809 -13.668   1.015  1.00  0.00     0.126 C 
HETATM    3  C   UNL     1      41.476 -12.280   1.558  1.00  0.00     0.031 C 
HETATM    4  C   UNL     1      40.178 -12.263   2.385  1.00  0.00     0.043 C 
HETATM    5  C   UNL     1      39.053 -12.917   1.564  1.00  0.00     0.031 C 
HETATM    6  C   UNL     1      39.439 -14.315   1.089  1.00  0.00     0.126 C 
ENDROOT
BRANCH   4   7
HETATM    7  C   UNL     1      40.304 -12.861   3.767  1.00  0.00     0.063 C 
HETATM    8  N   UNL     1      41.340 -13.635   4.106  1.00  0.00    -0.169 NA
HETATM    9  N   UNL     1      41.093 -14.027   5.388  1.00  0.00    -0.211 N 
HETATM   10  C   UNL     1      40.007 -13.331   5.919  1.00  0.00     0.165 C 
HETATM   11  C   UNL     1      39.450 -12.641   4.871  1.00  0.00     0.087 C 
BRANCH   9  12
HETATM   12  C   UNL     1      41.909 -15.020   6.001  1.00  0.00     0.061 A 
HETATM   13  C   UNL     1      43.282 -14.775   6.161  1.00  0.00     0.031 A 
HETATM   14  C   UNL     1      44.098 -15.726   6.778  1.00  0.00     0.002 A 
HETATM   15  C   UNL     1      43.557 -16.932   7.218  1.00  0.00     0.000 A 
HETATM   16  C   UNL     1      42.201 -17.197   7.030  1.00  0.00     0.002 A 
HETATM   17  C   UNL     1      41.377 -16.247   6.420  1.00  0.00     0.031 A 
ENDBRANCH   9  12
BRANCH  10  18
HETATM   18  O   UNL     1      39.640 -13.316   7.201  1.00  0.00    -0.345 OA
HETATM   19  H   UNL     1      39.906 -12.464   7.589  1.00  0.00     0.219 HD
ENDBRANCH  10  18
ENDBRANCH   4   7
BRANCH   1  20
HETATM   20  C   UNL     1      40.961 -15.280  -0.608  1.00  0.00     0.174 C 
HETATM   21  S   UNL     1      41.105 -15.068  -2.270  1.00  0.00    -0.041 SA
BRANCH  20  22
HETATM   22  N   UNL     1      41.081 -16.563  -0.145  1.00  0.00    -0.333 N 
HETATM   23  H   UNL     1      40.737 -17.252  -0.805  1.00  0.00     0.168 HD
BRANCH  22  24
HETATM   24  C   UNL     1      41.809 -17.088   0.945  1.00  0.00     0.034 A 
HETATM   25  C   UNL     1      41.279 -17.271   2.223  1.00  0.00     0.030 A 
HETATM   26  C   UNL     1      42.070 -17.779   3.258  1.00  0.00     0.009 A 
HETATM   27  C   UNL     1      43.416 -18.084   3.039  1.00  0.00    -0.062 A 
HETATM   28  C   UNL     1      44.260 -18.660   4.137  1.00  0.00     0.048 C 
HETATM   29  C   UNL     1      43.955 -17.885   1.765  1.00  0.00     0.009 A 
HETATM   30  C   UNL     1      43.160 -17.380   0.730  1.00  0.00     0.030 A 
ENDBRANCH  22  24
ENDBRANCH  20  22
ENDBRANCH   1  20
TORSDOF 6
ENDMDL
MODEL 2
REMARK VINA RESULT:      -8.0      3.493      6.562
REMARK  6 active torsions:
REMARK  status: ('A' for Active; 'I' for Inactive)
REMARK    1  A    between atoms: C_5  and  N_6 
REMARK    2  A    between atoms: N_6  and  C_7 
REMARK    3  A    between atoms: C_7  and  N_8 
REMARK    4  A    between atoms: C_11  and  C_12 
REMARK    5  A    between atoms: N_14  and  C_15 
REMARK    6  A    between atoms: C_21  and  O_22 
ROOT
HETATM    1  N   UNL     1      42.635 -15.824   5.140  1.00  0.00    -0.358 N 
HETATM    2  C   UNL     1      41.233 -16.001   4.734  1.00  0.00     0.126 C 
HETATM    3  C   UNL     1      40.540 -14.668   4.457  1.00  0.00     0.031 C 
HETATM    4  C   UNL     1      41.333 -13.780   3.482  1.00  0.00     0.043 C 
HETATM    5  C   UNL     1      42.783 -13.657   3.983  1.00  0.00     0.031 C 
HETATM    6  C   UNL     1      43.424 -15.025   4.199  1.00  0.00     0.126 C 
ENDROOT
BRANCH   4   7
HETATM    7  C   UNL     1      41.259 -14.211   2.035  1.00  0.00     0.063 C 
HETATM    8  N   UNL     1      41.583 -13.382   1.037  1.00  0.00    -0.169 NA
HETATM    9  N   UNL     1      41.350 -14.085  -0.106  1.00  0.00    -0.211 N 
HETATM   10  C   UNL     1      41.075 -15.422   0.181  1.00  0.00     0.165 C 
HETATM   11  C   UNL     1      40.940 -15.497   1.545  1.00  0.00     0.087 C 
BRANCH   9  12
HETATM   12  C   UNL     1      41.412 -13.433  -1.371  1.00  0.00     0.061 A 
HETATM   13  C   UNL     1      40.280 -13.436  -2.200  1.00  0.00     0.031 A 
HETATM   14  C   UNL     1      40.312 -12.787  -3.435  1.00  0.00     0.002 A 
HETATM   15  C   UNL     1      41.476 -12.151  -3.861  1.00  0.00     0.000 A 
HETATM   16  C   UNL     1      42.616 -12.175  -3.059  1.00  0.00     0.002 A 
HETATM   17  C   UNL     1      42.589 -12.816  -1.818  1.00  0.00     0.031 A 
ENDBRANCH   9  12
BRANCH  10  18
HETATM   18  O   UNL     1      41.015 -16.415  -0.707  1.00  0.00    -0.345 OA
HETATM   19  H   UNL     1      40.079 -16.617  -0.884  1.00  0.00     0.219 HD
ENDBRANCH  10  18
ENDBRANCH   4   7
BRANCH   1  20
HETATM   20  C   UNL     1      43.226 -16.862   5.847  1.00  0.00     0.174 C 
HETATM   21  S   UNL     1      42.863 -17.277   7.435  1.00  0.00    -0.041 SA
BRANCH  20  22
HETATM   22  N   UNL     1      44.226 -17.576   5.243  1.00  0.00    -0.333 N 
HETATM   23  H   UNL     1      45.122 -17.464   5.706  1.00  0.00     0.168 HD
BRANCH  22  24
HETATM   24  C   UNL     1      44.175 -18.604   4.277  1.00  0.00     0.034 A 
HETATM   25  C   UNL     1      43.573 -18.471   3.026  1.00  0.00     0.030 A 
HETATM   26  C   UNL     1      43.545 -19.543   2.129  1.00  0.00     0.009 A 
HETATM   27  C   UNL     1      44.094 -20.779   2.482  1.00  0.00    -0.062 A 
HETATM   28  C   UNL     1      44.095 -21.922   1.511  1.00  0.00     0.048 C 
HETATM   29  C   UNL     1      44.682 -20.921   3.742  1.00  0.00     0.009 A 
HETATM   30  C   UNL     1      44.712 -19.845   4.635  1.00  0.00     0.030 A 
ENDBRANCH  22  24
ENDBRANCH  20  22
ENDBRANCH   1  20
TORSDOF 6
ENDMDL
MODEL 3
REMARK VINA RESULT:      -8.0      3.303      6.404
REMARK  6 active torsions:
REMARK  status: ('A' for Active; 'I' for Inactive)
REMARK    1  A    between atoms: C_5  and  N_6 
REMARK    2  A    between atoms: N_6  and  C_7 
REMARK    3  A    between atoms: C_7  and  N_8 
REMARK    4  A    between atoms: C_11  and  C_12 
REMARK    5  A    between atoms: N_14  and  C_15 
REMARK    6  A    between atoms: C_21  and  O_22 
ROOT
HETATM    1  N   UNL     1      41.890 -15.191   4.321  1.00  0.00    -0.358 N 
HETATM    2  C   UNL     1      40.617 -15.405   3.615  1.00  0.00     0.126 C 
HETATM    3  C   UNL     1      39.838 -14.106   3.425  1.00  0.00     0.031 C 
HETATM    4  C   UNL     1      40.689 -12.991   2.790  1.00  0.00     0.043 C 
HETATM    5  C   UNL     1      41.996 -12.844   3.589  1.00  0.00     0.031 C 
HETATM    6  C   UNL     1      42.741 -14.171   3.705  1.00  0.00     0.126 C 
ENDROOT
BRANCH   4   7
HETATM    7  C   UNL     1      40.937 -13.154   1.308  1.00  0.00     0.063 C 
HETATM    8  N   UNL     1      40.023 -13.702   0.500  1.00  0.00    -0.169 NA
HETATM    9  N   UNL     1      40.603 -13.730  -0.733  1.00  0.00    -0.211 N 
HETATM   10  C   UNL     1      41.800 -13.012  -0.735  1.00  0.00     0.165 C 
HETATM   11  C   UNL     1      42.059 -12.705   0.578  1.00  0.00     0.087 C 
BRANCH   9  12
HETATM   12  C   UNL     1      39.974 -14.428  -1.803  1.00  0.00     0.061 A 
HETATM   13  C   UNL     1      38.671 -14.069  -2.182  1.00  0.00     0.031 A 
HETATM   14  C   UNL     1      38.042 -14.726  -3.241  1.00  0.00     0.002 A 
HETATM   15  C   UNL     1      38.697 -15.755  -3.914  1.00  0.00     0.000 A 
HETATM   16  C   UNL     1      39.977 -16.141  -3.520  1.00  0.00     0.002 A 
HETATM   17  C   UNL     1      40.616 -15.483  -2.465  1.00  0.00     0.031 A 
ENDBRANCH   9  12
BRANCH  10  18
HETATM   18  O   UNL     1      42.499 -12.663  -1.815  1.00  0.00    -0.345 OA
HETATM   19  H   UNL     1      42.472 -13.398  -2.453  1.00  0.00     0.219 HD
ENDBRANCH  10  18
ENDBRANCH   4   7
BRANCH   1  20
HETATM   20  C   UNL     1      42.455 -16.289   4.954  1.00  0.00     0.174 C 
HETATM   21  S   UNL     1      41.937 -16.932   6.419  1.00  0.00    -0.041 SA
BRANCH  20  22
HETATM   22  N   UNL     1      43.559 -16.870   4.389  1.00  0.00    -0.333 N 
HETATM   23  H   UNL     1      44.417 -16.378   4.610  1.00  0.00     0.168 HD
BRANCH  22  24
HETATM   24  C   UNL     1      43.731 -18.135   3.787  1.00  0.00     0.034 A 
HETATM   25  C   UNL     1      44.391 -19.205   4.391  1.00  0.00     0.030 A 
HETATM   26  C   UNL     1      44.539 -20.424   3.721  1.00  0.00     0.009 A 
HETATM   27  C   UNL     1      44.055 -20.582   2.419  1.00  0.00    -0.062 A 
HETATM   28  C   UNL     1      44.183 -21.897   1.709  1.00  0.00     0.048 C 
HETATM   29  C   UNL     1      43.410 -19.506   1.804  1.00  0.00     0.009 A 
HETATM   30  C   UNL     1      43.260 -18.290   2.478  1.00  0.00     0.030 A 
ENDBRANCH  22  24
ENDBRANCH  20  22
ENDBRANCH   1  20
TORSDOF 6
ENDMDL
MODEL 4
REMARK VINA RESULT:      -8.0      4.664      8.155
REMARK  6 active torsions:
REMARK  status: ('A' for Active; 'I' for Inactive)
REMARK    1  A    between atoms: C_5  and  N_6 
REMARK    2  A    between atoms: N_6  and  C_7 
REMARK    3  A    between atoms: C_7  and  N_8 
REMARK    4  A    between atoms: C_11  and  C_12 
REMARK    5  A    between atoms: N_14  and  C_15 
REMARK    6  A    between atoms: C_21  and  O_22 
ROOT
HETATM    1  N   UNL     1      43.859 -14.168   6.772  1.00  0.00    -0.358 N 
HETATM    2  C   UNL     1      43.501 -15.576   7.004  1.00  0.00     0.126 C 
HETATM    3  C   UNL     1      42.125 -15.921   6.439  1.00  0.00     0.031 C 
HETATM    4  C   UNL     1      41.968 -15.504   4.966  1.00  0.00     0.043 C 
HETATM    5  C   UNL     1      42.368 -14.025   4.820  1.00  0.00     0.031 C 
HETATM    6  C   UNL     1      43.767 -13.761   5.368  1.00  0.00     0.126 C 
ENDROOT
BRANCH   4   7
HETATM    7  C   UNL     1      42.686 -16.394   3.978  1.00  0.00     0.063 C 
HETATM    8  N   UNL     1      42.678 -17.726   4.098  1.00  0.00    -0.169 NA
HETATM    9  N   UNL     1      43.456 -18.185   3.079  1.00  0.00    -0.211 N 
HETATM   10  C   UNL     1      43.782 -17.152   2.200  1.00  0.00     0.165 C 
HETATM   11  C   UNL     1      43.360 -15.993   2.804  1.00  0.00     0.087 C 
BRANCH   9  12
HETATM   12  C   UNL     1      43.819 -19.561   3.020  1.00  0.00     0.061 A 
HETATM   13  C   UNL     1      44.518 -20.132   4.095  1.00  0.00     0.031 A 
HETATM   14  C   UNL     1      44.867 -21.483   4.067  1.00  0.00     0.002 A 
HETATM   15  C   UNL     1      44.541 -22.267   2.963  1.00  0.00     0.000 A 
HETATM   16  C   UNL     1      43.879 -21.699   1.876  1.00  0.00     0.002 A 
HETATM   17  C   UNL     1      43.520 -20.348   1.899  1.00  0.00     0.031 A 
ENDBRANCH   9  12
BRANCH  10  18
HETATM   18  O   UNL     1      44.342 -17.296   0.998  1.00  0.00    -0.345 OA
HETATM   19  H   UNL     1      44.253 -18.226   0.724  1.00  0.00     0.219 HD
ENDBRANCH  10  18
ENDBRANCH   4   7
BRANCH   1  20
HETATM   20  C   UNL     1      44.824 -13.615   7.602  1.00  0.00     0.174 C 
HETATM   21  S   UNL     1      46.320 -13.040   7.093  1.00  0.00    -0.041 SA
BRANCH  20  22
HETATM   22  N   UNL     1      44.584 -13.582   8.949  1.00  0.00    -0.333 N 
HETATM   23  H   UNL     1      44.865 -14.437   9.418  1.00  0.00     0.168 HD
BRANCH  22  24
HETATM   24  C   UNL     1      44.262 -12.507   9.805  1.00  0.00     0.034 A 
HETATM   25  C   UNL     1      44.198 -11.175   9.395  1.00  0.00     0.030 A 
HETATM   26  C   UNL     1      43.892 -10.160  10.308  1.00  0.00     0.009 A 
HETATM   27  C   UNL     1      43.673 -10.460  11.656  1.00  0.00    -0.062 A 
HETATM   28  C   UNL     1      43.312  -9.381  12.632  1.00  0.00     0.048 C 
HETATM   29  C   UNL     1      43.755 -11.792  12.073  1.00  0.00     0.009 A 
HETATM   30  C   UNL     1      44.058 -12.804  11.157  1.00  0.00     0.030 A 
ENDBRANCH  22  24
ENDBRANCH  20  22
ENDBRANCH   1  20
TORSDOF 6
ENDMDL
MODEL 5
REMARK VINA RESULT:      -7.7      4.046      5.273
REMARK  6 active torsions:
REMARK  status: ('A' for Active; 'I' for Inactive)
REMARK    1  A    between atoms: C_5  and  N_6 
REMARK    2  A    between atoms: N_6  and  C_7 
REMARK    3  A    between atoms: C_7  and  N_8 
REMARK    4  A    between atoms: C_11  and  C_12 
REMARK    5  A    between atoms: N_14  and  C_15 
REMARK    6  A    between atoms: C_21  and  O_22 
ROOT
HETATM    1  N   UNL     1      42.105 -15.165   5.429  1.00  0.00    -0.358 N 
HETATM    2  C   UNL     1      42.929 -13.988   5.742  1.00  0.00     0.126 C 
HETATM    3  C   UNL     1      42.454 -12.739   5.003  1.00  0.00     0.031 C 
HETATM    4  C   UNL     1      40.949 -12.477   5.188  1.00  0.00     0.043 C 
HETATM    5  C   UNL     1      40.172 -13.760   4.844  1.00  0.00     0.031 C 
HETATM    6  C   UNL     1      40.672 -14.957   5.647  1.00  0.00     0.126 C 
ENDROOT
BRANCH   4   7
HETATM    7  C   UNL     1      40.568 -11.919   6.541  1.00  0.00     0.063 C 
HETATM    8  N   UNL     1      41.407 -11.155   7.247  1.00  0.00    -0.169 NA
HETATM    9  N   UNL     1      40.755 -10.885   8.412  1.00  0.00    -0.211 N 
HETATM   10  C   UNL     1      39.428 -11.309   8.348  1.00  0.00     0.165 C 
HETATM   11  C   UNL     1      39.318 -12.037   7.189  1.00  0.00     0.087 C 
BRANCH   9  12
HETATM   12  C   UNL     1      41.441 -10.244   9.483  1.00  0.00     0.061 A 
HETATM   13  C   UNL     1      41.030  -8.966   9.892  1.00  0.00     0.031 A 
HETATM   14  C   UNL     1      41.675  -8.326  10.952  1.00  0.00     0.002 A 
HETATM   15  C   UNL     1      42.744  -8.945  11.596  1.00  0.00     0.000 A 
HETATM   16  C   UNL     1      43.181 -10.200  11.173  1.00  0.00     0.002 A 
HETATM   17  C   UNL     1      42.535 -10.849  10.117  1.00  0.00     0.031 A 
ENDBRANCH   9  12
BRANCH  10  18
HETATM   18  O   UNL     1      38.468 -11.008   9.223  1.00  0.00    -0.345 OA
HETATM   19  H   UNL     1      38.816 -11.138  10.123  1.00  0.00     0.219 HD
ENDBRANCH  10  18
ENDBRANCH   4   7
BRANCH   1  20
HETATM   20  C   UNL     1      42.674 -16.413   5.645  1.00  0.00     0.174 C 
HETATM   21  S   UNL     1      42.342 -17.410   6.958  1.00  0.00    -0.041 SA
BRANCH  20  22
HETATM   22  N   UNL     1      43.626 -16.857   4.767  1.00  0.00    -0.333 N 
HETATM   23  H   UNL     1      44.507 -16.363   4.861  1.00  0.00     0.168 HD
BRANCH  22  24
HETATM   24  C   UNL     1      43.670 -18.013   3.958  1.00  0.00     0.034 A 
HETATM   25  C   UNL     1      42.934 -18.173   2.784  1.00  0.00     0.030 A 
HETATM   26  C   UNL     1      43.015 -19.359   2.046  1.00  0.00     0.009 A 
HETATM   27  C   UNL     1      43.814 -20.417   2.489  1.00  0.00    -0.062 A 
HETATM   28  C   UNL     1      43.930 -21.677   1.684  1.00  0.00     0.048 C 
HETATM   29  C   UNL     1      44.538 -20.266   3.674  1.00  0.00     0.009 A 
HETATM   30  C   UNL     1      44.457 -19.078   4.408  1.00  0.00     0.030 A 
ENDBRANCH  22  24
ENDBRANCH  20  22
ENDBRANCH   1  20
TORSDOF 6
ENDMDL
MODEL 6
REMARK VINA RESULT:      -7.7      3.060      5.719
REMARK  6 active torsions:
REMARK  status: ('A' for Active; 'I' for Inactive)
REMARK    1  A    between atoms: C_5  and  N_6 
REMARK    2  A    between atoms: N_6  and  C_7 
REMARK    3  A    between atoms: C_7  and  N_8 
REMARK    4  A    between atoms: C_11  and  C_12 
REMARK    5  A    between atoms: N_14  and  C_15 
REMARK    6  A    between atoms: C_21  and  O_22 
ROOT
HETATM    1  N   UNL     1      40.694 -13.214   3.803  1.00  0.00    -0.358 N 
HETATM    2  C   UNL     1      42.159 -13.087   3.834  1.00  0.00     0.126 C 
HETATM    3  C   UNL     1      42.779 -13.849   5.003  1.00  0.00     0.031 C 
HETATM    4  C   UNL     1      42.307 -15.313   5.073  1.00  0.00     0.043 C 
HETATM    5  C   UNL     1      40.769 -15.345   5.030  1.00  0.00     0.031 C 
HETATM    6  C   UNL     1      40.222 -14.600   3.816  1.00  0.00     0.126 C 
ENDROOT
BRANCH   4   7
HETATM    7  C   UNL     1      42.931 -16.226   4.043  1.00  0.00     0.063 C 
HETATM    8  N   UNL     1      42.857 -17.557   4.148  1.00  0.00    -0.169 NA
HETATM    9  N   UNL     1      43.563 -18.042   3.088  1.00  0.00    -0.211 N 
HETATM   10  C   UNL     1      43.904 -17.015   2.208  1.00  0.00     0.165 C 
HETATM   11  C   UNL     1      43.572 -15.844   2.844  1.00  0.00     0.087 C 
BRANCH   9  12
HETATM   12  C   UNL     1      43.848 -19.434   2.996  1.00  0.00     0.061 A 
HETATM   13  C   UNL     1      43.349 -20.165   1.908  1.00  0.00     0.031 A 
HETATM   14  C   UNL     1      43.632 -21.527   1.786  1.00  0.00     0.002 A 
HETATM   15  C   UNL     1      44.395 -22.171   2.757  1.00  0.00     0.000 A 
HETATM   16  C   UNL     1      44.865 -21.460   3.860  1.00  0.00     0.002 A 
HETATM   17  C   UNL     1      44.591 -20.095   3.984  1.00  0.00     0.031 A 
ENDBRANCH   9  12
BRANCH  10  18
HETATM   18  O   UNL     1      44.401 -17.171   0.980  1.00  0.00    -0.345 OA
HETATM   19  H   UNL     1      43.821 -16.707   0.350  1.00  0.00     0.219 HD
ENDBRANCH  10  18
ENDBRANCH   4   7
BRANCH   1  20
HETATM   20  C   UNL     1      39.989 -12.238   3.111  1.00  0.00     0.174 C 
HETATM   21  S   UNL     1      38.706 -11.350   3.736  1.00  0.00    -0.041 SA
BRANCH  20  22
HETATM   22  N   UNL     1      40.308 -12.009   1.800  1.00  0.00    -0.333 N 
HETATM   23  H   UNL     1      40.692 -11.082   1.646  1.00  0.00     0.168 HD
BRANCH  22  24
HETATM   24  C   UNL     1      40.429 -12.896   0.709  1.00  0.00     0.034 A 
HETATM   25  C   UNL     1      41.627 -13.495   0.318  1.00  0.00     0.030 A 
HETATM   26  C   UNL     1      41.671 -14.349  -0.789  1.00  0.00     0.009 A 
HETATM   27  C   UNL     1      40.519 -14.596  -1.542  1.00  0.00    -0.062 A 
HETATM   28  C   UNL     1      40.554 -15.536  -2.709  1.00  0.00     0.048 C 
HETATM   29  C   UNL     1      39.321 -13.983  -1.164  1.00  0.00     0.009 A 
HETATM   30  C   UNL     1      39.280 -13.132  -0.054  1.00  0.00     0.030 A 
ENDBRANCH  22  24
ENDBRANCH  20  22
ENDBRANCH   1  20
TORSDOF 6
ENDMDL
MODEL 7
REMARK VINA RESULT:      -7.6      3.816      6.851
REMARK  6 active torsions:
REMARK  status: ('A' for Active; 'I' for Inactive)
REMARK    1  A    between atoms: C_5  and  N_6 
REMARK    2  A    between atoms: N_6  and  C_7 
REMARK    3  A    between atoms: C_7  and  N_8 
REMARK    4  A    between atoms: C_11  and  C_12 
REMARK    5  A    between atoms: N_14  and  C_15 
REMARK    6  A    between atoms: C_21  and  O_22 
ROOT
HETATM    1  N   UNL     1      40.971 -15.541   3.315  1.00  0.00    -0.358 N 
HETATM    2  C   UNL     1      40.164 -16.167   2.257  1.00  0.00     0.126 C 
HETATM    3  C   UNL     1      39.040 -15.253   1.773  1.00  0.00     0.031 C 
HETATM    4  C   UNL     1      39.542 -13.850   1.387  1.00  0.00     0.043 C 
HETATM    5  C   UNL     1      40.377 -13.280   2.548  1.00  0.00     0.031 C 
HETATM    6  C   UNL     1      41.504 -14.226   2.952  1.00  0.00     0.126 C 
ENDROOT
BRANCH   4   7
HETATM    7  C   UNL     1      40.273 -13.783   0.066  1.00  0.00     0.063 C 
HETATM    8  N   UNL     1      40.764 -12.633  -0.407  1.00  0.00    -0.169 NA
HETATM    9  N   UNL     1      41.301 -12.943  -1.621  1.00  0.00    -0.211 N 
HETATM   10  C   UNL     1      41.327 -14.325  -1.814  1.00  0.00     0.165 C 
HETATM   11  C   UNL     1      40.606 -14.866  -0.778  1.00  0.00     0.087 C 
BRANCH   9  12
HETATM   12  C   UNL     1      41.748 -11.908  -2.490  1.00  0.00     0.061 A 
HETATM   13  C   UNL     1      41.504 -12.017  -3.868  1.00  0.00     0.031 A 
HETATM   14  C   UNL     1      41.916 -11.005  -4.737  1.00  0.00     0.002 A 
HETATM   15  C   UNL     1      42.590  -9.891  -4.243  1.00  0.00     0.000 A 
HETATM   16  C   UNL     1      42.867  -9.792  -2.880  1.00  0.00     0.002 A 
HETATM   17  C   UNL     1      42.452 -10.798  -2.004  1.00  0.00     0.031 A 
ENDBRANCH   9  12
BRANCH  10  18
HETATM   18  O   UNL     1      41.976 -14.966  -2.786  1.00  0.00    -0.345 OA
HETATM   19  H   UNL     1      41.852 -15.924  -2.663  1.00  0.00     0.219 HD
ENDBRANCH  10  18
ENDBRANCH   4   7
BRANCH   1  20
HETATM   20  C   UNL     1      41.696 -16.388   4.143  1.00  0.00     0.174 C 
HETATM   21  S   UNL     1      41.241 -16.841   5.697  1.00  0.00    -0.041 SA
BRANCH  20  22
HETATM   22  N   UNL     1      42.906 -16.853   3.702  1.00  0.00    -0.333 N 
HETATM   23  H   UNL     1      43.652 -16.175   3.818  1.00  0.00     0.168 HD
BRANCH  22  24
HETATM   24  C   UNL     1      43.328 -18.156   3.361  1.00  0.00     0.034 A 
HETATM   25  C   UNL     1      44.230 -18.907   4.115  1.00  0.00     0.030 A 
HETATM   26  C   UNL     1      44.616 -20.186   3.701  1.00  0.00     0.009 A 
HETATM   27  C   UNL     1      44.127 -20.724   2.507  1.00  0.00    -0.062 A 
HETATM   28  C   UNL     1      44.512 -22.108   2.076  1.00  0.00     0.048 C 
HETATM   29  C   UNL     1      43.237 -19.966   1.740  1.00  0.00     0.009 A 
HETATM   30  C   UNL     1      42.850 -18.689   2.159  1.00  0.00     0.030 A 
ENDBRANCH  22  24
ENDBRANCH  20  22
ENDBRANCH   1  20
TORSDOF 6
ENDMDL
MODEL 8
REMARK VINA RESULT:      -7.5      2.738      4.854
REMARK  6 active torsions:
REMARK  status: ('A' for Active; 'I' for Inactive)
REMARK    1  A    between atoms: C_5  and  N_6 
REMARK    2  A    between atoms: N_6  and  C_7 
REMARK    3  A    between atoms: C_7  and  N_8 
REMARK    4  A    between atoms: C_11  and  C_12 
REMARK    5  A    between atoms: N_14  and  C_15 
REMARK    6  A    between atoms: C_21  and  O_22 
ROOT
HETATM    1  N   UNL     1      40.946 -14.423   1.463  1.00  0.00    -0.358 N 
HETATM    2  C   UNL     1      40.277 -15.281   2.453  1.00  0.00     0.126 C 
HETATM    3  C   UNL     1      39.869 -16.630   1.865  1.00  0.00     0.031 C 
HETATM    4  C   UNL     1      41.033 -17.342   1.152  1.00  0.00     0.043 C 
HETATM    5  C   UNL     1      41.671 -16.369   0.144  1.00  0.00     0.031 C 
HETATM    6  C   UNL     1      42.090 -15.061   0.808  1.00  0.00     0.126 C 
ENDROOT
BRANCH   4   7
HETATM    7  C   UNL     1      42.053 -17.963   2.077  1.00  0.00     0.063 C 
HETATM    8  N   UNL     1      42.028 -17.747   3.397  1.00  0.00    -0.169 NA
HETATM    9  N   UNL     1      43.109 -18.413   3.891  1.00  0.00    -0.211 N 
HETATM   10  C   UNL     1      43.691 -19.214   2.909  1.00  0.00     0.165 C 
HETATM   11  C   UNL     1      43.073 -18.877   1.730  1.00  0.00     0.087 C 
BRANCH   9  12
HETATM   12  C   UNL     1      43.494 -18.240   5.252  1.00  0.00     0.061 A 
HETATM   13  C   UNL     1      44.845 -18.382   5.604  1.00  0.00     0.031 A 
HETATM   14  C   UNL     1      45.248 -18.198   6.928  1.00  0.00     0.002 A 
HETATM   15  C   UNL     1      44.308 -17.892   7.910  1.00  0.00     0.000 A 
HETATM   16  C   UNL     1      42.960 -17.785   7.573  1.00  0.00     0.002 A 
HETATM   17  C   UNL     1      42.549 -17.961   6.249  1.00  0.00     0.031 A 
ENDBRANCH   9  12
BRANCH  10  18
HETATM   18  O   UNL     1      44.621 -20.148   3.111  1.00  0.00    -0.345 OA
HETATM   19  H   UNL     1      45.043 -20.356   2.259  1.00  0.00     0.219 HD
ENDBRANCH  10  18
ENDBRANCH   4   7
BRANCH   1  20
HETATM   20  C   UNL     1      40.949 -13.057   1.708  1.00  0.00     0.174 C 
HETATM   21  S   UNL     1      39.847 -11.959   1.068  1.00  0.00    -0.041 SA
BRANCH  20  22
HETATM   22  N   UNL     1      41.952 -12.534   2.478  1.00  0.00    -0.333 N 
HETATM   23  H   UNL     1      42.227 -11.603   2.185  1.00  0.00     0.168 HD
BRANCH  22  24
HETATM   24  C   UNL     1      42.475 -12.950   3.722  1.00  0.00     0.034 A 
HETATM   25  C   UNL     1      41.972 -12.541   4.957  1.00  0.00     0.030 A 
HETATM   26  C   UNL     1      42.557 -12.981   6.148  1.00  0.00     0.009 A 
HETATM   27  C   UNL     1      43.678 -13.815   6.123  1.00  0.00    -0.062 A 
HETATM   28  C   UNL     1      44.289 -14.316   7.398  1.00  0.00     0.048 C 
HETATM   29  C   UNL     1      44.196 -14.212   4.887  1.00  0.00     0.009 A 
HETATM   30  C   UNL     1      43.606 -13.773   3.697  1.00  0.00     0.030 A 
ENDBRANCH  22  24
ENDBRANCH  20  22
ENDBRANCH   1  20
TORSDOF 6
ENDMDL
MODEL 9
REMARK VINA RESULT:      -7.4      4.260      7.525
REMARK  6 active torsions:
REMARK  status: ('A' for Active; 'I' for Inactive)
REMARK    1  A    between atoms: C_5  and  N_6 
REMARK    2  A    between atoms: N_6  and  C_7 
REMARK    3  A    between atoms: C_7  and  N_8 
REMARK    4  A    between atoms: C_11  and  C_12 
REMARK    5  A    between atoms: N_14  and  C_15 
REMARK    6  A    between atoms: C_21  and  O_22 
ROOT
HETATM    1  N   UNL     1      41.989 -12.388   5.717  1.00  0.00    -0.358 N 
HETATM    2  C   UNL     1      41.318 -12.752   4.460  1.00  0.00     0.126 C 
HETATM    3  C   UNL     1      42.315 -13.072   3.348  1.00  0.00     0.031 C 
HETATM    4  C   UNL     1      43.373 -14.104   3.778  1.00  0.00     0.043 C 
HETATM    5  C   UNL     1      44.013 -13.643   5.099  1.00  0.00     0.031 C 
HETATM    6  C   UNL     1      42.963 -13.381   6.175  1.00  0.00     0.126 C 
ENDROOT
BRANCH   4   7
HETATM    7  C   UNL     1      42.872 -15.528   3.848  1.00  0.00     0.063 C 
HETATM    8  N   UNL     1      43.687 -16.570   3.656  1.00  0.00    -0.169 NA
HETATM    9  N   UNL     1      42.891 -17.672   3.742  1.00  0.00    -0.211 N 
HETATM   10  C   UNL     1      41.616 -17.329   4.192  1.00  0.00     0.165 C 
HETATM   11  C   UNL     1      41.570 -15.957   4.190  1.00  0.00     0.087 C 
BRANCH   9  12
HETATM   12  C   UNL     1      43.405 -18.955   3.397  1.00  0.00     0.061 A 
HETATM   13  C   UNL     1      43.017 -19.545   2.185  1.00  0.00     0.031 A 
HETATM   14  C   UNL     1      43.524 -20.793   1.817  1.00  0.00     0.002 A 
HETATM   15  C   UNL     1      44.402 -21.468   2.662  1.00  0.00     0.000 A 
HETATM   16  C   UNL     1      44.764 -20.904   3.885  1.00  0.00     0.002 A 
HETATM   17  C   UNL     1      44.266 -19.652   4.256  1.00  0.00     0.031 A 
ENDBRANCH   9  12
BRANCH  10  18
HETATM   18  O   UNL     1      40.671 -18.183   4.588  1.00  0.00    -0.345 OA
HETATM   19  H   UNL     1      40.020 -18.280   3.870  1.00  0.00     0.219 HD
ENDBRANCH  10  18
ENDBRANCH   4   7
BRANCH   1  20
HETATM   20  C   UNL     1      41.254 -11.649   6.636  1.00  0.00     0.174 C 
HETATM   21  S   UNL     1      39.631 -11.897   6.995  1.00  0.00    -0.041 SA
BRANCH  20  22
HETATM   22  N   UNL     1      41.864 -10.596   7.262  1.00  0.00    -0.333 N 
HETATM   23  H   UNL     1      41.897  -9.763   6.684  1.00  0.00     0.168 HD
BRANCH  22  24
HETATM   24  C   UNL     1      42.212 -10.401   8.616  1.00  0.00     0.034 A 
HETATM   25  C   UNL     1      41.567  -9.505   9.468  1.00  0.00     0.030 A 
HETATM   26  C   UNL     1      41.984  -9.353  10.794  1.00  0.00     0.009 A 
HETATM   27  C   UNL     1      43.076 -10.076  11.282  1.00  0.00    -0.062 A 
HETATM   28  C   UNL     1      43.507  -9.940  12.712  1.00  0.00     0.048 C 
HETATM   29  C   UNL     1      43.737 -10.960  10.426  1.00  0.00     0.009 A 
HETATM   30  C   UNL     1      43.315 -11.113   9.101  1.00  0.00     0.030 A 
ENDBRANCH  22  24
ENDBRANCH  20  22
ENDBRANCH   1  20
TORSDOF 6
ENDMDL
MODEL 10
REMARK VINA RESULT:      -7.4      3.334      6.477
REMARK  6 active torsions:
REMARK  status: ('A' for Active; 'I' for Inactive)
REMARK    1  A    between atoms: C_5  and  N_6 
REMARK    2  A    between atoms: N_6  and  C_7 
REMARK    3  A    between atoms: C_7  and  N_8 
REMARK    4  A    between atoms: C_11  and  C_12 
REMARK    5  A    between atoms: N_14  and  C_15 
REMARK    6  A    between atoms: C_21  and  O_22 
ROOT
HETATM    1  N   UNL     1      42.049 -16.508   3.420  1.00  0.00    -0.358 N 
HETATM    2  C   UNL     1      43.035 -15.994   2.456  1.00  0.00     0.126 C 
HETATM    3  C   UNL     1      42.824 -16.565   1.056  1.00  0.00     0.031 C 
HETATM    4  C   UNL     1      41.374 -16.408   0.564  1.00  0.00     0.043 C 
HETATM    5  C   UNL     1      40.419 -16.966   1.635  1.00  0.00     0.031 C 
HETATM    6  C   UNL     1      40.660 -16.322   2.997  1.00  0.00     0.126 C 
ENDROOT
BRANCH   4   7
HETATM    7  C   UNL     1      41.002 -15.007   0.136  1.00  0.00     0.063 C 
HETATM    8  N   UNL     1      41.891 -14.189  -0.438  1.00  0.00    -0.169 NA
HETATM    9  N   UNL     1      41.226 -13.016  -0.636  1.00  0.00    -0.211 N 
HETATM   10  C   UNL     1      39.864 -13.167  -0.374  1.00  0.00     0.165 C 
HETATM   11  C   UNL     1      39.723 -14.411   0.191  1.00  0.00     0.087 C 
BRANCH   9  12
HETATM   12  C   UNL     1      41.934 -11.856  -1.062  1.00  0.00     0.061 A 
HETATM   13  C   UNL     1      42.103 -11.623  -2.435  1.00  0.00     0.031 A 
HETATM   14  C   UNL     1      42.777 -10.482  -2.876  1.00  0.00     0.002 A 
HETATM   15  C   UNL     1      43.303  -9.581  -1.954  1.00  0.00     0.000 A 
HETATM   16  C   UNL     1      43.171  -9.824  -0.588  1.00  0.00     0.002 A 
HETATM   17  C   UNL     1      42.491 -10.960  -0.139  1.00  0.00     0.031 A 
ENDBRANCH   9  12
BRANCH  10  18
HETATM   18  O   UNL     1      38.909 -12.287  -0.673  1.00  0.00    -0.345 OA
HETATM   19  H   UNL     1      38.136 -12.464  -0.107  1.00  0.00     0.219 HD
ENDBRANCH  10  18
ENDBRANCH   4   7
BRANCH   1  20
HETATM   20  C   UNL     1      42.389 -16.449   4.765  1.00  0.00     0.174 C 
HETATM   21  S   UNL     1      41.528 -15.610   5.941  1.00  0.00    -0.041 SA
BRANCH  20  22
HETATM   22  N   UNL     1      43.541 -17.063   5.174  1.00  0.00    -0.333 N 
HETATM   23  H   UNL     1      44.102 -16.478   5.784  1.00  0.00     0.168 HD
BRANCH  22  24
HETATM   24  C   UNL     1      43.945 -18.414   5.102  1.00  0.00     0.034 A 
HETATM   25  C   UNL     1      44.432 -19.023   3.946  1.00  0.00     0.030 A 
HETATM   26  C   UNL     1      44.793 -20.375   3.948  1.00  0.00     0.009 A 
HETATM   27  C   UNL     1      44.644 -21.148   5.103  1.00  0.00    -0.062 A 
HETATM   28  C   UNL     1      45.060 -22.588   5.119  1.00  0.00     0.048 C 
HETATM   29  C   UNL     1      44.138 -20.545   6.258  1.00  0.00     0.009 A 
HETATM   30  C   UNL     1      43.782 -19.192   6.253  1.00  0.00     0.030 A 
ENDBRANCH  22  24
ENDBRANCH  20  22
ENDBRANCH   1  20
TORSDOF 6
ENDMDL
