MODEL 1
REMARK VINA RESULT:      -8.0      0.000      0.000
REMARK  5 active torsions:
REMARK  status: ('A' for Active; 'I' for Inactive)
REMARK    1  A    between atoms: C_4  and  N_5 
REMARK       I    between atoms: N_5  and  C_6 
REMARK       I    between atoms: C_6  and  N_7 
REMARK    2  A    between atoms: N_7  and  C_8 
REMARK    3  A    between atoms: C_8  and  C_9 
REMARK    4  A    between atoms: C_9  and  N_10 
REMARK    5  A    between atoms: C_9  and  C_14 
ROOT
HETATM    1  N   UNL     1      44.066 -17.989   5.660  1.00  0.00    -0.307 N 
HETATM    2  C   UNL     1      43.345 -17.051   6.313  1.00  0.00     0.320 C 
HETATM    3  N   UNL     1      42.121 -16.726   5.817  1.00  0.00    -0.340 N 
HETATM    4  O   UNL     1      43.743 -16.573   7.373  1.00  0.00    -0.247 OA
HETATM    5  H   UNL     1      44.850 -18.353   6.206  1.00  0.00     0.170 HD
HETATM    6  H   UNL     1      41.706 -17.362   5.151  1.00  0.00     0.164 HD
ENDROOT
BRANCH   1   7
HETATM    7  C   UNL     1      44.020 -18.546   4.358  1.00  0.00     0.066 A 
HETATM    8  C   UNL     1      43.825 -17.795   3.193  1.00  0.00     0.038 A 
HETATM    9  C   UNL     1      43.771 -18.420   1.942  1.00  0.00    -0.059 A 
HETATM   10  C   UNL     1      43.572 -17.618   0.689  1.00  0.00     0.048 C 
HETATM   11  C   UNL     1      43.984 -19.800   1.863  1.00  0.00     0.020 A 
HETATM   12  C   UNL     1      44.240 -20.553   3.021  1.00  0.00    -0.005 A 
HETATM   13  C   UNL     1      44.258 -19.930   4.287  1.00  0.00     0.093 A 
HETATM   14  C   UNL     1      44.493 -21.929   2.954  1.00  0.00     0.015 A 
HETATM   15  N   UNL     1      44.502 -20.629   5.420  1.00  0.00    -0.258 NA
HETATM   16  C   UNL     1      44.752 -21.954   5.313  1.00  0.00     0.117 A 
HETATM   17  C   UNL     1      44.758 -22.642   4.116  1.00  0.00     0.020 A 
ENDBRANCH   1   7
BRANCH   3  18
HETATM   18  C   UNL     1      41.361 -15.593   6.323  1.00  0.00     0.164 C 
BRANCH  18  19
HETATM   19  C   UNL     1      41.754 -14.191   5.793  1.00  0.00     0.261 C 
BRANCH  19  20
HETATM   20  N   UNL     1      40.856 -13.047   6.267  1.00  0.00    -0.067 N 
HETATM   21  H   UNL     1      40.634 -13.335   7.231  1.00  0.00     0.280 HD
HETATM   22  C   UNL     1      41.504 -11.704   6.430  1.00  0.00     0.270 C 
HETATM   23  C   UNL     1      39.554 -12.953   5.533  1.00  0.00     0.270 C 
ENDBRANCH  19  20
BRANCH  19  24
HETATM   24  C   UNL     1      41.957 -14.151   4.305  1.00  0.00     0.085 A 
HETATM   25  O   UNL     1      41.251 -15.084   3.593  1.00  0.00    -0.325 OA
HETATM   26  C   UNL     1      41.534 -14.884   2.280  1.00  0.00     0.142 A 
HETATM   27  C   UNL     1      42.410 -13.836   2.133  1.00  0.00     0.027 A 
HETATM   28  C   UNL     1      42.680 -13.356   3.438  1.00  0.00     0.037 A 
ENDBRANCH  19  24
ENDBRANCH  18  19
ENDBRANCH   3  18
TORSDOF 5
ENDMDL
MODEL 2
REMARK VINA RESULT:      -7.8      2.240      4.100
REMARK  5 active torsions:
REMARK  status: ('A' for Active; 'I' for Inactive)
REMARK    1  A    between atoms: C_4  and  N_5 
REMARK       I    between atoms: N_5  and  C_6 
REMARK       I    between atoms: C_6  and  N_7 
REMARK    2  A    between atoms: N_7  and  C_8 
REMARK    3  A    between atoms: C_8  and  C_9 
REMARK    4  A    between atoms: C_9  and  N_10 
REMARK    5  A    between atoms: C_9  and  C_14 
ROOT
HETATM    1  N   UNL     1      43.313 -16.987   1.664  1.00  0.00    -0.307 N 
HETATM    2  C   UNL     1      42.155 -16.333   1.422  1.00  0.00     0.320 C 
HETATM    3  N   UNL     1      41.094 -16.590   2.233  1.00  0.00    -0.340 N 
HETATM    4  O   UNL     1      42.090 -15.464   0.555  1.00  0.00    -0.247 OA
HETATM    5  H   UNL     1      44.118 -16.580   1.184  1.00  0.00     0.170 HD
HETATM    6  H   UNL     1      41.282 -17.052   3.111  1.00  0.00     0.164 HD
ENDROOT
BRANCH   1   7
HETATM    7  C   UNL     1      43.658 -18.154   2.388  1.00  0.00     0.066 A 
HETATM    8  C   UNL     1      43.902 -19.399   1.795  1.00  0.00     0.038 A 
HETATM    9  C   UNL     1      44.219 -20.513   2.580  1.00  0.00    -0.059 A 
HETATM   10  C   UNL     1      44.490 -21.848   1.948  1.00  0.00     0.048 C 
HETATM   11  C   UNL     1      44.358 -20.353   3.962  1.00  0.00     0.020 A 
HETATM   12  C   UNL     1      44.175 -19.095   4.559  1.00  0.00    -0.005 A 
HETATM   13  C   UNL     1      43.819 -17.978   3.774  1.00  0.00     0.093 A 
HETATM   14  C   UNL     1      44.349 -18.910   5.936  1.00  0.00     0.015 A 
HETATM   15  N   UNL     1      43.636 -16.753   4.321  1.00  0.00    -0.258 NA
HETATM   16  C   UNL     1      43.822 -16.613   5.653  1.00  0.00     0.117 A 
HETATM   17  C   UNL     1      44.175 -17.650   6.494  1.00  0.00     0.020 A 
ENDBRANCH   1   7
BRANCH   3  18
HETATM   18  C   UNL     1      39.758 -16.097   1.934  1.00  0.00     0.164 C 
BRANCH  18  19
HETATM   19  C   UNL     1      39.382 -14.705   2.503  1.00  0.00     0.261 C 
BRANCH  19  20
HETATM   20  N   UNL     1      39.387 -13.567   1.481  1.00  0.00    -0.067 N 
HETATM   21  H   UNL     1      40.391 -13.352   1.406  1.00  0.00     0.280 HD
HETATM   22  C   UNL     1      38.984 -13.919   0.079  1.00  0.00     0.270 C 
HETATM   23  C   UNL     1      38.713 -12.318   1.959  1.00  0.00     0.270 C 
ENDBRANCH  19  20
BRANCH  19  24
HETATM   24  C   UNL     1      40.152 -14.338   3.740  1.00  0.00     0.085 A 
HETATM   25  O   UNL     1      41.390 -13.795   3.518  1.00  0.00    -0.325 OA
HETATM   26  C   UNL     1      41.923 -13.505   4.733  1.00  0.00     0.142 A 
HETATM   27  C   UNL     1      41.048 -13.849   5.735  1.00  0.00     0.027 A 
HETATM   28  C   UNL     1      39.901 -14.381   5.097  1.00  0.00     0.037 A 
ENDBRANCH  19  24
ENDBRANCH  18  19
ENDBRANCH   3  18
TORSDOF 5
ENDMDL
MODEL 3
REMARK VINA RESULT:      -7.8      2.208      3.867
REMARK  5 active torsions:
REMARK  status: ('A' for Active; 'I' for Inactive)
REMARK    1  A    between atoms: C_4  and  N_5 
REMARK       I    between atoms: N_5  and  C_6 
REMARK       I    between atoms: C_6  and  N_7 
REMARK    2  A    between atoms: N_7  and  C_8 
REMARK    3  A    between atoms: C_8  and  C_9 
REMARK    4  A    between atoms: C_9  and  N_10 
REMARK    5  A    between atoms: C_9  and  C_14 
ROOT
HETATM    1  N   UNL     1      43.928 -17.744   2.807  1.00  0.00    -0.307 N 
HETATM    2  C   UNL     1      42.880 -17.244   2.115  1.00  0.00     0.320 C 
HETATM    3  N   UNL     1      41.690 -17.117   2.760  1.00  0.00    -0.340 N 
HETATM    4  O   UNL     1      43.022 -16.831   0.966  1.00  0.00    -0.247 OA
HETATM    5  H   UNL     1      44.829 -17.592   2.349  1.00  0.00     0.170 HD
HETATM    6  H   UNL     1      41.702 -17.159   3.769  1.00  0.00     0.164 HD
ENDROOT
BRANCH   1   7
HETATM    7  C   UNL     1      44.059 -18.492   4.003  1.00  0.00     0.066 A 
HETATM    8  C   UNL     1      43.919 -17.947   5.285  1.00  0.00     0.038 A 
HETATM    9  C   UNL     1      44.083 -18.747   6.422  1.00  0.00    -0.059 A 
HETATM   10  C   UNL     1      43.925 -18.170   7.799  1.00  0.00     0.048 C 
HETATM   11  C   UNL     1      44.320 -20.116   6.260  1.00  0.00     0.020 A 
HETATM   12  C   UNL     1      44.402 -20.682   4.978  1.00  0.00    -0.005 A 
HETATM   13  C   UNL     1      44.274 -19.871   3.830  1.00  0.00     0.093 A 
HETATM   14  C   UNL     1      44.600 -22.057   4.800  1.00  0.00     0.015 A 
HETATM   15  N   UNL     1      44.348 -20.388   2.581  1.00  0.00    -0.258 NA
HETATM   16  C   UNL     1      44.531 -21.722   2.451  1.00  0.00     0.117 A 
HETATM   17  C   UNL     1      44.662 -22.589   3.518  1.00  0.00     0.020 A 
ENDBRANCH   1   7
BRANCH   3  18
HETATM   18  C   UNL     1      40.463 -16.783   2.053  1.00  0.00     0.164 C 
BRANCH  18  19
HETATM   19  C   UNL     1      39.766 -15.456   2.447  1.00  0.00     0.261 C 
BRANCH  19  20
HETATM   20  N   UNL     1      39.539 -14.480   1.291  1.00  0.00    -0.067 N 
HETATM   21  H   UNL     1      39.914 -13.602   1.676  1.00  0.00     0.280 HD
HETATM   22  C   UNL     1      40.348 -14.707   0.048  1.00  0.00     0.270 C 
HETATM   23  C   UNL     1      38.094 -14.233   0.979  1.00  0.00     0.270 C 
ENDBRANCH  19  20
BRANCH  19  24
HETATM   24  C   UNL     1      40.401 -14.776   3.626  1.00  0.00     0.085 A 
HETATM   25  O   UNL     1      41.575 -14.121   3.361  1.00  0.00    -0.325 OA
HETATM   26  C   UNL     1      41.986 -13.551   4.523  1.00  0.00     0.142 A 
HETATM   27  C   UNL     1      41.095 -13.824   5.533  1.00  0.00     0.027 A 
HETATM   28  C   UNL     1      40.067 -14.608   4.955  1.00  0.00     0.037 A 
ENDBRANCH  19  24
ENDBRANCH  18  19
ENDBRANCH   3  18
TORSDOF 5
ENDMDL
MODEL 4
REMARK VINA RESULT:      -7.5      4.217      6.285
REMARK  5 active torsions:
REMARK  status: ('A' for Active; 'I' for Inactive)
REMARK    1  A    between atoms: C_4  and  N_5 
REMARK       I    between atoms: N_5  and  C_6 
REMARK       I    between atoms: C_6  and  N_7 
REMARK    2  A    between atoms: N_7  and  C_8 
REMARK    3  A    between atoms: C_8  and  C_9 
REMARK    4  A    between atoms: C_9  and  N_10 
REMARK    5  A    between atoms: C_9  and  C_14 
ROOT
HETATM    1  N   UNL     1      40.171 -16.742   2.683  1.00  0.00    -0.307 N 
HETATM    2  C   UNL     1      39.798 -15.846   1.743  1.00  0.00     0.320 C 
HETATM    3  N   UNL     1      40.620 -15.660   0.676  1.00  0.00    -0.340 N 
HETATM    4  O   UNL     1      38.706 -15.284   1.803  1.00  0.00    -0.247 OA
HETATM    5  H   UNL     1      39.414 -17.005   3.318  1.00  0.00     0.170 HD
HETATM    6  H   UNL     1      41.326 -16.362   0.506  1.00  0.00     0.164 HD
ENDROOT
BRANCH   1   7
HETATM    7  C   UNL     1      41.397 -17.361   3.032  1.00  0.00     0.066 A 
HETATM    8  C   UNL     1      42.025 -18.345   2.258  1.00  0.00     0.038 A 
HETATM    9  C   UNL     1      43.226 -18.924   2.680  1.00  0.00    -0.059 A 
HETATM   10  C   UNL     1      43.908 -19.972   1.849  1.00  0.00     0.048 C 
HETATM   11  C   UNL     1      43.830 -18.458   3.852  1.00  0.00     0.020 A 
HETATM   12  C   UNL     1      43.238 -17.430   4.603  1.00  0.00    -0.005 A 
HETATM   13  C   UNL     1      42.008 -16.870   4.200  1.00  0.00     0.093 A 
HETATM   14  C   UNL     1      43.850 -16.926   5.758  1.00  0.00     0.015 A 
HETATM   15  N   UNL     1      41.413 -15.877   4.903  1.00  0.00    -0.258 NA
HETATM   16  C   UNL     1      42.040 -15.411   6.007  1.00  0.00     0.117 A 
HETATM   17  C   UNL     1      43.246 -15.898   6.470  1.00  0.00     0.020 A 
ENDBRANCH   1   7
BRANCH   3  18
HETATM   18  C   UNL     1      40.412 -14.582  -0.278  1.00  0.00     0.164 C 
BRANCH  18  19
HETATM   19  C   UNL     1      40.907 -14.822  -1.727  1.00  0.00     0.261 C 
BRANCH  19  20
HETATM   20  N   UNL     1      41.888 -13.774  -2.255  1.00  0.00    -0.067 N 
HETATM   21  H   UNL     1      42.732 -14.339  -2.428  1.00  0.00     0.280 HD
HETATM   22  C   UNL     1      41.575 -13.171  -3.593  1.00  0.00     0.270 C 
HETATM   23  C   UNL     1      42.265 -12.732  -1.248  1.00  0.00     0.270 C 
ENDBRANCH  19  20
BRANCH  19  24
HETATM   24  C   UNL     1      39.794 -15.076  -2.703  1.00  0.00     0.085 A 
HETATM   25  O   UNL     1      40.032 -16.065  -3.620  1.00  0.00    -0.325 OA
HETATM   26  C   UNL     1      38.921 -16.171  -4.393  1.00  0.00     0.142 A 
HETATM   27  C   UNL     1      37.968 -15.268  -3.988  1.00  0.00     0.027 A 
HETATM   28  C   UNL     1      38.525 -14.564  -2.893  1.00  0.00     0.037 A 
ENDBRANCH  19  24
ENDBRANCH  18  19
ENDBRANCH   3  18
TORSDOF 5
ENDMDL
MODEL 5
REMARK VINA RESULT:      -7.5      1.009      2.757
REMARK  5 active torsions:
REMARK  status: ('A' for Active; 'I' for Inactive)
REMARK    1  A    between atoms: C_4  and  N_5 
REMARK       I    between atoms: N_5  and  C_6 
REMARK       I    between atoms: C_6  and  N_7 
REMARK    2  A    between atoms: N_7  and  C_8 
REMARK    3  A    between atoms: C_8  and  C_9 
REMARK    4  A    between atoms: C_9  and  N_10 
REMARK    5  A    between atoms: C_9  and  C_14 
ROOT
HETATM    1  N   UNL     1      44.393 -17.742   6.008  1.00  0.00    -0.307 N 
HETATM    2  C   UNL     1      43.502 -16.805   6.403  1.00  0.00     0.320 C 
HETATM    3  N   UNL     1      42.201 -16.968   6.042  1.00  0.00    -0.340 N 
HETATM    4  O   UNL     1      43.841 -15.883   7.142  1.00  0.00    -0.247 OA
HETATM    5  H   UNL     1      45.286 -17.689   6.503  1.00  0.00     0.170 HD
HETATM    6  H   UNL     1      41.919 -17.885   5.725  1.00  0.00     0.164 HD
ENDROOT
BRANCH   1   7
HETATM    7  C   UNL     1      44.395 -18.751   5.014  1.00  0.00     0.066 A 
HETATM    8  C   UNL     1      44.585 -20.112   5.281  1.00  0.00     0.038 A 
HETATM    9  C   UNL     1      44.594 -21.048   4.241  1.00  0.00    -0.059 A 
HETATM   10  C   UNL     1      44.788 -22.510   4.523  1.00  0.00     0.048 C 
HETATM   11  C   UNL     1      44.341 -20.616   2.936  1.00  0.00     0.020 A 
HETATM   12  C   UNL     1      44.090 -19.261   2.666  1.00  0.00    -0.005 A 
HETATM   13  C   UNL     1      44.117 -18.309   3.708  1.00  0.00     0.093 A 
HETATM   14  C   UNL     1      43.797 -18.818   1.370  1.00  0.00     0.015 A 
HETATM   15  N   UNL     1      43.879 -16.997   3.479  1.00  0.00    -0.258 NA
HETATM   16  C   UNL     1      43.590 -16.609   2.215  1.00  0.00     0.117 A 
HETATM   17  C   UNL     1      43.539 -17.472   1.139  1.00  0.00     0.020 A 
ENDBRANCH   1   7
BRANCH   3  18
HETATM   18  C   UNL     1      41.210 -15.922   6.241  1.00  0.00     0.164 C 
BRANCH  18  19
HETATM   19  C   UNL     1      41.453 -14.578   5.509  1.00  0.00     0.261 C 
BRANCH  19  20
HETATM   20  N   UNL     1      40.869 -13.349   6.208  1.00  0.00    -0.067 N 
HETATM   21  H   UNL     1      40.916 -13.624   7.199  1.00  0.00     0.280 HD
HETATM   22  C   UNL     1      41.680 -12.087   6.143  1.00  0.00     0.270 C 
HETATM   23  C   UNL     1      39.425 -13.100   5.896  1.00  0.00     0.270 C 
ENDBRANCH  19  20
BRANCH  19  24
HETATM   24  C   UNL     1      41.078 -14.614   4.055  1.00  0.00     0.085 A 
HETATM   25  O   UNL     1      40.358 -15.712   3.664  1.00  0.00    -0.325 OA
HETATM   26  C   UNL     1      40.089 -15.563   2.341  1.00  0.00     0.142 A 
HETATM   27  C   UNL     1      40.620 -14.386   1.873  1.00  0.00     0.027 A 
HETATM   28  C   UNL     1      41.253 -13.767   2.978  1.00  0.00     0.037 A 
ENDBRANCH  19  24
ENDBRANCH  18  19
ENDBRANCH   3  18
TORSDOF 5
ENDMDL
MODEL 6
REMARK VINA RESULT:      -7.4      2.326      3.852
REMARK  5 active torsions:
REMARK  status: ('A' for Active; 'I' for Inactive)
REMARK    1  A    between atoms: C_4  and  N_5 
REMARK       I    between atoms: N_5  and  C_6 
REMARK       I    between atoms: C_6  and  N_7 
REMARK    2  A    between atoms: N_7  and  C_8 
REMARK    3  A    between atoms: C_8  and  C_9 
REMARK    4  A    between atoms: C_9  and  N_10 
REMARK    5  A    between atoms: C_9  and  C_14 
ROOT
HETATM    1  N   UNL     1      41.443 -17.440   2.779  1.00  0.00    -0.307 N 
HETATM    2  C   UNL     1      41.141 -16.332   2.064  1.00  0.00     0.320 C 
HETATM    3  N   UNL     1      42.140 -15.447   1.806  1.00  0.00    -0.340 N 
HETATM    4  O   UNL     1      40.020 -16.176   1.584  1.00  0.00    -0.247 OA
HETATM    5  H   UNL     1      40.722 -18.163   2.732  1.00  0.00     0.170 HD
HETATM    6  H   UNL     1      43.090 -15.768   1.933  1.00  0.00     0.164 HD
ENDROOT
BRANCH   1   7
HETATM    7  C   UNL     1      42.510 -17.806   3.634  1.00  0.00     0.066 A 
HETATM    8  C   UNL     1      42.829 -17.133   4.820  1.00  0.00     0.038 A 
HETATM    9  C   UNL     1      43.914 -17.543   5.603  1.00  0.00    -0.059 A 
HETATM   10  C   UNL     1      44.253 -16.830   6.881  1.00  0.00     0.048 C 
HETATM   11  C   UNL     1      44.634 -18.679   5.224  1.00  0.00     0.020 A 
HETATM   12  C   UNL     1      44.284 -19.396   4.069  1.00  0.00    -0.005 A 
HETATM   13  C   UNL     1      43.215 -18.963   3.257  1.00  0.00     0.093 A 
HETATM   14  C   UNL     1      44.972 -20.558   3.696  1.00  0.00     0.015 A 
HETATM   15  N   UNL     1      42.854 -19.634   2.138  1.00  0.00    -0.258 NA
HETATM   16  C   UNL     1      43.536 -20.757   1.817  1.00  0.00     0.117 A 
HETATM   17  C   UNL     1      44.592 -21.254   2.555  1.00  0.00     0.020 A 
ENDBRANCH   1   7
BRANCH   3  18
HETATM   18  C   UNL     1      41.879 -14.138   1.227  1.00  0.00     0.164 C 
BRANCH  18  19
HETATM   19  C   UNL     1      41.364 -13.036   2.188  1.00  0.00     0.261 C 
BRANCH  19  20
HETATM   20  N   UNL     1      41.722 -11.607   1.779  1.00  0.00    -0.067 N 
HETATM   21  H   UNL     1      42.607 -11.455   2.282  1.00  0.00     0.280 HD
HETATM   22  C   UNL     1      42.080 -11.386   0.338  1.00  0.00     0.270 C 
HETATM   23  C   UNL     1      40.759 -10.573   2.278  1.00  0.00     0.270 C 
ENDBRANCH  19  20
BRANCH  19  24
HETATM   24  C   UNL     1      41.700 -13.297   3.628  1.00  0.00     0.085 A 
HETATM   25  O   UNL     1      40.693 -13.852   4.373  1.00  0.00    -0.325 OA
HETATM   26  C   UNL     1      41.179 -14.039   5.627  1.00  0.00     0.142 A 
HETATM   27  C   UNL     1      42.484 -13.617   5.703  1.00  0.00     0.027 A 
HETATM   28  C   UNL     1      42.826 -13.145   4.413  1.00  0.00     0.037 A 
ENDBRANCH  19  24
ENDBRANCH  18  19
ENDBRANCH   3  18
TORSDOF 5
ENDMDL
MODEL 7
REMARK VINA RESULT:      -7.4      2.660      4.899
REMARK  5 active torsions:
REMARK  status: ('A' for Active; 'I' for Inactive)
REMARK    1  A    between atoms: C_4  and  N_5 
REMARK       I    between atoms: N_5  and  C_6 
REMARK       I    between atoms: C_6  and  N_7 
REMARK    2  A    between atoms: N_7  and  C_8 
REMARK    3  A    between atoms: C_8  and  C_9 
REMARK    4  A    between atoms: C_9  and  N_10 
REMARK    5  A    between atoms: C_9  and  C_14 
ROOT
HETATM    1  N   UNL     1      40.087 -16.693   2.565  1.00  0.00    -0.307 N 
HETATM    2  C   UNL     1      39.832 -15.603   1.808  1.00  0.00     0.320 C 
HETATM    3  N   UNL     1      40.816 -15.151   0.986  1.00  0.00    -0.340 N 
HETATM    4  O   UNL     1      38.714 -15.091   1.794  1.00  0.00    -0.247 OA
HETATM    5  H   UNL     1      39.247 -17.114   2.969  1.00  0.00     0.170 HD
HETATM    6  H   UNL     1      41.583 -15.779   0.790  1.00  0.00     0.164 HD
ENDROOT
BRANCH   1   7
HETATM    7  C   UNL     1      41.268 -17.356   2.981  1.00  0.00     0.066 A 
HETATM    8  C   UNL     1      42.044 -18.168   2.146  1.00  0.00     0.038 A 
HETATM    9  C   UNL     1      43.188 -18.807   2.636  1.00  0.00    -0.059 A 
HETATM   10  C   UNL     1      44.030 -19.671   1.742  1.00  0.00     0.048 C 
HETATM   11  C   UNL     1      43.587 -18.569   3.955  1.00  0.00     0.020 A 
HETATM   12  C   UNL     1      42.847 -17.709   4.782  1.00  0.00    -0.005 A 
HETATM   13  C   UNL     1      41.673 -17.092   4.302  1.00  0.00     0.093 A 
HETATM   14  C   UNL     1      43.254 -17.430   6.093  1.00  0.00     0.015 A 
HETATM   15  N   UNL     1      40.939 -16.258   5.075  1.00  0.00    -0.258 NA
HETATM   16  C   UNL     1      41.370 -16.007   6.333  1.00  0.00     0.117 A 
HETATM   17  C   UNL     1      42.509 -16.563   6.881  1.00  0.00     0.020 A 
ENDBRANCH   1   7
BRANCH   3  18
HETATM   18  C   UNL     1      40.714 -13.878   0.289  1.00  0.00     0.164 C 
BRANCH  18  19
HETATM   19  C   UNL     1      41.344 -12.645   0.986  1.00  0.00     0.261 C 
BRANCH  19  20
HETATM   20  N   UNL     1      42.268 -11.807   0.101  1.00  0.00    -0.067 N 
HETATM   21  H   UNL     1      43.191 -11.993   0.519  1.00  0.00     0.280 HD
HETATM   22  C   UNL     1      42.418 -12.247  -1.325  1.00  0.00     0.270 C 
HETATM   23  C   UNL     1      42.037 -10.330   0.208  1.00  0.00     0.270 C 
ENDBRANCH  19  20
BRANCH  19  24
HETATM   24  C   UNL     1      41.987 -12.969   2.304  1.00  0.00     0.085 A 
HETATM   25  O   UNL     1      43.078 -13.794   2.235  1.00  0.00    -0.325 OA
HETATM   26  C   UNL     1      43.539 -13.954   3.503  1.00  0.00     0.142 A 
HETATM   27  C   UNL     1      42.766 -13.243   4.388  1.00  0.00     0.027 A 
HETATM   28  C   UNL     1      41.767 -12.600   3.617  1.00  0.00     0.037 A 
ENDBRANCH  19  24
ENDBRANCH  18  19
ENDBRANCH   3  18
TORSDOF 5
ENDMDL
MODEL 8
REMARK VINA RESULT:      -7.3      2.657      3.885
REMARK  5 active torsions:
REMARK  status: ('A' for Active; 'I' for Inactive)
REMARK    1  A    between atoms: C_4  and  N_5 
REMARK       I    between atoms: N_5  and  C_6 
REMARK       I    between atoms: C_6  and  N_7 
REMARK    2  A    between atoms: N_7  and  C_8 
REMARK    3  A    between atoms: C_8  and  C_9 
REMARK    4  A    between atoms: C_9  and  N_10 
REMARK    5  A    between atoms: C_9  and  C_14 
ROOT
HETATM    1  N   UNL     1      43.279 -17.862   1.922  1.00  0.00    -0.307 N 
HETATM    2  C   UNL     1      42.147 -17.203   1.590  1.00  0.00     0.320 C 
HETATM    3  N   UNL     1      41.417 -16.642   2.591  1.00  0.00    -0.340 N 
HETATM    4  O   UNL     1      41.834 -17.038   0.413  1.00  0.00    -0.247 OA
HETATM    5  H   UNL     1      43.891 -18.047   1.125  1.00  0.00     0.170 HD
HETATM    6  H   UNL     1      41.871 -16.523   3.486  1.00  0.00     0.164 HD
ENDROOT
BRANCH   1   7
HETATM    7  C   UNL     1      43.789 -18.414   3.123  1.00  0.00     0.066 A 
HETATM    8  C   UNL     1      43.964 -17.686   4.306  1.00  0.00     0.038 A 
HETATM    9  C   UNL     1      44.493 -18.297   5.449  1.00  0.00    -0.059 A 
HETATM   10  C   UNL     1      44.673 -17.523   6.722  1.00  0.00     0.048 C 
HETATM   11  C   UNL     1      44.780 -19.665   5.415  1.00  0.00     0.020 A 
HETATM   12  C   UNL     1      44.552 -20.417   4.251  1.00  0.00    -0.005 A 
HETATM   13  C   UNL     1      44.053 -19.795   3.087  1.00  0.00     0.093 A 
HETATM   14  C   UNL     1      44.799 -21.795   4.214  1.00  0.00     0.015 A 
HETATM   15  N   UNL     1      43.822 -20.493   1.951  1.00  0.00    -0.258 NA
HETATM   16  C   UNL     1      44.064 -21.824   1.957  1.00  0.00     0.117 A 
HETATM   17  C   UNL     1      44.548 -22.513   3.052  1.00  0.00     0.020 A 
ENDBRANCH   1   7
BRANCH   3  18
HETATM   18  C   UNL     1      40.090 -16.092   2.362  1.00  0.00     0.164 C 
BRANCH  18  19
HETATM   19  C   UNL     1      39.994 -14.561   2.140  1.00  0.00     0.261 C 
BRANCH  19  20
HETATM   20  N   UNL     1      39.488 -13.765   3.344  1.00  0.00    -0.067 N 
HETATM   21  H   UNL     1      38.478 -13.968   3.325  1.00  0.00     0.280 HD
HETATM   22  C   UNL     1      39.928 -14.238   4.698  1.00  0.00     0.270 C 
HETATM   23  C   UNL     1      39.632 -12.281   3.197  1.00  0.00     0.270 C 
ENDBRANCH  19  20
BRANCH  19  24
HETATM   24  C   UNL     1      39.261 -14.186   0.884  1.00  0.00     0.085 A 
HETATM   25  O   UNL     1      40.054 -13.916  -0.200  1.00  0.00    -0.325 OA
HETATM   26  C   UNL     1      39.229 -13.625  -1.238  1.00  0.00     0.142 A 
HETATM   27  C   UNL     1      37.915 -13.706  -0.843  1.00  0.00     0.027 A 
HETATM   28  C   UNL     1      37.932 -14.075   0.524  1.00  0.00     0.037 A 
ENDBRANCH  19  24
ENDBRANCH  18  19
ENDBRANCH   3  18
TORSDOF 5
ENDMDL
MODEL 9
REMARK VINA RESULT:      -7.2      3.174      5.134
REMARK  5 active torsions:
REMARK  status: ('A' for Active; 'I' for Inactive)
REMARK    1  A    between atoms: C_4  and  N_5 
REMARK       I    between atoms: N_5  and  C_6 
REMARK       I    between atoms: C_6  and  N_7 
REMARK    2  A    between atoms: N_7  and  C_8 
REMARK    3  A    between atoms: C_8  and  C_9 
REMARK    4  A    between atoms: C_9  and  N_10 
REMARK    5  A    between atoms: C_9  and  C_14 
ROOT
HETATM    1  N   UNL     1      40.822 -17.050   3.118  1.00  0.00    -0.307 N 
HETATM    2  C   UNL     1      40.477 -16.331   2.027  1.00  0.00     0.320 C 
HETATM    3  N   UNL     1      41.262 -16.431   0.921  1.00  0.00    -0.340 N 
HETATM    4  O   UNL     1      39.436 -15.678   2.004  1.00  0.00    -0.247 OA
HETATM    5  H   UNL     1      40.077 -17.116   3.814  1.00  0.00     0.170 HD
HETATM    6  H   UNL     1      41.903 -17.211   0.876  1.00  0.00     0.164 HD
ENDROOT
BRANCH   1   7
HETATM    7  C   UNL     1      42.011 -17.688   3.549  1.00  0.00     0.066 A 
HETATM    8  C   UNL     1      42.626 -18.742   2.863  1.00  0.00     0.038 A 
HETATM    9  C   UNL     1      43.790 -19.336   3.364  1.00  0.00    -0.059 A 
HETATM   10  C   UNL     1      44.459 -20.460   2.626  1.00  0.00     0.048 C 
HETATM   11  C   UNL     1      44.372 -18.817   4.524  1.00  0.00     0.020 A 
HETATM   12  C   UNL     1      43.796 -17.721   5.186  1.00  0.00    -0.005 A 
HETATM   13  C   UNL     1      42.602 -17.144   4.704  1.00  0.00     0.093 A 
HETATM   14  C   UNL     1      44.387 -17.165   6.327  1.00  0.00     0.015 A 
HETATM   15  N   UNL     1      42.022 -16.087   5.320  1.00  0.00    -0.258 NA
HETATM   16  C   UNL     1      42.629 -15.573   6.414  1.00  0.00     0.117 A 
HETATM   17  C   UNL     1      43.800 -16.072   6.951  1.00  0.00     0.020 A 
ENDBRANCH   1   7
BRANCH   3  18
HETATM   18  C   UNL     1      41.095 -15.551  -0.225  1.00  0.00     0.164 C 
BRANCH  18  19
HETATM   19  C   UNL     1      41.685 -14.123  -0.104  1.00  0.00     0.261 C 
BRANCH  19  20
HETATM   20  N   UNL     1      40.958 -13.206   0.881  1.00  0.00    -0.067 N 
HETATM   21  H   UNL     1      40.589 -13.880   1.567  1.00  0.00     0.280 HD
HETATM   22  C   UNL     1      41.812 -12.283   1.700  1.00  0.00     0.270 C 
HETATM   23  C   UNL     1      39.776 -12.498   0.293  1.00  0.00     0.270 C 
ENDBRANCH  19  20
BRANCH  19  24
HETATM   24  C   UNL     1      41.894 -13.450  -1.431  1.00  0.00     0.085 A 
HETATM   25  O   UNL     1      41.128 -13.932  -2.459  1.00  0.00    -0.325 OA
HETATM   26  C   UNL     1      41.428 -13.197  -3.560  1.00  0.00     0.142 A 
HETATM   27  C   UNL     1      42.373 -12.246  -3.260  1.00  0.00     0.027 A 
HETATM   28  C   UNL     1      42.672 -12.402  -1.884  1.00  0.00     0.037 A 
ENDBRANCH  19  24
ENDBRANCH  18  19
ENDBRANCH   3  18
TORSDOF 5
ENDMDL
MODEL 10
REMARK VINA RESULT:      -7.2      2.750      5.623
REMARK  5 active torsions:
REMARK  status: ('A' for Active; 'I' for Inactive)
REMARK    1  A    between atoms: C_4  and  N_5 
REMARK       I    between atoms: N_5  and  C_6 
REMARK       I    between atoms: C_6  and  N_7 
REMARK    2  A    between atoms: N_7  and  C_8 
REMARK    3  A    between atoms: C_8  and  C_9 
REMARK    4  A    between atoms: C_9  and  N_10 
REMARK    5  A    between atoms: C_9  and  C_14 
ROOT
HETATM    1  N   UNL     1      41.175 -14.003   4.903  1.00  0.00    -0.307 N 
HETATM    2  C   UNL     1      40.872 -13.735   3.614  1.00  0.00     0.320 C 
HETATM    3  N   UNL     1      41.657 -14.279   2.646  1.00  0.00    -0.340 N 
HETATM    4  O   UNL     1      39.863 -13.096   3.322  1.00  0.00    -0.247 OA
HETATM    5  H   UNL     1      40.424 -13.769   5.555  1.00  0.00     0.170 HD
HETATM    6  H   UNL     1      42.260 -15.045   2.913  1.00  0.00     0.164 HD
ENDROOT
BRANCH   1   7
HETATM    7  C   UNL     1      42.330 -14.480   5.571  1.00  0.00     0.066 A 
HETATM    8  C   UNL     1      43.235 -13.658   6.254  1.00  0.00     0.038 A 
HETATM    9  C   UNL     1      44.366 -14.202   6.872  1.00  0.00    -0.059 A 
HETATM   10  C   UNL     1      45.334 -13.326   7.614  1.00  0.00     0.048 C 
HETATM   11  C   UNL     1      44.545 -15.588   6.860  1.00  0.00     0.020 A 
HETATM   12  C   UNL     1      43.612 -16.426   6.230  1.00  0.00    -0.005 A 
HETATM   13  C   UNL     1      42.490 -15.877   5.573  1.00  0.00     0.093 A 
HETATM   14  C   UNL     1      43.758 -17.819   6.242  1.00  0.00     0.015 A 
HETATM   15  N   UNL     1      41.573 -16.659   4.957  1.00  0.00    -0.258 NA
HETATM   16  C   UNL     1      41.744 -18.000   4.999  1.00  0.00     0.117 A 
HETATM   17  C   UNL     1      42.808 -18.622   5.622  1.00  0.00     0.020 A 
ENDBRANCH   1   7
BRANCH   3  18
HETATM   18  C   UNL     1      41.539 -13.891   1.249  1.00  0.00     0.164 C 
BRANCH  18  19
HETATM   19  C   UNL     1      41.679 -15.018   0.194  1.00  0.00     0.261 C 
BRANCH  19  20
HETATM   20  N   UNL     1      40.490 -15.160  -0.759  1.00  0.00    -0.067 N 
HETATM   21  H   UNL     1      40.004 -15.981  -0.373  1.00  0.00     0.280 HD
HETATM   22  C   UNL     1      39.457 -14.072  -0.715  1.00  0.00     0.270 C 
HETATM   23  C   UNL     1      40.876 -15.506  -2.164  1.00  0.00     0.270 C 
ENDBRANCH  19  20
BRANCH  19  24
HETATM   24  C   UNL     1      42.072 -16.342   0.784  1.00  0.00     0.085 A 
HETATM   25  O   UNL     1      43.372 -16.432   1.208  1.00  0.00    -0.325 OA
HETATM   26  C   UNL     1      43.538 -17.674   1.730  1.00  0.00     0.142 A 
HETATM   27  C   UNL     1      42.366 -18.387   1.653  1.00  0.00     0.027 A 
HETATM   28  C   UNL     1      41.415 -17.528   1.050  1.00  0.00     0.037 A 
ENDBRANCH  19  24
ENDBRANCH  18  19
ENDBRANCH   3  18
TORSDOF 5
ENDMDL
