MODEL 1
REMARK VINA RESULT:      -9.3      0.000      0.000
REMARK  6 active torsions:
REMARK  status: ('A' for Active; 'I' for Inactive)
REMARK    1  A    between atoms: C_2  and  O_3 
REMARK    2  A    between atoms: C_2  and  C_4 
REMARK    3  A    between atoms: C_7  and  N_8 
REMARK       I    between atoms: N_8  and  C_9 
REMARK    4  A    between atoms: C_9  and  C_10 
REMARK    5  A    between atoms: C_13  and  C_14 
REMARK    6  A    between atoms: C_19  and  C_20 
ROOT
HETATM    1  C   UNL     1      41.532 -14.487   2.802  1.00  0.00     0.096 A 
HETATM    2  C   UNL     1      41.864 -15.312   3.863  1.00  0.00     0.138 A 
HETATM    3  N   UNL     1      43.054 -14.827   4.358  1.00  0.00    -0.240 N 
HETATM    4  C   UNL     1      43.730 -15.336   5.537  1.00  0.00     0.221 C 
HETATM    5  C   UNL     1      42.797 -16.288   6.315  1.00  0.00     0.066 C 
HETATM    6  C   UNL     1      42.048 -17.232   5.362  1.00  0.00     0.118 C 
HETATM    7  N   UNL     1      41.249 -16.387   4.445  1.00  0.00    -0.365 N 
HETATM    8  N   UNL     1      43.570 -13.826   3.633  1.00  0.00    -0.181 NA
HETATM    9  C   UNL     1      42.633 -13.597   2.711  1.00  0.00     0.160 A 
HETATM   10  H   UNL     1      40.311 -16.218   4.819  1.00  0.00     0.161 HD
ENDROOT
BRANCH   1  11
HETATM   11  C   UNL     1      40.367 -14.479   1.928  1.00  0.00     0.261 C 
HETATM   12  N   UNL     1      40.646 -14.137   0.619  1.00  0.00    -0.323 N 
HETATM   13  H   UNL     1      41.598 -13.838   0.443  1.00  0.00     0.169 HD
HETATM   14  O   UNL     1      39.266 -14.776   2.375  1.00  0.00    -0.267 OA
BRANCH  12  15
HETATM   15  C   UNL     1      39.776 -14.194  -0.487  1.00  0.00     0.035 A 
HETATM   16  C   UNL     1      38.481 -13.675  -0.488  1.00  0.00     0.030 A 
HETATM   17  C   UNL     1      37.650 -13.817  -1.609  1.00  0.00     0.012 A 
HETATM   18  C   UNL     1      38.090 -14.485  -2.757  1.00  0.00    -0.030 A 
HETATM   19  C   UNL     1      39.401 -14.989  -2.753  1.00  0.00     0.012 A 
HETATM   20  C   UNL     1      40.235 -14.840  -1.638  1.00  0.00     0.030 A 
BRANCH  18  21
HETATM   21  C   UNL     1      37.212 -14.722  -3.970  1.00  0.00     0.147 C 
HETATM   22  C   UNL     1      36.531 -13.494  -4.569  1.00  0.00     0.044 C 
BRANCH  21  23
HETATM   23  O   UNL     1      38.008 -15.335  -4.985  1.00  0.00    -0.391 OA
HETATM   24  H   UNL     1      37.641 -15.067  -5.843  1.00  0.00     0.210 HD
ENDBRANCH  21  23
ENDBRANCH  18  21
ENDBRANCH  12  15
ENDBRANCH   1  11
BRANCH   4  25
HETATM   25  C   UNL     1      44.177 -14.220   6.459  1.00  0.00     0.409 C 
HETATM   26  F   UNL     1      45.371 -13.687   6.136  1.00  0.00    -0.169 F 
HETATM   27  F   UNL     1      43.267 -13.223   6.536  1.00  0.00    -0.169 F 
HETATM   28  F   UNL     1      44.313 -14.710   7.723  1.00  0.00    -0.169 F 
ENDBRANCH   4  25
BRANCH   6  29
HETATM   29  C   UNL     1      42.930 -18.228   4.606  1.00  0.00    -0.035 A 
HETATM   30  C   UNL     1      43.908 -18.993   5.275  1.00  0.00     0.012 A 
HETATM   31  C   UNL     1      44.712 -19.903   4.582  1.00  0.00     0.043 A 
HETATM   32  C   UNL     1      44.530 -20.081   3.218  1.00  0.00     0.116 A 
HETATM   33  F   UNL     1      45.301 -20.955   2.557  1.00  0.00    -0.206 F 
HETATM   34  C   UNL     1      43.553 -19.374   2.536  1.00  0.00     0.043 A 
HETATM   35  C   UNL     1      42.752 -18.460   3.228  1.00  0.00     0.012 A 
ENDBRANCH   6  29
TORSDOF 6
ENDMDL
MODEL 2
REMARK VINA RESULT:      -9.0      4.300      8.957
REMARK  6 active torsions:
REMARK  status: ('A' for Active; 'I' for Inactive)
REMARK    1  A    between atoms: C_2  and  O_3 
REMARK    2  A    between atoms: C_2  and  C_4 
REMARK    3  A    between atoms: C_7  and  N_8 
REMARK       I    between atoms: N_8  and  C_9 
REMARK    4  A    between atoms: C_9  and  C_10 
REMARK    5  A    between atoms: C_13  and  C_14 
REMARK    6  A    between atoms: C_19  and  C_20 
ROOT
HETATM    1  C   UNL     1      41.514 -14.699   0.667  1.00  0.00     0.096 A 
HETATM    2  C   UNL     1      41.575 -14.365  -0.675  1.00  0.00     0.138 A 
HETATM    3  N   UNL     1      41.476 -12.993  -0.725  1.00  0.00    -0.240 N 
HETATM    4  C   UNL     1      41.584 -12.198  -1.935  1.00  0.00     0.221 C 
HETATM    5  C   UNL     1      42.109 -13.067  -3.097  1.00  0.00     0.066 C 
HETATM    6  C   UNL     1      41.426 -14.444  -3.112  1.00  0.00     0.118 C 
HETATM    7  N   UNL     1      41.731 -15.099  -1.820  1.00  0.00    -0.365 N 
HETATM    8  N   UNL     1      41.245 -12.425   0.466  1.00  0.00    -0.181 NA
HETATM    9  C   UNL     1      41.302 -13.455   1.314  1.00  0.00     0.160 A 
HETATM   10  H   UNL     1      42.586 -15.659  -1.880  1.00  0.00     0.161 HD
ENDROOT
BRANCH   1  11
HETATM   11  C   UNL     1      41.615 -15.990   1.334  1.00  0.00     0.261 C 
HETATM   12  N   UNL     1      42.911 -16.416   1.547  1.00  0.00    -0.323 N 
HETATM   13  H   UNL     1      43.631 -15.836   1.133  1.00  0.00     0.169 HD
HETATM   14  O   UNL     1      40.598 -16.587   1.665  1.00  0.00    -0.267 OA
BRANCH  12  15
HETATM   15  C   UNL     1      43.337 -17.528   2.300  1.00  0.00     0.035 A 
HETATM   16  C   UNL     1      43.565 -17.496   3.676  1.00  0.00     0.030 A 
HETATM   17  C   UNL     1      44.041 -18.629   4.353  1.00  0.00     0.012 A 
HETATM   18  C   UNL     1      44.308 -19.821   3.670  1.00  0.00    -0.030 A 
HETATM   19  C   UNL     1      44.059 -19.848   2.288  1.00  0.00     0.012 A 
HETATM   20  C   UNL     1      43.574 -18.721   1.613  1.00  0.00     0.030 A 
BRANCH  18  21
HETATM   21  C   UNL     1      44.884 -21.053   4.341  1.00  0.00     0.147 C 
HETATM   22  C   UNL     1      44.432 -21.324   5.773  1.00  0.00     0.044 C 
BRANCH  21  23
HETATM   23  O   UNL     1      44.555 -22.191   3.542  1.00  0.00    -0.391 OA
HETATM   24  H   UNL     1      45.067 -22.942   3.885  1.00  0.00     0.210 HD
ENDBRANCH  21  23
ENDBRANCH  18  21
ENDBRANCH  12  15
ENDBRANCH   1  11
BRANCH   4  25
HETATM   25  C   UNL     1      42.506 -11.010  -1.751  1.00  0.00     0.409 C 
HETATM   26  F   UNL     1      41.935  -9.964  -1.125  1.00  0.00    -0.169 F 
HETATM   27  F   UNL     1      43.641 -11.340  -1.093  1.00  0.00    -0.169 F 
HETATM   28  F   UNL     1      42.894 -10.551  -2.974  1.00  0.00    -0.169 F 
ENDBRANCH   4  25
BRANCH   6  29
HETATM   29  C   UNL     1      39.925 -14.422  -3.407  1.00  0.00    -0.035 A 
HETATM   30  C   UNL     1      39.189 -13.220  -3.372  1.00  0.00     0.012 A 
HETATM   31  C   UNL     1      37.818 -13.202  -3.644  1.00  0.00     0.043 A 
HETATM   32  C   UNL     1      37.169 -14.382  -3.982  1.00  0.00     0.116 A 
HETATM   33  F   UNL     1      35.856 -14.362  -4.243  1.00  0.00    -0.206 F 
HETATM   34  C   UNL     1      37.869 -15.575  -4.063  1.00  0.00     0.043 A 
HETATM   35  C   UNL     1      39.239 -15.593  -3.787  1.00  0.00     0.012 A 
ENDBRANCH   6  29
TORSDOF 6
ENDMDL
MODEL 3
REMARK VINA RESULT:      -8.7      3.946      8.747
REMARK  6 active torsions:
REMARK  status: ('A' for Active; 'I' for Inactive)
REMARK    1  A    between atoms: C_2  and  O_3 
REMARK    2  A    between atoms: C_2  and  C_4 
REMARK    3  A    between atoms: C_7  and  N_8 
REMARK       I    between atoms: N_8  and  C_9 
REMARK    4  A    between atoms: C_9  and  C_10 
REMARK    5  A    between atoms: C_13  and  C_14 
REMARK    6  A    between atoms: C_19  and  C_20 
ROOT
HETATM    1  C   UNL     1      41.067 -15.678   1.172  1.00  0.00     0.096 A 
HETATM    2  C   UNL     1      41.192 -14.878   0.050  1.00  0.00     0.138 A 
HETATM    3  N   UNL     1      40.678 -13.650   0.405  1.00  0.00    -0.240 N 
HETATM    4  C   UNL     1      40.688 -12.471  -0.441  1.00  0.00     0.221 C 
HETATM    5  C   UNL     1      41.602 -12.702  -1.663  1.00  0.00     0.066 C 
HETATM    6  C   UNL     1      41.389 -14.102  -2.258  1.00  0.00     0.118 C 
HETATM    7  N   UNL     1      41.714 -15.084  -1.199  1.00  0.00    -0.365 N 
HETATM    8  N   UNL     1      40.132 -13.629   1.628  1.00  0.00    -0.181 NA
HETATM    9  C   UNL     1      40.397 -14.847   2.105  1.00  0.00     0.160 A 
HETATM   10  H   UNL     1      42.702 -15.353  -1.232  1.00  0.00     0.161 HD
ENDROOT
BRANCH   1  11
HETATM   11  C   UNL     1      41.477 -17.055   1.411  1.00  0.00     0.261 C 
HETATM   12  N   UNL     1      42.741 -17.181   1.955  1.00  0.00    -0.323 N 
HETATM   13  H   UNL     1      43.267 -16.319   2.031  1.00  0.00     0.169 HD
HETATM   14  O   UNL     1      40.714 -17.975   1.145  1.00  0.00    -0.267 OA
BRANCH  12  15
HETATM   15  C   UNL     1      43.352 -18.352   2.445  1.00  0.00     0.035 A 
HETATM   16  C   UNL     1      43.655 -19.462   1.655  1.00  0.00     0.030 A 
HETATM   17  C   UNL     1      44.214 -20.616   2.221  1.00  0.00     0.012 A 
HETATM   18  C   UNL     1      44.481 -20.694   3.592  1.00  0.00    -0.030 A 
HETATM   19  C   UNL     1      44.189 -19.566   4.376  1.00  0.00     0.012 A 
HETATM   20  C   UNL     1      43.640 -18.409   3.811  1.00  0.00     0.030 A 
BRANCH  18  21
HETATM   21  C   UNL     1      45.025 -21.939   4.265  1.00  0.00     0.147 C 
HETATM   22  C   UNL     1      44.567 -22.195   5.698  1.00  0.00     0.044 C 
BRANCH  21  23
HETATM   23  O   UNL     1      44.668 -23.070   3.469  1.00  0.00    -0.391 OA
HETATM   24  H   UNL     1      43.864 -23.454   3.856  1.00  0.00     0.210 HD
ENDBRANCH  21  23
ENDBRANCH  18  21
ENDBRANCH  12  15
ENDBRANCH   1  11
BRANCH   4  25
HETATM   25  C   UNL     1      41.164 -11.242   0.306  1.00  0.00     0.409 C 
HETATM   26  F   UNL     1      42.056 -11.504   1.281  1.00  0.00    -0.169 F 
HETATM   27  F   UNL     1      41.690 -10.311  -0.521  1.00  0.00    -0.169 F 
HETATM   28  F   UNL     1      40.100 -10.651   0.919  1.00  0.00    -0.169 F 
ENDBRANCH   4  25
BRANCH   6  29
HETATM   29  C   UNL     1      40.007 -14.347  -2.867  1.00  0.00    -0.035 A 
HETATM   30  C   UNL     1      39.071 -13.302  -3.001  1.00  0.00     0.012 A 
HETATM   31  C   UNL     1      37.809 -13.528  -3.559  1.00  0.00     0.043 A 
HETATM   32  C   UNL     1      37.476 -14.795  -4.015  1.00  0.00     0.116 A 
HETATM   33  F   UNL     1      36.267 -15.009  -4.551  1.00  0.00    -0.206 F 
HETATM   34  C   UNL     1      38.386 -15.838  -3.934  1.00  0.00     0.043 A 
HETATM   35  C   UNL     1      39.646 -15.612  -3.372  1.00  0.00     0.012 A 
ENDBRANCH   6  29
TORSDOF 6
ENDMDL
MODEL 4
REMARK VINA RESULT:      -8.6      3.911      8.443
REMARK  6 active torsions:
REMARK  status: ('A' for Active; 'I' for Inactive)
REMARK    1  A    between atoms: C_2  and  O_3 
REMARK    2  A    between atoms: C_2  and  C_4 
REMARK    3  A    between atoms: C_7  and  N_8 
REMARK       I    between atoms: N_8  and  C_9 
REMARK    4  A    between atoms: C_9  and  C_10 
REMARK    5  A    between atoms: C_13  and  C_14 
REMARK    6  A    between atoms: C_19  and  C_20 
ROOT
HETATM    1  C   UNL     1      41.208 -15.044   2.197  1.00  0.00     0.096 A 
HETATM    2  C   UNL     1      41.072 -14.099   1.195  1.00  0.00     0.138 A 
HETATM    3  N   UNL     1      39.844 -13.509   1.400  1.00  0.00    -0.240 N 
HETATM    4  C   UNL     1      39.323 -12.393   0.631  1.00  0.00     0.221 C 
HETATM    5  C   UNL     1      40.439 -11.781  -0.242  1.00  0.00     0.066 C 
HETATM    6  C   UNL     1      41.284 -12.878  -0.910  1.00  0.00     0.118 C 
HETATM    7  N   UNL     1      41.884 -13.690   0.172  1.00  0.00    -0.365 N 
HETATM    8  N   UNL     1      39.134 -14.072   2.385  1.00  0.00    -0.181 NA
HETATM    9  C   UNL     1      39.972 -14.980   2.890  1.00  0.00     0.160 A 
HETATM   10  H   UNL     1      42.800 -13.323   0.447  1.00  0.00     0.161 HD
ENDROOT
BRANCH   1  11
HETATM   11  C   UNL     1      42.309 -15.941   2.519  1.00  0.00     0.261 C 
HETATM   12  N   UNL     1      41.918 -17.235   2.803  1.00  0.00    -0.323 N 
HETATM   13  H   UNL     1      40.917 -17.384   2.852  1.00  0.00     0.169 HD
HETATM   14  O   UNL     1      43.460 -15.524   2.504  1.00  0.00    -0.267 OA
BRANCH  12  15
HETATM   15  C   UNL     1      42.745 -18.360   2.991  1.00  0.00     0.035 A 
HETATM   16  C   UNL     1      43.032 -19.292   1.993  1.00  0.00     0.030 A 
HETATM   17  C   UNL     1      43.820 -20.419   2.266  1.00  0.00     0.012 A 
HETATM   18  C   UNL     1      44.336 -20.648   3.547  1.00  0.00    -0.030 A 
HETATM   19  C   UNL     1      44.056 -19.696   4.541  1.00  0.00     0.012 A 
HETATM   20  C   UNL     1      43.278 -18.565   4.266  1.00  0.00     0.030 A 
BRANCH  18  21
HETATM   21  C   UNL     1      45.139 -21.882   3.912  1.00  0.00     0.147 C 
HETATM   22  C   UNL     1      45.065 -22.338   5.366  1.00  0.00     0.044 C 
BRANCH  21  23
HETATM   23  O   UNL     1      44.707 -22.959   3.079  1.00  0.00    -0.391 OA
HETATM   24  H   UNL     1      43.907 -23.334   3.483  1.00  0.00     0.210 HD
ENDBRANCH  21  23
ENDBRANCH  18  21
ENDBRANCH  12  15
ENDBRANCH   1  11
BRANCH   4  25
HETATM   25  C   UNL     1      38.746 -11.312   1.523  1.00  0.00     0.409 C 
HETATM   26  F   UNL     1      39.399 -11.159   2.691  1.00  0.00    -0.169 F 
HETATM   27  F   UNL     1      38.686 -10.113   0.901  1.00  0.00    -0.169 F 
HETATM   28  F   UNL     1      37.464 -11.638   1.849  1.00  0.00    -0.169 F 
ENDBRANCH   4  25
BRANCH   6  29
HETATM   29  C   UNL     1      40.540 -13.739  -1.933  1.00  0.00    -0.035 A 
HETATM   30  C   UNL     1      39.420 -13.243  -2.631  1.00  0.00     0.012 A 
HETATM   31  C   UNL     1      38.743 -14.032  -3.566  1.00  0.00     0.043 A 
HETATM   32  C   UNL     1      39.193 -15.316  -3.836  1.00  0.00     0.116 A 
HETATM   33  F   UNL     1      38.544 -16.069  -4.733  1.00  0.00    -0.206 F 
HETATM   34  C   UNL     1      40.314 -15.822  -3.197  1.00  0.00     0.043 A 
HETATM   35  C   UNL     1      40.988 -15.035  -2.258  1.00  0.00     0.012 A 
ENDBRANCH   6  29
TORSDOF 6
ENDMDL
MODEL 5
REMARK VINA RESULT:      -8.5      1.981      2.579
REMARK  6 active torsions:
REMARK  status: ('A' for Active; 'I' for Inactive)
REMARK    1  A    between atoms: C_2  and  O_3 
REMARK    2  A    between atoms: C_2  and  C_4 
REMARK    3  A    between atoms: C_7  and  N_8 
REMARK       I    between atoms: N_8  and  C_9 
REMARK    4  A    between atoms: C_9  and  C_10 
REMARK    5  A    between atoms: C_13  and  C_14 
REMARK    6  A    between atoms: C_19  and  C_20 
ROOT
HETATM    1  C   UNL     1      41.059 -14.132   0.311  1.00  0.00     0.096 A 
HETATM    2  C   UNL     1      40.965 -14.838   1.498  1.00  0.00     0.138 A 
HETATM    3  N   UNL     1      41.760 -14.165   2.399  1.00  0.00    -0.240 N 
HETATM    4  C   UNL     1      41.889 -14.505   3.804  1.00  0.00     0.221 C 
HETATM    5  C   UNL     1      40.805 -15.527   4.206  1.00  0.00     0.066 C 
HETATM    6  C   UNL     1      40.652 -16.621   3.138  1.00  0.00     0.118 C 
HETATM    7  N   UNL     1      40.264 -15.951   1.876  1.00  0.00    -0.365 N 
HETATM    8  N   UNL     1      42.444 -13.148   1.860  1.00  0.00    -0.181 NA
HETATM    9  C   UNL     1      41.995 -13.107   0.603  1.00  0.00     0.160 A 
HETATM   10  H   UNL     1      39.246 -15.891   1.786  1.00  0.00     0.161 HD
ENDROOT
BRANCH   1  11
HETATM   11  C   UNL     1      40.407 -14.337  -0.975  1.00  0.00     0.261 C 
HETATM   12  N   UNL     1      39.113 -13.858  -1.034  1.00  0.00    -0.323 N 
HETATM   13  H   UNL     1      38.739 -13.514  -0.159  1.00  0.00     0.169 HD
HETATM   14  O   UNL     1      41.016 -14.880  -1.888  1.00  0.00    -0.267 OA
BRANCH  12  15
HETATM   15  C   UNL     1      38.285 -13.761  -2.170  1.00  0.00     0.035 A 
HETATM   16  C   UNL     1      37.798 -12.556  -2.679  1.00  0.00     0.030 A 
HETATM   17  C   UNL     1      36.932 -12.539  -3.781  1.00  0.00     0.012 A 
HETATM   18  C   UNL     1      36.525 -13.726  -4.401  1.00  0.00    -0.030 A 
HETATM   19  C   UNL     1      37.034 -14.932  -3.893  1.00  0.00     0.012 A 
HETATM   20  C   UNL     1      37.907 -14.950  -2.798  1.00  0.00     0.030 A 
BRANCH  18  21
HETATM   21  C   UNL     1      35.542 -13.768  -5.555  1.00  0.00     0.147 C 
HETATM   22  C   UNL     1      34.923 -12.436  -5.972  1.00  0.00     0.044 C 
BRANCH  21  23
HETATM   23  O   UNL     1      36.205 -14.331  -6.687  1.00  0.00    -0.391 OA
HETATM   24  H   UNL     1      35.552 -14.390  -7.405  1.00  0.00     0.210 HD
ENDBRANCH  21  23
ENDBRANCH  18  21
ENDBRANCH  12  15
ENDBRANCH   1  11
BRANCH   4  25
HETATM   25  C   UNL     1      41.771 -13.284   4.694  1.00  0.00     0.409 C 
HETATM   26  F   UNL     1      42.910 -12.574   4.804  1.00  0.00    -0.169 F 
HETATM   27  F   UNL     1      40.781 -12.454   4.296  1.00  0.00    -0.169 F 
HETATM   28  F   UNL     1      41.451 -13.681   5.958  1.00  0.00    -0.169 F 
ENDBRANCH   4  25
BRANCH   6  29
HETATM   29  C   UNL     1      41.870 -17.530   2.958  1.00  0.00    -0.035 A 
HETATM   30  C   UNL     1      42.508 -18.126   4.064  1.00  0.00     0.012 A 
HETATM   31  C   UNL     1      43.620 -18.957   3.896  1.00  0.00     0.043 A 
HETATM   32  C   UNL     1      44.090 -19.225   2.619  1.00  0.00     0.116 A 
HETATM   33  F   UNL     1      45.155 -20.023   2.461  1.00  0.00    -0.206 F 
HETATM   34  C   UNL     1      43.464 -18.687   1.507  1.00  0.00     0.043 A 
HETATM   35  C   UNL     1      42.355 -17.852   1.675  1.00  0.00     0.012 A 
ENDBRANCH   6  29
TORSDOF 6
ENDMDL
MODEL 6
REMARK VINA RESULT:      -8.4      4.354      8.980
REMARK  6 active torsions:
REMARK  status: ('A' for Active; 'I' for Inactive)
REMARK    1  A    between atoms: C_2  and  O_3 
REMARK    2  A    between atoms: C_2  and  C_4 
REMARK    3  A    between atoms: C_7  and  N_8 
REMARK       I    between atoms: N_8  and  C_9 
REMARK    4  A    between atoms: C_9  and  C_10 
REMARK    5  A    between atoms: C_13  and  C_14 
REMARK    6  A    between atoms: C_19  and  C_20 
ROOT
HETATM    1  C   UNL     1      41.090 -15.845   0.891  1.00  0.00     0.096 A 
HETATM    2  C   UNL     1      39.958 -15.067   0.723  1.00  0.00     0.138 A 
HETATM    3  N   UNL     1      40.228 -14.237  -0.343  1.00  0.00    -0.240 N 
HETATM    4  C   UNL     1      39.280 -13.308  -0.930  1.00  0.00     0.221 C 
HETATM    5  C   UNL     1      37.861 -13.584  -0.391  1.00  0.00     0.066 C 
HETATM    6  C   UNL     1      37.883 -13.841   1.124  1.00  0.00     0.118 C 
HETATM    7  N   UNL     1      38.745 -15.022   1.356  1.00  0.00    -0.365 N 
HETATM    8  N   UNL     1      41.481 -14.342  -0.803  1.00  0.00    -0.181 NA
HETATM    9  C   UNL     1      41.993 -15.339  -0.077  1.00  0.00     0.160 A 
HETATM   10  H   UNL     1      38.199 -15.888   1.341  1.00  0.00     0.161 HD
ENDROOT
BRANCH   1  11
HETATM   11  C   UNL     1      41.373 -16.926   1.825  1.00  0.00     0.261 C 
HETATM   12  N   UNL     1      42.444 -17.719   1.462  1.00  0.00    -0.323 N 
HETATM   13  H   UNL     1      42.841 -17.521   0.551  1.00  0.00     0.169 HD
HETATM   14  O   UNL     1      40.692 -17.055   2.835  1.00  0.00    -0.267 OA
BRANCH  12  15
HETATM   15  C   UNL     1      43.061 -18.731   2.224  1.00  0.00     0.035 A 
HETATM   16  C   UNL     1      43.641 -18.520   3.475  1.00  0.00     0.030 A 
HETATM   17  C   UNL     1      44.287 -19.564   4.154  1.00  0.00     0.012 A 
HETATM   18  C   UNL     1      44.375 -20.845   3.596  1.00  0.00    -0.030 A 
HETATM   19  C   UNL     1      43.773 -21.051   2.344  1.00  0.00     0.012 A 
HETATM   20  C   UNL     1      43.119 -20.013   1.670  1.00  0.00     0.030 A 
BRANCH  18  21
HETATM   21  C   UNL     1      45.116 -21.991   4.257  1.00  0.00     0.147 C 
HETATM   22  C   UNL     1      44.809 -22.242   5.731  1.00  0.00     0.044 C 
BRANCH  21  23
HETATM   23  O   UNL     1      44.831 -23.186   3.528  1.00  0.00    -0.391 OA
HETATM   24  H   UNL     1      44.851 -23.923   4.161  1.00  0.00     0.210 HD
ENDBRANCH  21  23
ENDBRANCH  18  21
ENDBRANCH  12  15
ENDBRANCH   1  11
BRANCH   4  25
HETATM   25  C   UNL     1      39.261 -13.400  -2.442  1.00  0.00     0.409 C 
HETATM   26  F   UNL     1      40.198 -12.647  -3.050  1.00  0.00    -0.169 F 
HETATM   27  F   UNL     1      39.381 -14.674  -2.880  1.00  0.00    -0.169 F 
HETATM   28  F   UNL     1      38.060 -12.950  -2.903  1.00  0.00    -0.169 F 
ENDBRANCH   4  25
BRANCH   6  29
HETATM   29  C   UNL     1      38.302 -12.644   1.980  1.00  0.00    -0.035 A 
HETATM   30  C   UNL     1      39.322 -12.757   2.947  1.00  0.00     0.012 A 
HETATM   31  C   UNL     1      39.704 -11.661   3.727  1.00  0.00     0.043 A 
HETATM   32  C   UNL     1      39.092 -10.432   3.531  1.00  0.00     0.116 A 
HETATM   33  F   UNL     1      39.461  -9.383   4.279  1.00  0.00    -0.206 F 
HETATM   34  C   UNL     1      38.113 -10.275   2.563  1.00  0.00     0.043 A 
HETATM   35  C   UNL     1      37.727 -11.372   1.787  1.00  0.00     0.012 A 
ENDBRANCH   6  29
TORSDOF 6
ENDMDL
MODEL 7
REMARK VINA RESULT:      -8.3      4.715      8.801
REMARK  6 active torsions:
REMARK  status: ('A' for Active; 'I' for Inactive)
REMARK    1  A    between atoms: C_2  and  O_3 
REMARK    2  A    between atoms: C_2  and  C_4 
REMARK    3  A    between atoms: C_7  and  N_8 
REMARK       I    between atoms: N_8  and  C_9 
REMARK    4  A    between atoms: C_9  and  C_10 
REMARK    5  A    between atoms: C_13  and  C_14 
REMARK    6  A    between atoms: C_19  and  C_20 
ROOT
HETATM    1  C   UNL     1      41.764 -13.388   0.438  1.00  0.00     0.096 A 
HETATM    2  C   UNL     1      41.749 -13.307  -0.944  1.00  0.00     0.138 A 
HETATM    3  N   UNL     1      41.439 -11.998  -1.239  1.00  0.00    -0.240 N 
HETATM    4  C   UNL     1      41.401 -11.437  -2.577  1.00  0.00     0.221 C 
HETATM    5  C   UNL     1      42.033 -12.421  -3.585  1.00  0.00     0.066 C 
HETATM    6  C   UNL     1      41.570 -13.862  -3.316  1.00  0.00     0.118 C 
HETATM    7  N   UNL     1      41.995 -14.211  -1.942  1.00  0.00    -0.365 N 
HETATM    8  N   UNL     1      41.145 -11.258  -0.162  1.00  0.00    -0.181 NA
HETATM    9  C   UNL     1      41.375 -12.090   0.856  1.00  0.00     0.160 A 
HETATM   10  H   UNL     1      42.925 -14.639  -1.938  1.00  0.00     0.161 HD
ENDROOT
BRANCH   1  11
HETATM   11  C   UNL     1      42.074 -14.502   1.324  1.00  0.00     0.261 C 
HETATM   12  N   UNL     1      42.298 -15.698   0.669  1.00  0.00    -0.323 N 
HETATM   13  H   UNL     1      42.126 -15.684  -0.329  1.00  0.00     0.169 HD
HETATM   14  O   UNL     1      42.130 -14.322   2.533  1.00  0.00    -0.267 OA
BRANCH  12  15
HETATM   15  C   UNL     1      42.770 -16.904   1.223  1.00  0.00     0.035 A 
HETATM   16  C   UNL     1      44.120 -17.194   1.424  1.00  0.00     0.030 A 
HETATM   17  C   UNL     1      44.521 -18.439   1.930  1.00  0.00     0.012 A 
HETATM   18  C   UNL     1      43.583 -19.429   2.243  1.00  0.00    -0.030 A 
HETATM   19  C   UNL     1      42.226 -19.122   2.054  1.00  0.00     0.012 A 
HETATM   20  C   UNL     1      41.824 -17.876   1.558  1.00  0.00     0.030 A 
BRANCH  18  21
HETATM   21  C   UNL     1      43.965 -20.813   2.732  1.00  0.00     0.147 C 
HETATM   22  C   UNL     1      44.191 -21.876   1.661  1.00  0.00     0.044 C 
BRANCH  21  23
HETATM   23  O   UNL     1      45.157 -20.699   3.511  1.00  0.00    -0.391 OA
HETATM   24  H   UNL     1      45.903 -20.643   2.892  1.00  0.00     0.210 HD
ENDBRANCH  21  23
ENDBRANCH  18  21
ENDBRANCH  12  15
ENDBRANCH   1  11
BRANCH   4  25
HETATM   25  C   UNL     1      42.133 -10.113  -2.656  1.00  0.00     0.409 C 
HETATM   26  F   UNL     1      42.516  -9.771  -3.901  1.00  0.00    -0.169 F 
HETATM   27  F   UNL     1      41.411  -9.096  -2.133  1.00  0.00    -0.169 F 
HETATM   28  F   UNL     1      43.276 -10.188  -1.918  1.00  0.00    -0.169 F 
ENDBRANCH   4  25
BRANCH   6  29
HETATM   29  C   UNL     1      40.078 -14.118  -3.541  1.00  0.00    -0.035 A 
HETATM   30  C   UNL     1      39.582 -15.421  -3.748  1.00  0.00     0.012 A 
HETATM   31  C   UNL     1      38.218 -15.653  -3.952  1.00  0.00     0.043 A 
HETATM   32  C   UNL     1      37.329 -14.588  -3.922  1.00  0.00     0.116 A 
HETATM   33  F   UNL     1      36.023 -14.813  -4.116  1.00  0.00    -0.206 F 
HETATM   34  C   UNL     1      37.776 -13.299  -3.683  1.00  0.00     0.043 A 
HETATM   35  C   UNL     1      39.141 -13.067  -3.484  1.00  0.00     0.012 A 
ENDBRANCH   6  29
TORSDOF 6
ENDMDL
MODEL 8
REMARK VINA RESULT:      -8.2      5.129      9.909
REMARK  6 active torsions:
REMARK  status: ('A' for Active; 'I' for Inactive)
REMARK    1  A    between atoms: C_2  and  O_3 
REMARK    2  A    between atoms: C_2  and  C_4 
REMARK    3  A    between atoms: C_7  and  N_8 
REMARK       I    between atoms: N_8  and  C_9 
REMARK    4  A    between atoms: C_9  and  C_10 
REMARK    5  A    between atoms: C_13  and  C_14 
REMARK    6  A    between atoms: C_19  and  C_20 
ROOT
HETATM    1  C   UNL     1      40.905 -15.379  -0.990  1.00  0.00     0.096 A 
HETATM    2  C   UNL     1      40.062 -14.334  -1.324  1.00  0.00     0.138 A 
HETATM    3  N   UNL     1      39.615 -14.604  -2.598  1.00  0.00    -0.240 N 
HETATM    4  C   UNL     1      38.632 -13.813  -3.317  1.00  0.00     0.221 C 
HETATM    5  C   UNL     1      37.954 -12.810  -2.359  1.00  0.00     0.066 C 
HETATM    6  C   UNL     1      38.984 -12.144  -1.433  1.00  0.00     0.118 C 
HETATM    7  N   UNL     1      39.632 -13.222  -0.651  1.00  0.00    -0.365 N 
HETATM    8  N   UNL     1      40.186 -15.681  -3.152  1.00  0.00    -0.181 NA
HETATM    9  C   UNL     1      40.943 -16.170  -2.167  1.00  0.00     0.160 A 
HETATM   10  H   UNL     1      39.135 -13.393   0.227  1.00  0.00     0.161 HD
ENDROOT
BRANCH   1  11
HETATM   11  C   UNL     1      41.632 -15.663   0.240  1.00  0.00     0.261 C 
HETATM   12  N   UNL     1      41.613 -16.993   0.613  1.00  0.00    -0.323 N 
HETATM   13  H   UNL     1      41.021 -17.592   0.050  1.00  0.00     0.169 HD
HETATM   14  O   UNL     1      42.203 -14.757   0.834  1.00  0.00    -0.267 OA
BRANCH  12  15
HETATM   15  C   UNL     1      42.346 -17.605   1.649  1.00  0.00     0.035 A 
HETATM   16  C   UNL     1      43.512 -18.343   1.448  1.00  0.00     0.030 A 
HETATM   17  C   UNL     1      44.160 -18.971   2.521  1.00  0.00     0.012 A 
HETATM   18  C   UNL     1      43.656 -18.882   3.823  1.00  0.00    -0.030 A 
HETATM   19  C   UNL     1      42.490 -18.123   4.019  1.00  0.00     0.012 A 
HETATM   20  C   UNL     1      41.848 -17.487   2.949  1.00  0.00     0.030 A 
BRANCH  18  21
HETATM   21  C   UNL     1      44.280 -19.594   5.008  1.00  0.00     0.147 C 
HETATM   22  C   UNL     1      44.991 -20.912   4.715  1.00  0.00     0.044 C 
BRANCH  21  23
HETATM   23  O   UNL     1      45.214 -18.705   5.622  1.00  0.00    -0.391 OA
HETATM   24  H   UNL     1      45.421 -19.064   6.500  1.00  0.00     0.210 HD
ENDBRANCH  21  23
ENDBRANCH  18  21
ENDBRANCH  12  15
ENDBRANCH   1  11
BRANCH   4  25
HETATM   25  C   UNL     1      37.568 -14.679  -3.959  1.00  0.00     0.409 C 
HETATM   26  F   UNL     1      38.024 -15.452  -4.964  1.00  0.00    -0.169 F 
HETATM   27  F   UNL     1      36.939 -15.469  -3.060  1.00  0.00    -0.169 F 
HETATM   28  F   UNL     1      36.609 -13.880  -4.503  1.00  0.00    -0.169 F 
ENDBRANCH   4  25
BRANCH   6  29
HETATM   29  C   UNL     1      40.005 -11.246  -2.135  1.00  0.00    -0.035 A 
HETATM   30  C   UNL     1      39.619 -10.369  -3.169  1.00  0.00     0.012 A 
HETATM   31  C   UNL     1      40.553  -9.548  -3.808  1.00  0.00     0.043 A 
HETATM   32  C   UNL     1      41.880  -9.573  -3.402  1.00  0.00     0.116 A 
HETATM   33  F   UNL     1      42.773  -8.784  -4.014  1.00  0.00    -0.206 F 
HETATM   34  C   UNL     1      42.287 -10.395  -2.363  1.00  0.00     0.043 A 
HETATM   35  C   UNL     1      41.353 -11.219  -1.728  1.00  0.00     0.012 A 
ENDBRANCH   6  29
TORSDOF 6
ENDMDL
MODEL 9
REMARK VINA RESULT:      -8.0      3.642      8.052
REMARK  6 active torsions:
REMARK  status: ('A' for Active; 'I' for Inactive)
REMARK    1  A    between atoms: C_2  and  O_3 
REMARK    2  A    between atoms: C_2  and  C_4 
REMARK    3  A    between atoms: C_7  and  N_8 
REMARK       I    between atoms: N_8  and  C_9 
REMARK    4  A    between atoms: C_9  and  C_10 
REMARK    5  A    between atoms: C_13  and  C_14 
REMARK    6  A    between atoms: C_19  and  C_20 
ROOT
HETATM    1  C   UNL     1      40.599 -14.949   3.925  1.00  0.00     0.096 A 
HETATM    2  C   UNL     1      40.570 -13.642   3.470  1.00  0.00     0.138 A 
HETATM    3  N   UNL     1      40.136 -12.883   4.535  1.00  0.00    -0.240 N 
HETATM    4  C   UNL     1      40.041 -11.435   4.536  1.00  0.00     0.221 C 
HETATM    5  C   UNL     1      40.760 -10.854   3.300  1.00  0.00     0.066 C 
HETATM    6  C   UNL     1      40.437 -11.668   2.037  1.00  0.00     0.118 C 
HETATM    7  N   UNL     1      40.898 -13.054   2.278  1.00  0.00    -0.365 N 
HETATM    8  N   UNL     1      39.777 -13.608   5.602  1.00  0.00    -0.181 NA
HETATM    9  C   UNL     1      40.089 -14.857   5.245  1.00  0.00     0.160 A 
HETATM   10  H   UNL     1      41.865 -13.183   1.966  1.00  0.00     0.161 HD
ENDROOT
BRANCH   1  11
HETATM   11  C   UNL     1      41.016 -16.179   3.266  1.00  0.00     0.261 C 
HETATM   12  N   UNL     1      42.297 -16.583   3.585  1.00  0.00    -0.323 N 
HETATM   13  H   UNL     1      42.827 -15.934   4.154  1.00  0.00     0.169 HD
HETATM   14  O   UNL     1      40.242 -16.763   2.518  1.00  0.00    -0.267 OA
BRANCH  12  15
HETATM   15  C   UNL     1      42.925 -17.797   3.244  1.00  0.00     0.035 A 
HETATM   16  C   UNL     1      42.929 -18.338   1.957  1.00  0.00     0.030 A 
HETATM   17  C   UNL     1      43.527 -19.580   1.701  1.00  0.00     0.012 A 
HETATM   18  C   UNL     1      44.132 -20.317   2.725  1.00  0.00    -0.030 A 
HETATM   19  C   UNL     1      44.138 -19.757   4.013  1.00  0.00     0.012 A 
HETATM   20  C   UNL     1      43.550 -18.512   4.268  1.00  0.00     0.030 A 
BRANCH  18  21
HETATM   21  C   UNL     1      44.737 -21.692   2.515  1.00  0.00     0.147 C 
HETATM   22  C   UNL     1      44.617 -22.674   3.678  1.00  0.00     0.044 C 
BRANCH  21  23
HETATM   23  O   UNL     1      44.125 -22.279   1.366  1.00  0.00    -0.391 OA
HETATM   24  H   UNL     1      44.637 -23.072   1.139  1.00  0.00     0.210 HD
ENDBRANCH  21  23
ENDBRANCH  18  21
ENDBRANCH  12  15
ENDBRANCH   1  11
BRANCH   4  25
HETATM   25  C   UNL     1      40.644 -10.829   5.787  1.00  0.00     0.409 C 
HETATM   26  F   UNL     1      39.778 -10.715   6.813  1.00  0.00    -0.169 F 
HETATM   27  F   UNL     1      41.730 -11.512   6.215  1.00  0.00    -0.169 F 
HETATM   28  F   UNL     1      41.070  -9.565   5.513  1.00  0.00    -0.169 F 
ENDBRANCH   4  25
BRANCH   6  29
HETATM   29  C   UNL     1      38.976 -11.616   1.587  1.00  0.00    -0.035 A 
HETATM   30  C   UNL     1      38.362 -12.723   0.965  1.00  0.00     0.012 A 
HETATM   31  C   UNL     1      37.026 -12.674   0.555  1.00  0.00     0.043 A 
HETATM   32  C   UNL     1      36.278 -11.529   0.787  1.00  0.00     0.116 A 
HETATM   33  F   UNL     1      34.998 -11.485   0.395  1.00  0.00    -0.206 F 
HETATM   34  C   UNL     1      36.838 -10.436   1.430  1.00  0.00     0.043 A 
HETATM   35  C   UNL     1      38.175 -10.484   1.835  1.00  0.00     0.012 A 
ENDBRANCH   6  29
TORSDOF 6
ENDMDL
MODEL 10
REMARK VINA RESULT:      -8.0      5.573      9.818
REMARK  6 active torsions:
REMARK  status: ('A' for Active; 'I' for Inactive)
REMARK    1  A    between atoms: C_2  and  O_3 
REMARK    2  A    between atoms: C_2  and  C_4 
REMARK    3  A    between atoms: C_7  and  N_8 
REMARK       I    between atoms: N_8  and  C_9 
REMARK    4  A    between atoms: C_9  and  C_10 
REMARK    5  A    between atoms: C_13  and  C_14 
REMARK    6  A    between atoms: C_19  and  C_20 
ROOT
HETATM    1  C   UNL     1      40.960 -11.892   6.605  1.00  0.00     0.096 A 
HETATM    2  C   UNL     1      41.657 -12.699   5.722  1.00  0.00     0.138 A 
HETATM    3  N   UNL     1      40.703 -13.304   4.934  1.00  0.00    -0.240 N 
HETATM    4  C   UNL     1      40.990 -14.172   3.806  1.00  0.00     0.221 C 
HETATM    5  C   UNL     1      42.486 -14.089   3.438  1.00  0.00     0.066 C 
HETATM    6  C   UNL     1      43.368 -14.108   4.697  1.00  0.00     0.118 C 
HETATM    7  N   UNL     1      42.989 -12.935   5.517  1.00  0.00    -0.365 N 
HETATM    8  N   UNL     1      39.446 -13.038   5.310  1.00  0.00    -0.181 NA
HETATM    9  C   UNL     1      39.600 -12.157   6.301  1.00  0.00     0.160 A 
HETATM   10  H   UNL     1      43.557 -12.117   5.279  1.00  0.00     0.161 HD
ENDROOT
BRANCH   1  11
HETATM   11  C   UNL     1      41.431 -10.981   7.639  1.00  0.00     0.261 C 
HETATM   12  N   UNL     1      41.002 -11.303   8.913  1.00  0.00    -0.323 N 
HETATM   13  H   UNL     1      40.339 -12.066   8.966  1.00  0.00     0.169 HD
HETATM   14  O   UNL     1      42.154 -10.040   7.340  1.00  0.00    -0.267 OA
BRANCH  12  15
HETATM   15  C   UNL     1      41.410 -10.720  10.129  1.00  0.00     0.035 A 
HETATM   16  C   UNL     1      42.702 -10.822  10.647  1.00  0.00     0.030 A 
HETATM   17  C   UNL     1      43.024 -10.263  11.892  1.00  0.00     0.012 A 
HETATM   18  C   UNL     1      42.062  -9.591  12.654  1.00  0.00    -0.030 A 
HETATM   19  C   UNL     1      40.769  -9.479  12.117  1.00  0.00     0.012 A 
HETATM   20  C   UNL     1      40.449 -10.029  10.869  1.00  0.00     0.030 A 
BRANCH  18  21
HETATM   21  C   UNL     1      42.339  -9.024  14.033  1.00  0.00     0.147 C 
HETATM   22  C   UNL     1      41.825  -9.835  15.220  1.00  0.00     0.044 C 
BRANCH  21  23
HETATM   23  O   UNL     1      43.752  -8.865  14.175  1.00  0.00    -0.391 OA
HETATM   24  H   UNL     1      44.176  -9.477  13.552  1.00  0.00     0.210 HD
ENDBRANCH  21  23
ENDBRANCH  18  21
ENDBRANCH  12  15
ENDBRANCH   1  11
BRANCH   4  25
HETATM   25  C   UNL     1      40.162 -13.811   2.590  1.00  0.00     0.409 C 
HETATM   26  F   UNL     1      39.822 -12.509   2.525  1.00  0.00    -0.169 F 
HETATM   27  F   UNL     1      40.772 -14.156   1.434  1.00  0.00    -0.169 F 
HETATM   28  F   UNL     1      38.989 -14.504   2.625  1.00  0.00    -0.169 F 
ENDBRANCH   4  25
BRANCH   6  29
HETATM   29  C   UNL     1      43.328 -15.410   5.500  1.00  0.00    -0.035 A 
HETATM   30  C   UNL     1      43.048 -16.644   4.879  1.00  0.00     0.012 A 
HETATM   31  C   UNL     1      43.013 -17.833   5.615  1.00  0.00     0.043 A 
HETATM   32  C   UNL     1      43.286 -17.807   6.974  1.00  0.00     0.116 A 
HETATM   33  F   UNL     1      43.253 -18.947   7.677  1.00  0.00    -0.206 F 
HETATM   34  C   UNL     1      43.603 -16.617   7.610  1.00  0.00     0.043 A 
HETATM   35  C   UNL     1      43.633 -15.428   6.875  1.00  0.00     0.012 A 
ENDBRANCH   6  29
TORSDOF 6
ENDMDL
