MODEL 1
REMARK VINA RESULT:      -8.2      0.000      0.000
REMARK  6 active torsions:
REMARK  status: ('A' for Active; 'I' for Inactive)
REMARK    1  A    between atoms: C_2  and  N_3 
REMARK    2  A    between atoms: C_2  and  C_11 
REMARK       I    between atoms: N_3  and  C_4 
REMARK    3  A    between atoms: C_4  and  C_5 
REMARK    4  A    between atoms: C_14  and  O_15 
REMARK    5  A    between atoms: O_15  and  C_16 
REMARK    6  A    between atoms: C_16  and  C_17 
ROOT
HETATM    1  C   UNL     1      43.593 -15.310   5.917  1.00  0.00    -0.036 A 
HETATM    2  C   UNL     1      44.417 -16.024   6.800  1.00  0.00     0.012 A 
HETATM    3  C   UNL     1      44.432 -17.423   6.797  1.00  0.00     0.037 A 
HETATM    4  C   UNL     1      43.609 -18.129   5.922  1.00  0.00     0.069 A 
HETATM    5  C   UNL     1      42.810 -17.428   5.019  1.00  0.00     0.037 A 
HETATM    6  C   UNL     1      42.797 -16.032   5.016  1.00  0.00     0.012 A 
ENDROOT
BRANCH   1   7
HETATM    7  C   UNL     1      43.541 -13.793   5.988  1.00  0.00     0.113 C 
HETATM    8  C   UNL     1      42.225 -13.237   5.438  1.00  0.00     0.037 C 
BRANCH   7   9
HETATM    9  N   UNL     1      43.762 -13.367   7.361  1.00  0.00    -0.352 N 
HETATM   10  C   UNL     1      44.996 -12.985   7.818  1.00  0.00     0.225 C 
HETATM   11  O   UNL     1      45.988 -12.921   7.104  1.00  0.00    -0.273 OA
HETATM   12  H   UNL     1      43.022 -13.546   8.029  1.00  0.00     0.163 HD
BRANCH  10  13
HETATM   13  C   UNL     1      45.120 -12.599   9.246  1.00  0.00     0.119 A 
HETATM   14  C   UNL     1      44.205 -11.646   9.962  1.00  0.00     0.126 A 
HETATM   15 CL   UNL     1      42.938 -10.751   9.139  1.00  0.00    -0.101 Cl
HETATM   16 CL   UNL     1      43.803 -12.003  11.644  1.00  0.00    -0.101 Cl
HETATM   17  C   UNL     1      45.628 -11.243   9.671  1.00  0.00     0.060 A 
ENDBRANCH  10  13
ENDBRANCH   7   9
ENDBRANCH   1   7
BRANCH   4  18
HETATM   18  O   UNL     1      43.500 -19.490   5.849  1.00  0.00    -0.347 OA
BRANCH  18  19
HETATM   19  C   UNL     1      44.676 -20.203   5.466  1.00  0.00     0.215 C 
BRANCH  19  20
HETATM   20  C   UNL     1      44.458 -20.776   4.095  1.00  0.00    -0.017 A 
HETATM   21  C   UNL     1      44.688 -22.124   3.836  1.00  0.00     0.125 A 
HETATM   22  N   UNL     1      44.519 -22.707   2.628  1.00  0.00    -0.272 NA
HETATM   23  C   UNL     1      44.088 -21.912   1.626  1.00  0.00     0.116 A 
HETATM   24  C   UNL     1      43.822 -20.561   1.777  1.00  0.00     0.020 A 
HETATM   25  C   UNL     1      44.012 -19.987   3.030  1.00  0.00     0.012 A 
ENDBRANCH  19  20
ENDBRANCH  18  19
ENDBRANCH   4  18
TORSDOF 6
ENDMDL
MODEL 2
REMARK VINA RESULT:      -7.9      1.748      2.754
REMARK  6 active torsions:
REMARK  status: ('A' for Active; 'I' for Inactive)
REMARK    1  A    between atoms: C_2  and  N_3 
REMARK    2  A    between atoms: C_2  and  C_11 
REMARK       I    between atoms: N_3  and  C_4 
REMARK    3  A    between atoms: C_4  and  C_5 
REMARK    4  A    between atoms: C_14  and  O_15 
REMARK    5  A    between atoms: O_15  and  C_16 
REMARK    6  A    between atoms: C_16  and  C_17 
ROOT
HETATM    1  C   UNL     1      44.264 -14.395   7.067  1.00  0.00    -0.036 A 
HETATM    2  C   UNL     1      43.952 -14.001   5.757  1.00  0.00     0.012 A 
HETATM    3  C   UNL     1      43.398 -14.909   4.846  1.00  0.00     0.037 A 
HETATM    4  C   UNL     1      43.167 -16.229   5.228  1.00  0.00     0.069 A 
HETATM    5  C   UNL     1      43.444 -16.621   6.537  1.00  0.00     0.037 A 
HETATM    6  C   UNL     1      43.992 -15.716   7.449  1.00  0.00     0.012 A 
ENDROOT
BRANCH   1   7
HETATM    7  C   UNL     1      44.930 -13.413   8.015  1.00  0.00     0.113 C 
HETATM    8  C   UNL     1      46.207 -12.815   7.420  1.00  0.00     0.037 C 
BRANCH   7   9
HETATM    9  N   UNL     1      43.978 -12.373   8.377  1.00  0.00    -0.352 N 
HETATM   10  C   UNL     1      44.137 -11.592   9.493  1.00  0.00     0.225 C 
HETATM   11  O   UNL     1      45.107 -11.671  10.236  1.00  0.00    -0.273 OA
HETATM   12  H   UNL     1      43.089 -12.366   7.893  1.00  0.00     0.163 HD
BRANCH  10  13
HETATM   13  C   UNL     1      43.092 -10.582   9.789  1.00  0.00     0.119 A 
HETATM   14  C   UNL     1      42.633 -10.199  11.169  1.00  0.00     0.126 A 
HETATM   15 CL   UNL     1      43.195 -11.019  12.616  1.00  0.00    -0.101 Cl
HETATM   16 CL   UNL     1      42.237  -8.503  11.459  1.00  0.00    -0.101 Cl
HETATM   17  C   UNL     1      41.711 -10.969  10.259  1.00  0.00     0.060 A 
ENDBRANCH  10  13
ENDBRANCH   7   9
ENDBRANCH   1   7
BRANCH   4  18
HETATM   18  O   UNL     1      42.671 -17.218   4.424  1.00  0.00    -0.347 OA
BRANCH  18  19
HETATM   19  C   UNL     1      43.330 -17.413   3.174  1.00  0.00     0.215 C 
BRANCH  19  20
HETATM   20  C   UNL     1      43.707 -18.863   3.058  1.00  0.00    -0.017 A 
HETATM   21  C   UNL     1      44.434 -19.498   4.061  1.00  0.00     0.125 A 
HETATM   22  N   UNL     1      44.813 -20.794   4.022  1.00  0.00    -0.272 NA
HETATM   23  C   UNL     1      44.440 -21.502   2.935  1.00  0.00     0.116 A 
HETATM   24  C   UNL     1      43.711 -20.971   1.884  1.00  0.00     0.020 A 
HETATM   25  C   UNL     1      43.342 -19.631   1.948  1.00  0.00     0.012 A 
ENDBRANCH  19  20
ENDBRANCH  18  19
ENDBRANCH   4  18
TORSDOF 6
ENDMDL
MODEL 3
REMARK VINA RESULT:      -7.7      6.289      7.813
REMARK  6 active torsions:
REMARK  status: ('A' for Active; 'I' for Inactive)
REMARK    1  A    between atoms: C_2  and  N_3 
REMARK    2  A    between atoms: C_2  and  C_11 
REMARK       I    between atoms: N_3  and  C_4 
REMARK    3  A    between atoms: C_4  and  C_5 
REMARK    4  A    between atoms: C_14  and  O_15 
REMARK    5  A    between atoms: O_15  and  C_16 
REMARK    6  A    between atoms: C_16  and  C_17 
ROOT
HETATM    1  C   UNL     1      40.646 -15.364   0.282  1.00  0.00    -0.036 A 
HETATM    2  C   UNL     1      40.105 -15.384   1.576  1.00  0.00     0.012 A 
HETATM    3  C   UNL     1      40.613 -16.245   2.555  1.00  0.00     0.037 A 
HETATM    4  C   UNL     1      41.658 -17.113   2.248  1.00  0.00     0.069 A 
HETATM    5  C   UNL     1      42.224 -17.079   0.973  1.00  0.00     0.037 A 
HETATM    6  C   UNL     1      41.722 -16.216  -0.004  1.00  0.00     0.012 A 
ENDROOT
BRANCH   1   7
HETATM    7  C   UNL     1      40.031 -14.472  -0.783  1.00  0.00     0.113 C 
HETATM    8  C   UNL     1      38.701 -13.867  -0.329  1.00  0.00     0.037 C 
BRANCH   7   9
HETATM    9  N   UNL     1      40.984 -13.436  -1.153  1.00  0.00    -0.352 N 
HETATM   10  C   UNL     1      41.613 -13.422  -2.371  1.00  0.00     0.225 C 
HETATM   11  O   UNL     1      41.387 -14.240  -3.254  1.00  0.00    -0.273 OA
HETATM   12  H   UNL     1      41.322 -12.831  -0.416  1.00  0.00     0.163 HD
BRANCH  10  13
HETATM   13  C   UNL     1      42.591 -12.339  -2.635  1.00  0.00     0.119 A 
HETATM   14  C   UNL     1      42.322 -10.872  -2.450  1.00  0.00     0.126 A 
HETATM   15 CL   UNL     1      40.738 -10.247  -2.020  1.00  0.00    -0.101 Cl
HETATM   16 CL   UNL     1      43.639  -9.869  -1.836  1.00  0.00    -0.101 Cl
HETATM   17  C   UNL     1      42.483 -11.434  -3.839  1.00  0.00     0.060 A 
ENDBRANCH  10  13
ENDBRANCH   7   9
ENDBRANCH   1   7
BRANCH   4  18
HETATM   18  O   UNL     1      42.215 -18.028   3.098  1.00  0.00    -0.347 OA
BRANCH  18  19
HETATM   19  C   UNL     1      43.630 -18.192   3.020  1.00  0.00     0.215 C 
BRANCH  19  20
HETATM   20  C   UNL     1      43.937 -19.663   3.003  1.00  0.00    -0.017 A 
HETATM   21  C   UNL     1      44.539 -20.283   4.094  1.00  0.00     0.125 A 
HETATM   22  N   UNL     1      44.849 -21.597   4.147  1.00  0.00    -0.272 NA
HETATM   23  C   UNL     1      44.534 -22.338   3.064  1.00  0.00     0.116 A 
HETATM   24  C   UNL     1      43.928 -21.824   1.929  1.00  0.00     0.020 A 
HETATM   25  C   UNL     1      43.627 -20.465   1.901  1.00  0.00     0.012 A 
ENDBRANCH  19  20
ENDBRANCH  18  19
ENDBRANCH   4  18
TORSDOF 6
ENDMDL
MODEL 4
REMARK VINA RESULT:      -7.7      4.723      6.196
REMARK  6 active torsions:
REMARK  status: ('A' for Active; 'I' for Inactive)
REMARK    1  A    between atoms: C_2  and  N_3 
REMARK    2  A    between atoms: C_2  and  C_11 
REMARK       I    between atoms: N_3  and  C_4 
REMARK    3  A    between atoms: C_4  and  C_5 
REMARK    4  A    between atoms: C_14  and  O_15 
REMARK    5  A    between atoms: O_15  and  C_16 
REMARK    6  A    between atoms: C_16  and  C_17 
ROOT
HETATM    1  C   UNL     1      40.910 -15.880   4.857  1.00  0.00    -0.036 A 
HETATM    2  C   UNL     1      41.239 -16.940   3.997  1.00  0.00     0.012 A 
HETATM    3  C   UNL     1      42.079 -17.976   4.422  1.00  0.00     0.037 A 
HETATM    4  C   UNL     1      42.618 -17.957   5.706  1.00  0.00     0.069 A 
HETATM    5  C   UNL     1      42.272 -16.924   6.578  1.00  0.00     0.037 A 
HETATM    6  C   UNL     1      41.429 -15.892   6.159  1.00  0.00     0.012 A 
ENDROOT
BRANCH   1   7
HETATM    7  C   UNL     1      40.054 -14.732   4.351  1.00  0.00     0.113 C 
HETATM    8  C   UNL     1      40.114 -13.518   5.280  1.00  0.00     0.037 C 
BRANCH   7   9
HETATM    9  N   UNL     1      40.466 -14.383   2.999  1.00  0.00    -0.352 N 
HETATM   10  C   UNL     1      39.750 -14.765   1.895  1.00  0.00     0.225 C 
HETATM   11  O   UNL     1      38.692 -15.378   1.959  1.00  0.00    -0.273 OA
HETATM   12  H   UNL     1      41.402 -14.016   2.879  1.00  0.00     0.163 HD
BRANCH  10  13
HETATM   13  C   UNL     1      40.275 -14.386   0.560  1.00  0.00     0.119 A 
HETATM   14  C   UNL     1      41.194 -15.233  -0.275  1.00  0.00     0.126 A 
HETATM   15 CL   UNL     1      41.877 -16.743   0.304  1.00  0.00    -0.101 Cl
HETATM   16 CL   UNL     1      40.953 -15.222  -2.024  1.00  0.00    -0.101 Cl
HETATM   17  C   UNL     1      41.709 -13.963   0.351  1.00  0.00     0.060 A 
ENDBRANCH  10  13
ENDBRANCH   7   9
ENDBRANCH   1   7
BRANCH   4  18
HETATM   18  O   UNL     1      43.480 -18.882   6.226  1.00  0.00    -0.347 OA
BRANCH  18  19
HETATM   19  C   UNL     1      44.737 -19.022   5.566  1.00  0.00     0.215 C 
BRANCH  19  20
HETATM   20  C   UNL     1      44.680 -20.242   4.691  1.00  0.00    -0.017 A 
HETATM   21  C   UNL     1      44.740 -21.521   5.238  1.00  0.00     0.125 A 
HETATM   22  N   UNL     1      44.701 -22.661   4.513  1.00  0.00    -0.272 NA
HETATM   23  C   UNL     1      44.584 -22.525   3.176  1.00  0.00     0.116 A 
HETATM   24  C   UNL     1      44.509 -21.302   2.530  1.00  0.00     0.020 A 
HETATM   25  C   UNL     1      44.560 -20.145   3.302  1.00  0.00     0.012 A 
ENDBRANCH  19  20
ENDBRANCH  18  19
ENDBRANCH   4  18
TORSDOF 6
ENDMDL
MODEL 5
REMARK VINA RESULT:      -7.5      6.529      8.297
REMARK  6 active torsions:
REMARK  status: ('A' for Active; 'I' for Inactive)
REMARK    1  A    between atoms: C_2  and  N_3 
REMARK    2  A    between atoms: C_2  and  C_11 
REMARK       I    between atoms: N_3  and  C_4 
REMARK    3  A    between atoms: C_4  and  C_5 
REMARK    4  A    between atoms: C_14  and  O_15 
REMARK    5  A    between atoms: O_15  and  C_16 
REMARK    6  A    between atoms: C_16  and  C_17 
ROOT
HETATM    1  C   UNL     1      40.587 -15.375   1.695  1.00  0.00    -0.036 A 
HETATM    2  C   UNL     1      41.056 -16.451   0.926  1.00  0.00     0.012 A 
HETATM    3  C   UNL     1      41.690 -17.544   1.528  1.00  0.00     0.037 A 
HETATM    4  C   UNL     1      41.884 -17.566   2.907  1.00  0.00     0.069 A 
HETATM    5  C   UNL     1      41.394 -16.516   3.684  1.00  0.00     0.037 A 
HETATM    6  C   UNL     1      40.755 -15.427   3.086  1.00  0.00     0.012 A 
ENDROOT
BRANCH   1   7
HETATM    7  C   UNL     1      39.966 -14.169   1.012  1.00  0.00     0.113 C 
HETATM    8  C   UNL     1      40.873 -12.939   1.079  1.00  0.00     0.037 C 
BRANCH   7   9
HETATM    9  N   UNL     1      39.638 -14.511  -0.364  1.00  0.00    -0.352 N 
HETATM   10  C   UNL     1      38.577 -13.948  -1.024  1.00  0.00     0.225 C 
HETATM   11  O   UNL     1      37.860 -13.086  -0.534  1.00  0.00    -0.273 OA
HETATM   12  H   UNL     1      40.095 -15.321  -0.764  1.00  0.00     0.163 HD
BRANCH  10  13
HETATM   13  C   UNL     1      38.310 -14.390  -2.415  1.00  0.00     0.119 A 
HETATM   14  C   UNL     1      39.354 -14.894  -3.373  1.00  0.00     0.126 A 
HETATM   15 CL   UNL     1      41.069 -14.890  -2.993  1.00  0.00    -0.101 Cl
HETATM   16 CL   UNL     1      38.901 -16.211  -4.459  1.00  0.00    -0.101 Cl
HETATM   17  C   UNL     1      38.701 -13.557  -3.612  1.00  0.00     0.060 A 
ENDBRANCH  10  13
ENDBRANCH   7   9
ENDBRANCH   1   7
BRANCH   4  18
HETATM   18  O   UNL     1      42.523 -18.550   3.610  1.00  0.00    -0.347 OA
BRANCH  18  19
HETATM   19  C   UNL     1      43.916 -18.715   3.350  1.00  0.00     0.215 C 
BRANCH  19  20
HETATM   20  C   UNL     1      44.263 -20.166   3.531  1.00  0.00    -0.017 A 
HETATM   21  C   UNL     1      44.166 -21.065   2.473  1.00  0.00     0.125 A 
HETATM   22  N   UNL     1      44.455 -22.382   2.564  1.00  0.00    -0.272 NA
HETATM   23  C   UNL     1      44.874 -22.829   3.767  1.00  0.00     0.116 A 
HETATM   24  C   UNL     1      45.012 -22.020   4.882  1.00  0.00     0.020 A 
HETATM   25  C   UNL     1      44.700 -20.669   4.761  1.00  0.00     0.012 A 
ENDBRANCH  19  20
ENDBRANCH  18  19
ENDBRANCH   4  18
TORSDOF 6
ENDMDL
MODEL 6
REMARK VINA RESULT:      -7.4      1.735      2.565
REMARK  6 active torsions:
REMARK  status: ('A' for Active; 'I' for Inactive)
REMARK    1  A    between atoms: C_2  and  N_3 
REMARK    2  A    between atoms: C_2  and  C_11 
REMARK       I    between atoms: N_3  and  C_4 
REMARK    3  A    between atoms: C_4  and  C_5 
REMARK    4  A    between atoms: C_14  and  O_15 
REMARK    5  A    between atoms: O_15  and  C_16 
REMARK    6  A    between atoms: C_16  and  C_17 
ROOT
HETATM    1  C   UNL     1      41.783 -15.340   4.450  1.00  0.00    -0.036 A 
HETATM    2  C   UNL     1      42.235 -15.269   3.124  1.00  0.00     0.012 A 
HETATM    3  C   UNL     1      42.543 -16.431   2.406  1.00  0.00     0.037 A 
HETATM    4  C   UNL     1      42.422 -17.679   3.012  1.00  0.00     0.069 A 
HETATM    5  C   UNL     1      41.944 -17.762   4.319  1.00  0.00     0.037 A 
HETATM    6  C   UNL     1      41.630 -16.605   5.036  1.00  0.00     0.012 A 
ENDROOT
BRANCH   1   7
HETATM    7  C   UNL     1      41.522 -14.064   5.231  1.00  0.00     0.113 C 
HETATM    8  C   UNL     1      40.049 -13.915   5.616  1.00  0.00     0.037 C 
BRANCH   7   9
HETATM    9  N   UNL     1      42.381 -14.035   6.406  1.00  0.00    -0.352 N 
HETATM   10  C   UNL     1      43.726 -13.788   6.323  1.00  0.00     0.225 C 
HETATM   11  O   UNL     1      44.298 -13.524   5.273  1.00  0.00    -0.273 OA
HETATM   12  H   UNL     1      41.997 -14.395   7.271  1.00  0.00     0.163 HD
BRANCH  10  13
HETATM   13  C   UNL     1      44.517 -13.813   7.578  1.00  0.00     0.119 A 
HETATM   14  C   UNL     1      44.449 -12.769   8.658  1.00  0.00     0.126 A 
HETATM   15 CL   UNL     1      43.508 -11.296   8.494  1.00  0.00    -0.101 Cl
HETATM   16 CL   UNL     1      44.572 -13.315  10.333  1.00  0.00    -0.101 Cl
HETATM   17  C   UNL     1      45.689 -12.890   7.809  1.00  0.00     0.060 A 
ENDBRANCH  10  13
ENDBRANCH   7   9
ENDBRANCH   1   7
BRANCH   4  18
HETATM   18  O   UNL     1      42.730 -18.881   2.436  1.00  0.00    -0.347 OA
BRANCH  18  19
HETATM   19  C   UNL     1      44.116 -19.202   2.333  1.00  0.00     0.215 C 
BRANCH  19  20
HETATM   20  C   UNL     1      44.377 -20.441   3.143  1.00  0.00    -0.017 A 
HETATM   21  C   UNL     1      44.382 -21.699   2.547  1.00  0.00     0.125 A 
HETATM   22  N   UNL     1      44.603 -22.854   3.212  1.00  0.00    -0.272 NA
HETATM   23  C   UNL     1      44.842 -22.755   4.537  1.00  0.00     0.116 A 
HETATM   24  C   UNL     1      44.867 -21.554   5.226  1.00  0.00     0.020 A 
HETATM   25  C   UNL     1      44.628 -20.381   4.517  1.00  0.00     0.012 A 
ENDBRANCH  19  20
ENDBRANCH  18  19
ENDBRANCH   4  18
TORSDOF 6
ENDMDL
MODEL 7
REMARK VINA RESULT:      -7.4      5.767      7.463
REMARK  6 active torsions:
REMARK  status: ('A' for Active; 'I' for Inactive)
REMARK    1  A    between atoms: C_2  and  N_3 
REMARK    2  A    between atoms: C_2  and  C_11 
REMARK       I    between atoms: N_3  and  C_4 
REMARK    3  A    between atoms: C_4  and  C_5 
REMARK    4  A    between atoms: C_14  and  O_15 
REMARK    5  A    between atoms: O_15  and  C_16 
REMARK    6  A    between atoms: C_16  and  C_17 
ROOT
HETATM    1  C   UNL     1      40.139 -14.866   2.929  1.00  0.00    -0.036 A 
HETATM    2  C   UNL     1      40.724 -14.774   4.201  1.00  0.00     0.012 A 
HETATM    3  C   UNL     1      41.499 -15.821   4.713  1.00  0.00     0.037 A 
HETATM    4  C   UNL     1      41.685 -16.983   3.968  1.00  0.00     0.069 A 
HETATM    5  C   UNL     1      41.134 -17.071   2.689  1.00  0.00     0.037 A 
HETATM    6  C   UNL     1      40.364 -16.026   2.174  1.00  0.00     0.012 A 
ENDROOT
BRANCH   1   7
HETATM    7  C   UNL     1      39.243 -13.748   2.424  1.00  0.00     0.113 C 
HETATM    8  C   UNL     1      39.523 -12.422   3.135  1.00  0.00     0.037 C 
BRANCH   7   9
HETATM    9  N   UNL     1      39.400 -13.618   0.983  1.00  0.00    -0.352 N 
HETATM   10  C   UNL     1      38.381 -13.893   0.109  1.00  0.00     0.225 C 
HETATM   11  O   UNL     1      37.256 -14.216   0.467  1.00  0.00    -0.273 OA
HETATM   12  H   UNL     1      40.341 -13.507   0.626  1.00  0.00     0.163 HD
BRANCH  10  13
HETATM   13  C   UNL     1      38.656 -13.761  -1.343  1.00  0.00     0.119 A 
HETATM   14  C   UNL     1      39.784 -14.439  -2.070  1.00  0.00     0.126 A 
HETATM   15 CL   UNL     1      41.016 -15.377  -1.243  1.00  0.00    -0.101 Cl
HETATM   16 CL   UNL     1      39.470 -15.021  -3.707  1.00  0.00    -0.101 Cl
HETATM   17  C   UNL     1      39.811 -12.945  -1.872  1.00  0.00     0.060 A 
ENDBRANCH  10  13
ENDBRANCH   7   9
ENDBRANCH   1   7
BRANCH   4  18
HETATM   18  O   UNL     1      42.382 -18.088   4.369  1.00  0.00    -0.347 OA
BRANCH  18  19
HETATM   19  C   UNL     1      43.729 -18.193   3.910  1.00  0.00     0.215 C 
BRANCH  19  20
HETATM   20  C   UNL     1      43.965 -19.604   3.452  1.00  0.00    -0.017 A 
HETATM   21  C   UNL     1      44.593 -20.531   4.278  1.00  0.00     0.125 A 
HETATM   22  N   UNL     1      44.844 -21.813   3.932  1.00  0.00    -0.272 NA
HETATM   23  C   UNL     1      44.439 -22.199   2.704  1.00  0.00     0.116 A 
HETATM   24  C   UNL     1      43.800 -21.361   1.806  1.00  0.00     0.020 A 
HETATM   25  C   UNL     1      43.562 -20.044   2.187  1.00  0.00     0.012 A 
ENDBRANCH  19  20
ENDBRANCH  18  19
ENDBRANCH   4  18
TORSDOF 6
ENDMDL
MODEL 8
REMARK VINA RESULT:      -7.3      6.376      7.634
REMARK  6 active torsions:
REMARK  status: ('A' for Active; 'I' for Inactive)
REMARK    1  A    between atoms: C_2  and  N_3 
REMARK    2  A    between atoms: C_2  and  C_11 
REMARK       I    between atoms: N_3  and  C_4 
REMARK    3  A    between atoms: C_4  and  C_5 
REMARK    4  A    between atoms: C_14  and  O_15 
REMARK    5  A    between atoms: O_15  and  C_16 
REMARK    6  A    between atoms: C_16  and  C_17 
ROOT
HETATM    1  C   UNL     1      40.346 -15.311   0.859  1.00  0.00    -0.036 A 
HETATM    2  C   UNL     1      41.386 -15.892   0.118  1.00  0.00     0.012 A 
HETATM    3  C   UNL     1      42.167 -16.921   0.658  1.00  0.00     0.037 A 
HETATM    4  C   UNL     1      41.931 -17.370   1.956  1.00  0.00     0.069 A 
HETATM    5  C   UNL     1      40.879 -16.820   2.689  1.00  0.00     0.037 A 
HETATM    6  C   UNL     1      40.095 -15.797   2.150  1.00  0.00     0.012 A 
ENDROOT
BRANCH   1   7
HETATM    7  C   UNL     1      39.559 -14.149   0.278  1.00  0.00     0.113 C 
HETATM    8  C   UNL     1      38.376 -13.756   1.165  1.00  0.00     0.037 C 
BRANCH   7   9
HETATM    9  N   UNL     1      40.454 -13.022   0.062  1.00  0.00    -0.352 N 
HETATM   10  C   UNL     1      40.418 -12.269  -1.083  1.00  0.00     0.225 C 
HETATM   11  O   UNL     1      39.606 -12.449  -1.981  1.00  0.00    -0.273 OA
HETATM   12  H   UNL     1      41.240 -12.924   0.693  1.00  0.00     0.163 HD
BRANCH  10  13
HETATM   13  C   UNL     1      41.396 -11.162  -1.218  1.00  0.00     0.119 A 
HETATM   14  C   UNL     1      42.247 -10.909  -2.432  1.00  0.00     0.126 A 
HETATM   15 CL   UNL     1      42.281 -12.000  -3.807  1.00  0.00    -0.101 Cl
HETATM   16 CL   UNL     1      42.545  -9.229  -2.887  1.00  0.00    -0.101 Cl
HETATM   17  C   UNL     1      42.886 -11.394  -1.156  1.00  0.00     0.060 A 
ENDBRANCH  10  13
ENDBRANCH   7   9
ENDBRANCH   1   7
BRANCH   4  18
HETATM   18  O   UNL     1      42.645 -18.334   2.611  1.00  0.00    -0.347 OA
BRANCH  18  19
HETATM   19  C   UNL     1      43.512 -19.137   1.812  1.00  0.00     0.215 C 
BRANCH  19  20
HETATM   20  C   UNL     1      43.999 -20.287   2.649  1.00  0.00    -0.017 A 
HETATM   21  C   UNL     1      44.033 -21.581   2.139  1.00  0.00     0.125 A 
HETATM   22  N   UNL     1      44.452 -22.662   2.834  1.00  0.00    -0.272 NA
HETATM   23  C   UNL     1      44.869 -22.445   4.099  1.00  0.00     0.116 A 
HETATM   24  C   UNL     1      44.882 -21.198   4.701  1.00  0.00     0.020 A 
HETATM   25  C   UNL     1      44.438 -20.105   3.963  1.00  0.00     0.012 A 
ENDBRANCH  19  20
ENDBRANCH  18  19
ENDBRANCH   4  18
TORSDOF 6
ENDMDL
MODEL 9
REMARK VINA RESULT:      -7.2      2.269      3.000
REMARK  6 active torsions:
REMARK  status: ('A' for Active; 'I' for Inactive)
REMARK    1  A    between atoms: C_2  and  N_3 
REMARK    2  A    between atoms: C_2  and  C_11 
REMARK       I    between atoms: N_3  and  C_4 
REMARK    3  A    between atoms: C_4  and  C_5 
REMARK    4  A    between atoms: C_14  and  O_15 
REMARK    5  A    between atoms: O_15  and  C_16 
REMARK    6  A    between atoms: C_16  and  C_17 
ROOT
HETATM    1  C   UNL     1      41.587 -12.960   5.729  1.00  0.00    -0.036 A 
HETATM    2  C   UNL     1      42.911 -13.379   5.930  1.00  0.00     0.012 A 
HETATM    3  C   UNL     1      43.389 -14.557   5.344  1.00  0.00     0.037 A 
HETATM    4  C   UNL     1      42.543 -15.343   4.565  1.00  0.00     0.069 A 
HETATM    5  C   UNL     1      41.235 -14.918   4.334  1.00  0.00     0.037 A 
HETATM    6  C   UNL     1      40.757 -13.741   4.913  1.00  0.00     0.012 A 
ENDROOT
BRANCH   1   7
HETATM    7  C   UNL     1      41.071 -11.717   6.433  1.00  0.00     0.113 C 
HETATM    8  C   UNL     1      39.543 -11.699   6.522  1.00  0.00     0.037 C 
BRANCH   7   9
HETATM    9  N   UNL     1      41.679 -11.622   7.752  1.00  0.00    -0.352 N 
HETATM   10  C   UNL     1      42.146 -10.438   8.259  1.00  0.00     0.225 C 
HETATM   11  O   UNL     1      42.045  -9.368   7.672  1.00  0.00    -0.273 OA
HETATM   12  H   UNL     1      41.927 -12.489   8.213  1.00  0.00     0.163 HD
BRANCH  10  13
HETATM   13  C   UNL     1      42.778 -10.457   9.601  1.00  0.00     0.119 A 
HETATM   14  C   UNL     1      42.095 -10.896  10.866  1.00  0.00     0.126 A 
HETATM   15 CL   UNL     1      40.392 -11.317  10.927  1.00  0.00    -0.101 Cl
HETATM   16 CL   UNL     1      43.058 -11.786  12.049  1.00  0.00    -0.101 Cl
HETATM   17  C   UNL     1      42.436  -9.442  10.665  1.00  0.00     0.060 A 
ENDBRANCH  10  13
ENDBRANCH   7   9
ENDBRANCH   1   7
BRANCH   4  18
HETATM   18  O   UNL     1      42.874 -16.531   3.974  1.00  0.00    -0.347 OA
BRANCH  18  19
HETATM   19  C   UNL     1      43.198 -17.610   4.850  1.00  0.00     0.215 C 
BRANCH  19  20
HETATM   20  C   UNL     1      43.625 -18.785   4.016  1.00  0.00    -0.017 A 
HETATM   21  C   UNL     1      44.519 -19.729   4.512  1.00  0.00     0.125 A 
HETATM   22  N   UNL     1      44.951 -20.806   3.819  1.00  0.00    -0.272 NA
HETATM   23  C   UNL     1      44.460 -20.961   2.572  1.00  0.00     0.116 A 
HETATM   24  C   UNL     1      43.562 -20.085   1.985  1.00  0.00     0.020 A 
HETATM   25  C   UNL     1      43.141 -18.981   2.719  1.00  0.00     0.012 A 
ENDBRANCH  19  20
ENDBRANCH  18  19
ENDBRANCH   4  18
TORSDOF 6
ENDMDL
MODEL 10
REMARK VINA RESULT:      -7.0      6.990      8.841
REMARK  6 active torsions:
REMARK  status: ('A' for Active; 'I' for Inactive)
REMARK    1  A    between atoms: C_2  and  N_3 
REMARK    2  A    between atoms: C_2  and  C_11 
REMARK       I    between atoms: N_3  and  C_4 
REMARK    3  A    between atoms: C_4  and  C_5 
REMARK    4  A    between atoms: C_14  and  O_15 
REMARK    5  A    between atoms: O_15  and  C_16 
REMARK    6  A    between atoms: C_16  and  C_17 
ROOT
HETATM    1  C   UNL     1      39.950 -14.047   2.804  1.00  0.00    -0.036 A 
HETATM    2  C   UNL     1      40.191 -12.757   2.306  1.00  0.00     0.012 A 
HETATM    3  C   UNL     1      39.558 -12.305   1.143  1.00  0.00     0.037 A 
HETATM    4  C   UNL     1      38.689 -13.145   0.449  1.00  0.00     0.069 A 
HETATM    5  C   UNL     1      38.419 -14.417   0.953  1.00  0.00     0.037 A 
HETATM    6  C   UNL     1      39.046 -14.868   2.116  1.00  0.00     0.012 A 
ENDROOT
BRANCH   1   7
HETATM    7  C   UNL     1      40.703 -14.540   4.027  1.00  0.00     0.113 C 
HETATM    8  C   UNL     1      39.901 -14.340   5.315  1.00  0.00     0.037 C 
BRANCH   7   9
HETATM    9  N   UNL     1      41.063 -15.938   3.841  1.00  0.00    -0.352 N 
HETATM   10  C   UNL     1      42.354 -16.336   3.609  1.00  0.00     0.225 C 
HETATM   11  O   UNL     1      43.303 -15.564   3.592  1.00  0.00    -0.273 OA
HETATM   12  H   UNL     1      40.308 -16.596   3.691  1.00  0.00     0.163 HD
BRANCH  10  13
HETATM   13  C   UNL     1      42.608 -17.782   3.400  1.00  0.00     0.119 A 
HETATM   14  C   UNL     1      43.609 -18.348   2.431  1.00  0.00     0.126 A 
HETATM   15 CL   UNL     1      44.516 -17.345   1.312  1.00  0.00    -0.101 Cl
HETATM   16 CL   UNL     1      44.497 -19.793   2.922  1.00  0.00    -0.101 Cl
HETATM   17  C   UNL     1      42.134 -18.512   2.166  1.00  0.00     0.060 A 
ENDBRANCH  10  13
ENDBRANCH   7   9
ENDBRANCH   1   7
BRANCH   4  18
HETATM   18  O   UNL     1      38.042 -12.839  -0.717  1.00  0.00    -0.347 OA
BRANCH  18  19
HETATM   19  C   UNL     1      38.864 -12.620  -1.862  1.00  0.00     0.215 C 
BRANCH  19  20
HETATM   20  C   UNL     1      38.889 -13.884  -2.676  1.00  0.00    -0.017 A 
HETATM   21  C   UNL     1      37.796 -14.259  -3.451  1.00  0.00     0.125 A 
HETATM   22  N   UNL     1      37.746 -15.382  -4.202  1.00  0.00    -0.272 NA
HETATM   23  C   UNL     1      38.843 -16.168  -4.192  1.00  0.00     0.116 A 
HETATM   24  C   UNL     1      39.985 -15.884  -3.462  1.00  0.00     0.020 A 
HETATM   25  C   UNL     1      40.005 -14.725  -2.692  1.00  0.00     0.012 A 
ENDBRANCH  19  20
ENDBRANCH  18  19
ENDBRANCH   4  18
TORSDOF 6
ENDMDL
