MODEL 1
REMARK VINA RESULT:      -9.7      0.000      0.000
REMARK  4 active torsions:
REMARK  status: ('A' for Active; 'I' for Inactive)
REMARK    1  A    between atoms: C_4  and  C_5 
REMARK    2  A    between atoms: C_9  and  C_10 
REMARK       I    between atoms: C_10  and  N_11 
REMARK    3  A    between atoms: N_11  and  N_12 
REMARK    4  A    between atoms: C_13  and  C_14 
ROOT
HETATM    1  C   UNL     1      45.141 -13.269   7.915  1.00  0.00     0.289 C 
HETATM    2  N   UNL     1      44.210 -14.278   7.722  1.00  0.00    -0.242 N 
HETATM    3  O   UNL     1      46.142 -13.113   7.221  1.00  0.00    -0.264 OA
HETATM    4  H   UNL     1      43.414 -14.368   8.340  1.00  0.00     0.192 HD
ENDROOT
BRANCH   1   5
HETATM    5  C   UNL     1      44.857 -12.391   9.023  1.00  0.00     0.121 A 
HETATM    6  N   UNL     1      45.657 -11.317   9.297  1.00  0.00    -0.272 N 
HETATM    7  N   UNL     1      45.282 -10.611  10.372  1.00  0.00    -0.174 NA
HETATM    8  H   UNL     1      46.484 -11.030   8.780  1.00  0.00     0.189 HD
HETATM    9  C   UNL     1      44.173 -11.224  10.814  1.00  0.00     0.089 A 
HETATM   10  C   UNL     1      43.875 -12.349   9.993  1.00  0.00     0.071 A 
BRANCH   9  11
HETATM   11  C   UNL     1      43.444 -10.744  11.993  1.00  0.00    -0.006 A 
HETATM   12  C   UNL     1      43.917  -9.660  12.749  1.00  0.00     0.014 A 
HETATM   13  C   UNL     1      43.206  -9.206  13.865  1.00  0.00     0.001 A 
HETATM   14  C   UNL     1      42.017  -9.828  14.238  1.00  0.00     0.000 A 
HETATM   15  C   UNL     1      41.538 -10.907  13.501  1.00  0.00     0.001 A 
HETATM   16  C   UNL     1      42.248 -11.363  12.387  1.00  0.00     0.014 A 
ENDBRANCH   9  11
ENDBRANCH   1   5
BRANCH   2  17
HETATM   17  N   UNL     1      44.384 -15.188   6.716  1.00  0.00    -0.182 NA
HETATM   18  C   UNL     1      43.866 -16.356   6.917  1.00  0.00     0.168 C 
BRANCH  18  19
HETATM   19  C   UNL     1      44.006 -17.376   5.916  1.00  0.00     0.052 A 
HETATM   20  N   UNL     1      43.512 -17.252   4.634  1.00  0.00    -0.358 N 
HETATM   21  H   UNL     1      43.016 -16.435   4.297  1.00  0.00     0.166 HD
HETATM   22  C   UNL     1      43.804 -18.382   3.924  1.00  0.00     0.016 A 
HETATM   23  C   UNL     1      44.496 -19.247   4.745  1.00  0.00    -0.033 A 
HETATM   24  C   UNL     1      43.457 -18.610   2.495  1.00  0.00     0.057 C 
HETATM   25  C   UNL     1      44.958 -20.589   4.288  1.00  0.00     0.040 C 
HETATM   26  C   UNL     1      44.621 -18.614   6.004  1.00  0.00     0.040 A 
HETATM   27  C   UNL     1      44.928 -20.689   2.749  1.00  0.00     0.005 C 
HETATM   28  C   UNL     1      43.635 -20.101   2.152  1.00  0.00     0.006 C 
ENDBRANCH  18  19
ENDBRANCH   2  17
TORSDOF 4
ENDMDL
MODEL 2
REMARK VINA RESULT:      -8.9      1.358      2.074
REMARK  4 active torsions:
REMARK  status: ('A' for Active; 'I' for Inactive)
REMARK    1  A    between atoms: C_4  and  C_5 
REMARK    2  A    between atoms: C_9  and  C_10 
REMARK       I    between atoms: C_10  and  N_11 
REMARK    3  A    between atoms: N_11  and  N_12 
REMARK    4  A    between atoms: C_13  and  C_14 
ROOT
HETATM    1  C   UNL     1      44.334 -13.877   6.718  1.00  0.00     0.289 C 
HETATM    2  N   UNL     1      43.700 -15.088   6.947  1.00  0.00    -0.242 N 
HETATM    3  O   UNL     1      44.834 -13.553   5.644  1.00  0.00    -0.264 OA
HETATM    4  H   UNL     1      43.325 -15.307   7.860  1.00  0.00     0.192 HD
ENDROOT
BRANCH   1   5
HETATM    5  C   UNL     1      44.380 -12.995   7.859  1.00  0.00     0.121 A 
HETATM    6  N   UNL     1      45.526 -12.843   8.588  1.00  0.00    -0.272 N 
HETATM    7  N   UNL     1      45.407 -12.012   9.633  1.00  0.00    -0.174 NA
HETATM    8  H   UNL     1      46.419 -13.297   8.417  1.00  0.00     0.189 HD
HETATM    9  C   UNL     1      44.140 -11.574   9.580  1.00  0.00     0.089 A 
HETATM   10  C   UNL     1      43.461 -12.172   8.478  1.00  0.00     0.071 A 
BRANCH   9  11
HETATM   11  C   UNL     1      43.609 -10.628  10.565  1.00  0.00    -0.006 A 
HETATM   12  C   UNL     1      42.520  -9.796  10.261  1.00  0.00     0.014 A 
HETATM   13  C   UNL     1      42.016  -8.905  11.214  1.00  0.00     0.001 A 
HETATM   14  C   UNL     1      42.593  -8.834  12.481  1.00  0.00     0.000 A 
HETATM   15  C   UNL     1      43.676  -9.649  12.795  1.00  0.00     0.001 A 
HETATM   16  C   UNL     1      44.182 -10.539  11.843  1.00  0.00     0.014 A 
ENDBRANCH   9  11
ENDBRANCH   1   5
BRANCH   2  17
HETATM   17  N   UNL     1      43.615 -16.017   5.948  1.00  0.00    -0.182 NA
HETATM   18  C   UNL     1      44.187 -17.153   6.183  1.00  0.00     0.168 C 
BRANCH  18  19
HETATM   19  C   UNL     1      44.153 -18.185   5.185  1.00  0.00     0.052 A 
HETATM   20  N   UNL     1      44.581 -19.476   5.416  1.00  0.00    -0.358 N 
HETATM   21  H   UNL     1      44.948 -19.798   6.304  1.00  0.00     0.166 HD
HETATM   22  C   UNL     1      44.421 -20.217   4.280  1.00  0.00     0.016 A 
HETATM   23  C   UNL     1      43.882 -19.407   3.302  1.00  0.00    -0.033 A 
HETATM   24  C   UNL     1      44.745 -21.663   4.146  1.00  0.00     0.057 C 
HETATM   25  C   UNL     1      43.591 -19.898   1.925  1.00  0.00     0.040 C 
HETATM   26  C   UNL     1      43.716 -18.123   3.873  1.00  0.00     0.040 A 
HETATM   27  C   UNL     1      43.581 -21.439   1.879  1.00  0.00     0.005 C 
HETATM   28  C   UNL     1      44.761 -22.054   2.657  1.00  0.00     0.006 C 
ENDBRANCH  18  19
ENDBRANCH   2  17
TORSDOF 4
ENDMDL
MODEL 3
REMARK VINA RESULT:      -8.3      8.530     12.211
REMARK  4 active torsions:
REMARK  status: ('A' for Active; 'I' for Inactive)
REMARK    1  A    between atoms: C_4  and  C_5 
REMARK    2  A    between atoms: C_9  and  C_10 
REMARK       I    between atoms: C_10  and  N_11 
REMARK    3  A    between atoms: N_11  and  N_12 
REMARK    4  A    between atoms: C_13  and  C_14 
ROOT
HETATM    1  C   UNL     1      41.794 -14.744   0.269  1.00  0.00     0.289 C 
HETATM    2  N   UNL     1      41.778 -14.680  -1.116  1.00  0.00    -0.242 N 
HETATM    3  O   UNL     1      41.657 -13.771   1.006  1.00  0.00    -0.264 OA
HETATM    4  H   UNL     1      41.918 -15.515  -1.670  1.00  0.00     0.192 HD
ENDROOT
BRANCH   1   5
HETATM    5  C   UNL     1      41.999 -16.066   0.809  1.00  0.00     0.121 A 
HETATM    6  N   UNL     1      40.997 -16.996   0.798  1.00  0.00    -0.272 N 
HETATM    7  N   UNL     1      41.328 -18.168   1.358  1.00  0.00    -0.174 NA
HETATM    8  H   UNL     1      40.059 -16.874   0.427  1.00  0.00     0.189 HD
HETATM    9  C   UNL     1      42.608 -18.019   1.731  1.00  0.00     0.089 A 
HETATM   10  C   UNL     1      43.065 -16.710   1.404  1.00  0.00     0.071 A 
BRANCH   9  11
HETATM   11  C   UNL     1      43.350 -19.099   2.390  1.00  0.00    -0.006 A 
HETATM   12  C   UNL     1      43.941 -18.912   3.649  1.00  0.00     0.014 A 
HETATM   13  C   UNL     1      44.637 -19.954   4.271  1.00  0.00     0.001 A 
HETATM   14  C   UNL     1      44.751 -21.193   3.644  1.00  0.00     0.000 A 
HETATM   15  C   UNL     1      44.174 -21.392   2.393  1.00  0.00     0.001 A 
HETATM   16  C   UNL     1      43.480 -20.351   1.769  1.00  0.00     0.014 A 
ENDBRANCH   9  11
ENDBRANCH   1   5
BRANCH   2  17
HETATM   17  N   UNL     1      41.616 -13.477  -1.745  1.00  0.00    -0.182 NA
HETATM   18  C   UNL     1      42.643 -13.038  -2.397  1.00  0.00     0.168 C 
BRANCH  18  19
HETATM   19  C   UNL     1      42.564 -11.779  -3.083  1.00  0.00     0.052 A 
HETATM   20  N   UNL     1      42.392 -11.669  -4.447  1.00  0.00    -0.358 N 
HETATM   21  H   UNL     1      42.305 -12.463  -5.070  1.00  0.00     0.166 HD
HETATM   22  C   UNL     1      42.355 -10.349  -4.794  1.00  0.00     0.016 A 
HETATM   23  C   UNL     1      42.498  -9.592  -3.650  1.00  0.00    -0.033 A 
HETATM   24  C   UNL     1      42.156  -9.830  -6.174  1.00  0.00     0.057 C 
HETATM   25  C   UNL     1      42.517  -8.101  -3.672  1.00  0.00     0.040 C 
HETATM   26  C   UNL     1      42.635 -10.495  -2.570  1.00  0.00     0.040 A 
HETATM   27  C   UNL     1      41.963  -7.562  -5.006  1.00  0.00     0.005 C 
HETATM   28  C   UNL     1      42.513  -8.333  -6.222  1.00  0.00     0.006 C 
ENDBRANCH  18  19
ENDBRANCH   2  17
TORSDOF 4
ENDMDL
MODEL 4
REMARK VINA RESULT:      -8.2      1.888     10.776
REMARK  4 active torsions:
REMARK  status: ('A' for Active; 'I' for Inactive)
REMARK    1  A    between atoms: C_4  and  C_5 
REMARK    2  A    between atoms: C_9  and  C_10 
REMARK       I    between atoms: C_10  and  N_11 
REMARK    3  A    between atoms: N_11  and  N_12 
REMARK    4  A    between atoms: C_13  and  C_14 
ROOT
HETATM    1  C   UNL     1      42.689 -15.670   5.774  1.00  0.00     0.289 C 
HETATM    2  N   UNL     1      43.603 -14.649   5.979  1.00  0.00    -0.242 N 
HETATM    3  O   UNL     1      41.596 -15.739   6.329  1.00  0.00    -0.264 OA
HETATM    4  H   UNL     1      44.498 -14.657   5.507  1.00  0.00     0.192 HD
ENDROOT
BRANCH   1   5
HETATM    5  C   UNL     1      43.120 -16.687   4.845  1.00  0.00     0.121 A 
HETATM    6  N   UNL     1      43.520 -16.363   3.579  1.00  0.00    -0.272 N 
HETATM    7  N   UNL     1      43.866 -17.416   2.825  1.00  0.00    -0.174 NA
HETATM    8  H   UNL     1      43.564 -15.431   3.176  1.00  0.00     0.189 HD
HETATM    9  C   UNL     1      43.715 -18.478   3.630  1.00  0.00     0.089 A 
HETATM   10  C   UNL     1      43.245 -18.060   4.910  1.00  0.00     0.071 A 
BRANCH   9  11
HETATM   11  C   UNL     1      44.001 -19.841   3.172  1.00  0.00    -0.006 A 
HETATM   12  C   UNL     1      44.695 -20.751   3.984  1.00  0.00     0.014 A 
HETATM   13  C   UNL     1      44.952 -22.051   3.538  1.00  0.00     0.001 A 
HETATM   14  C   UNL     1      44.519 -22.458   2.278  1.00  0.00     0.000 A 
HETATM   15  C   UNL     1      43.833 -21.566   1.459  1.00  0.00     0.001 A 
HETATM   16  C   UNL     1      43.577 -20.265   1.903  1.00  0.00     0.014 A 
ENDBRANCH   9  11
ENDBRANCH   1   5
BRANCH   2  17
HETATM   17  N   UNL     1      43.318 -13.639   6.856  1.00  0.00    -0.182 NA
HETATM   18  C   UNL     1      44.162 -13.476   7.823  1.00  0.00     0.168 C 
BRANCH  18  19
HETATM   19  C   UNL     1      43.937 -12.444   8.794  1.00  0.00     0.052 A 
HETATM   20  N   UNL     1      42.896 -11.542   8.715  1.00  0.00    -0.358 N 
HETATM   21  H   UNL     1      42.209 -11.539   7.970  1.00  0.00     0.166 HD
HETATM   22  C   UNL     1      42.951 -10.690   9.781  1.00  0.00     0.016 A 
HETATM   23  C   UNL     1      44.031 -11.040  10.565  1.00  0.00    -0.033 A 
HETATM   24  C   UNL     1      41.980  -9.598  10.056  1.00  0.00     0.057 C 
HETATM   25  C   UNL     1      44.392 -10.301  11.808  1.00  0.00     0.040 C 
HETATM   26  C   UNL     1      44.656 -12.145   9.939  1.00  0.00     0.040 A 
HETATM   27  C   UNL     1      43.219  -9.423  12.289  1.00  0.00     0.005 C 
HETATM   28  C   UNL     1      42.553  -8.654  11.130  1.00  0.00     0.006 C 
ENDBRANCH  18  19
ENDBRANCH   2  17
TORSDOF 4
ENDMDL
MODEL 5
REMARK VINA RESULT:      -8.1      7.413     11.338
REMARK  4 active torsions:
REMARK  status: ('A' for Active; 'I' for Inactive)
REMARK    1  A    between atoms: C_4  and  C_5 
REMARK    2  A    between atoms: C_9  and  C_10 
REMARK       I    between atoms: C_10  and  N_11 
REMARK    3  A    between atoms: N_11  and  N_12 
REMARK    4  A    between atoms: C_13  and  C_14 
ROOT
HETATM    1  C   UNL     1      41.267 -15.312  -0.104  1.00  0.00     0.289 C 
HETATM    2  N   UNL     1      42.400 -16.084   0.099  1.00  0.00    -0.242 N 
HETATM    3  O   UNL     1      40.326 -15.248   0.683  1.00  0.00    -0.264 OA
HETATM    4  H   UNL     1      43.134 -16.111  -0.597  1.00  0.00     0.192 HD
ENDROOT
BRANCH   1   5
HETATM    5  C   UNL     1      41.255 -14.572  -1.342  1.00  0.00     0.121 A 
HETATM    6  N   UNL     1      41.369 -15.207  -2.546  1.00  0.00    -0.272 N 
HETATM    7  N   UNL     1      41.369 -14.385  -3.605  1.00  0.00    -0.174 NA
HETATM    8  H   UNL     1      41.462 -16.208  -2.698  1.00  0.00     0.189 HD
HETATM    9  C   UNL     1      41.221 -13.157  -3.085  1.00  0.00     0.089 A 
HETATM   10  C   UNL     1      41.147 -13.233  -1.663  1.00  0.00     0.071 A 
BRANCH   9  11
HETATM   11  C   UNL     1      41.169 -11.962  -3.931  1.00  0.00    -0.006 A 
HETATM   12  C   UNL     1      39.949 -11.336  -4.231  1.00  0.00     0.014 A 
HETATM   13  C   UNL     1      39.914 -10.190  -5.032  1.00  0.00     0.001 A 
HETATM   14  C   UNL     1      41.095  -9.655  -5.542  1.00  0.00     0.000 A 
HETATM   15  C   UNL     1      42.312 -10.267  -5.257  1.00  0.00     0.001 A 
HETATM   16  C   UNL     1      42.348 -11.414  -4.459  1.00  0.00     0.014 A 
ENDBRANCH   9  11
ENDBRANCH   1   5
BRANCH   2  17
HETATM   17  N   UNL     1      42.516 -16.849   1.226  1.00  0.00    -0.182 NA
HETATM   18  C   UNL     1      43.573 -17.592   1.297  1.00  0.00     0.168 C 
BRANCH  18  19
HETATM   19  C   UNL     1      43.772 -18.433   2.443  1.00  0.00     0.052 A 
HETATM   20  N   UNL     1      43.314 -18.117   3.705  1.00  0.00    -0.358 N 
HETATM   21  H   UNL     1      42.799 -17.271   3.922  1.00  0.00     0.166 HD
HETATM   22  C   UNL     1      43.658 -19.111   4.576  1.00  0.00     0.016 A 
HETATM   23  C   UNL     1      44.342 -20.085   3.879  1.00  0.00    -0.033 A 
HETATM   24  C   UNL     1      43.315 -19.140   6.023  1.00  0.00     0.057 C 
HETATM   25  C   UNL     1      44.878 -21.312   4.534  1.00  0.00     0.040 C 
HETATM   26  C   UNL     1      44.418 -19.655   2.532  1.00  0.00     0.040 A 
HETATM   27  C   UNL     1      44.233 -21.526   5.918  1.00  0.00     0.005 C 
HETATM   28  C   UNL     1      44.153 -20.220   6.732  1.00  0.00     0.006 C 
ENDBRANCH  18  19
ENDBRANCH   2  17
TORSDOF 4
ENDMDL
MODEL 6
REMARK VINA RESULT:      -8.0      8.370     10.606
REMARK  4 active torsions:
REMARK  status: ('A' for Active; 'I' for Inactive)
REMARK    1  A    between atoms: C_4  and  C_5 
REMARK    2  A    between atoms: C_9  and  C_10 
REMARK       I    between atoms: C_10  and  N_11 
REMARK    3  A    between atoms: N_11  and  N_12 
REMARK    4  A    between atoms: C_13  and  C_14 
ROOT
HETATM    1  C   UNL     1      41.336 -14.957   0.556  1.00  0.00     0.289 C 
HETATM    2  N   UNL     1      42.121 -16.008   0.109  1.00  0.00    -0.242 N 
HETATM    3  O   UNL     1      40.791 -14.922   1.656  1.00  0.00    -0.264 OA
HETATM    4  H   UNL     1      42.528 -15.989  -0.816  1.00  0.00     0.192 HD
ENDROOT
BRANCH   1   5
HETATM    5  C   UNL     1      41.186 -13.875  -0.386  1.00  0.00     0.121 A 
HETATM    6  N   UNL     1      39.956 -13.349  -0.668  1.00  0.00    -0.272 N 
HETATM    7  N   UNL     1      39.973 -12.368  -1.581  1.00  0.00    -0.174 NA
HETATM    8  H   UNL     1      39.067 -13.637  -0.268  1.00  0.00     0.189 HD
HETATM    9  C   UNL     1      41.268 -12.218  -1.898  1.00  0.00     0.089 A 
HETATM   10  C   UNL     1      42.063 -13.149  -1.167  1.00  0.00     0.071 A 
BRANCH   9  11
HETATM   11  C   UNL     1      41.712 -11.222  -2.878  1.00  0.00    -0.006 A 
HETATM   12  C   UNL     1      41.925  -9.884  -2.510  1.00  0.00     0.014 A 
HETATM   13  C   UNL     1      42.359  -8.947  -3.453  1.00  0.00     0.001 A 
HETATM   14  C   UNL     1      42.584  -9.332  -4.772  1.00  0.00     0.000 A 
HETATM   15  C   UNL     1      42.373 -10.654  -5.153  1.00  0.00     0.001 A 
HETATM   16  C   UNL     1      41.937 -11.592  -4.213  1.00  0.00     0.014 A 
ENDBRANCH   9  11
ENDBRANCH   1   5
BRANCH   2  17
HETATM   17  N   UNL     1      42.318 -17.103   0.905  1.00  0.00    -0.182 NA
HETATM   18  C   UNL     1      43.535 -17.310   1.289  1.00  0.00     0.168 C 
BRANCH  18  19
HETATM   19  C   UNL     1      43.834 -18.441   2.121  1.00  0.00     0.052 A 
HETATM   20  N   UNL     1      43.994 -19.721   1.632  1.00  0.00    -0.358 N 
HETATM   21  H   UNL     1      43.917 -19.963   0.651  1.00  0.00     0.166 HD
HETATM   22  C   UNL     1      44.270 -20.571   2.665  1.00  0.00     0.016 A 
HETATM   23  C   UNL     1      44.296 -19.842   3.836  1.00  0.00    -0.033 A 
HETATM   24  C   UNL     1      44.533 -22.029   2.529  1.00  0.00     0.057 C 
HETATM   25  C   UNL     1      44.556 -20.467   5.164  1.00  0.00     0.040 C 
HETATM   26  C   UNL     1      44.016 -18.498   3.493  1.00  0.00     0.040 A 
HETATM   27  C   UNL     1      45.172 -21.871   5.002  1.00  0.00     0.005 C 
HETATM   28  C   UNL     1      44.461 -22.699   3.914  1.00  0.00     0.006 C 
ENDBRANCH  18  19
ENDBRANCH   2  17
TORSDOF 4
ENDMDL
MODEL 7
REMARK VINA RESULT:      -7.9      3.731     10.936
REMARK  4 active torsions:
REMARK  status: ('A' for Active; 'I' for Inactive)
REMARK    1  A    between atoms: C_4  and  C_5 
REMARK    2  A    between atoms: C_9  and  C_10 
REMARK       I    between atoms: C_10  and  N_11 
REMARK    3  A    between atoms: N_11  and  N_12 
REMARK    4  A    between atoms: C_13  and  C_14 
ROOT
HETATM    1  C   UNL     1      42.910 -15.072   5.449  1.00  0.00     0.289 C 
HETATM    2  N   UNL     1      42.044 -14.141   4.898  1.00  0.00    -0.242 N 
HETATM    3  O   UNL     1      43.419 -14.967   6.563  1.00  0.00    -0.264 OA
HETATM    4  H   UNL     1      41.672 -14.273   3.967  1.00  0.00     0.192 HD
ENDROOT
BRANCH   1   5
HETATM    5  C   UNL     1      43.195 -16.205   4.603  1.00  0.00     0.121 A 
HETATM    6  N   UNL     1      43.265 -16.073   3.245  1.00  0.00    -0.272 N 
HETATM    7  N   UNL     1      43.511 -17.217   2.592  1.00  0.00    -0.174 NA
HETATM    8  H   UNL     1      43.139 -15.216   2.711  1.00  0.00     0.189 HD
HETATM    9  C   UNL     1      43.637 -18.141   3.556  1.00  0.00     0.089 A 
HETATM   10  C   UNL     1      43.443 -17.543   4.836  1.00  0.00     0.071 A 
BRANCH   9  11
HETATM   11  C   UNL     1      43.919 -19.546   3.247  1.00  0.00    -0.006 A 
HETATM   12  C   UNL     1      44.547 -20.385   4.180  1.00  0.00     0.014 A 
HETATM   13  C   UNL     1      44.800 -21.726   3.876  1.00  0.00     0.001 A 
HETATM   14  C   UNL     1      44.430 -22.245   2.637  1.00  0.00     0.000 A 
HETATM   15  C   UNL     1      43.811 -21.424   1.699  1.00  0.00     0.001 A 
HETATM   16  C   UNL     1      43.559 -20.083   2.001  1.00  0.00     0.014 A 
ENDBRANCH   9  11
ENDBRANCH   1   5
BRANCH   2  17
HETATM   17  N   UNL     1      41.716 -13.012   5.596  1.00  0.00    -0.182 NA
HETATM   18  C   UNL     1      40.499 -12.950   6.031  1.00  0.00     0.168 C 
BRANCH  18  19
HETATM   19  C   UNL     1      40.067 -11.797   6.769  1.00  0.00     0.052 A 
HETATM   20  N   UNL     1      39.972 -11.769   8.145  1.00  0.00    -0.358 N 
HETATM   21  H   UNL     1      40.203 -12.556   8.741  1.00  0.00     0.166 HD
HETATM   22  C   UNL     1      39.536 -10.539   8.545  1.00  0.00     0.016 A 
HETATM   23  C   UNL     1      39.348  -9.756   7.425  1.00  0.00    -0.033 A 
HETATM   24  C   UNL     1      39.336 -10.118   9.957  1.00  0.00     0.057 C 
HETATM   25  C   UNL     1      38.858  -8.350   7.502  1.00  0.00     0.040 C 
HETATM   26  C   UNL     1      39.679 -10.552   6.302  1.00  0.00     0.040 A 
HETATM   27  C   UNL     1      38.991  -7.797   8.935  1.00  0.00     0.005 C 
HETATM   28  C   UNL     1      38.522  -8.810   9.998  1.00  0.00     0.006 C 
ENDBRANCH  18  19
ENDBRANCH   2  17
TORSDOF 4
ENDMDL
MODEL 8
REMARK VINA RESULT:      -7.8      7.543     12.022
REMARK  4 active torsions:
REMARK  status: ('A' for Active; 'I' for Inactive)
REMARK    1  A    between atoms: C_4  and  C_5 
REMARK    2  A    between atoms: C_9  and  C_10 
REMARK       I    between atoms: C_10  and  N_11 
REMARK    3  A    between atoms: N_11  and  N_12 
REMARK    4  A    between atoms: C_13  and  C_14 
ROOT
HETATM    1  C   UNL     1      40.815 -14.571  -0.732  1.00  0.00     0.289 C 
HETATM    2  N   UNL     1      40.678 -15.938  -0.546  1.00  0.00    -0.242 N 
HETATM    3  O   UNL     1      41.758 -13.909  -0.307  1.00  0.00    -0.264 OA
HETATM    4  H   UNL     1      39.867 -16.426  -0.903  1.00  0.00     0.192 HD
ENDROOT
BRANCH   1   5
HETATM    5  C   UNL     1      39.741 -13.952  -1.470  1.00  0.00     0.121 A 
HETATM    6  N   UNL     1      39.217 -12.752  -1.081  1.00  0.00    -0.272 N 
HETATM    7  N   UNL     1      38.208 -12.316  -1.848  1.00  0.00    -0.174 NA
HETATM    8  H   UNL     1      39.509 -12.191  -0.284  1.00  0.00     0.189 HD
HETATM    9  C   UNL     1      38.075 -13.252  -2.801  1.00  0.00     0.089 A 
HETATM   10  C   UNL     1      39.021 -14.298  -2.596  1.00  0.00     0.071 A 
BRANCH   9  11
HETATM   11  C   UNL     1      37.064 -13.140  -3.856  1.00  0.00    -0.006 A 
HETATM   12  C   UNL     1      36.421 -14.276  -4.372  1.00  0.00     0.014 A 
HETATM   13  C   UNL     1      35.450 -14.154  -5.370  1.00  0.00     0.001 A 
HETATM   14  C   UNL     1      35.110 -12.898  -5.867  1.00  0.00     0.000 A 
HETATM   15  C   UNL     1      35.742 -11.762  -5.369  1.00  0.00     0.001 A 
HETATM   16  C   UNL     1      36.714 -11.882  -4.372  1.00  0.00     0.014 A 
ENDBRANCH   9  11
ENDBRANCH   1   5
BRANCH   2  17
HETATM   17  N   UNL     1      41.621 -16.632   0.159  1.00  0.00    -0.182 NA
HETATM   18  C   UNL     1      41.203 -17.219   1.234  1.00  0.00     0.168 C 
BRANCH  18  19
HETATM   19  C   UNL     1      42.127 -17.965   2.040  1.00  0.00     0.052 A 
HETATM   20  N   UNL     1      42.215 -17.834   3.410  1.00  0.00    -0.358 N 
HETATM   21  H   UNL     1      41.634 -17.206   3.954  1.00  0.00     0.166 HD
HETATM   22  C   UNL     1      43.182 -18.673   3.886  1.00  0.00     0.016 A 
HETATM   23  C   UNL     1      43.726 -19.361   2.821  1.00  0.00    -0.033 A 
HETATM   24  C   UNL     1      43.548 -18.834   5.318  1.00  0.00     0.057 C 
HETATM   25  C   UNL     1      44.825 -20.354   2.986  1.00  0.00     0.040 C 
HETATM   26  C   UNL     1      43.063 -18.910   1.654  1.00  0.00     0.040 A 
HETATM   27  C   UNL     1      44.962 -20.787   4.460  1.00  0.00     0.005 C 
HETATM   28  C   UNL     1      44.885 -19.591   5.429  1.00  0.00     0.006 C 
ENDBRANCH  18  19
ENDBRANCH   2  17
TORSDOF 4
ENDMDL
MODEL 9
REMARK VINA RESULT:      -7.6      7.295     11.523
REMARK  4 active torsions:
REMARK  status: ('A' for Active; 'I' for Inactive)
REMARK    1  A    between atoms: C_4  and  C_5 
REMARK    2  A    between atoms: C_9  and  C_10 
REMARK       I    between atoms: C_10  and  N_11 
REMARK    3  A    between atoms: N_11  and  N_12 
REMARK    4  A    between atoms: C_13  and  C_14 
ROOT
HETATM    1  C   UNL     1      41.072 -15.208   2.748  1.00  0.00     0.289 C 
HETATM    2  N   UNL     1      39.825 -15.531   2.235  1.00  0.00    -0.242 N 
HETATM    3  O   UNL     1      41.461 -14.059   2.940  1.00  0.00    -0.264 OA
HETATM    4  H   UNL     1      39.569 -16.497   2.079  1.00  0.00     0.192 HD
ENDROOT
BRANCH   1   5
HETATM    5  C   UNL     1      41.915 -16.341   3.042  1.00  0.00     0.121 A 
HETATM    6  N   UNL     1      42.862 -16.280   4.026  1.00  0.00    -0.272 N 
HETATM    7  N   UNL     1      43.585 -17.400   4.164  1.00  0.00    -0.174 NA
HETATM    8  H   UNL     1      43.061 -15.486   4.628  1.00  0.00     0.189 HD
HETATM    9  C   UNL     1      43.080 -18.247   3.254  1.00  0.00     0.089 A 
HETATM   10  C   UNL     1      42.029 -17.617   2.527  1.00  0.00     0.071 A 
BRANCH   9  11
HETATM   11  C   UNL     1      43.607 -19.606   3.089  1.00  0.00    -0.006 A 
HETATM   12  C   UNL     1      44.410 -20.199   4.075  1.00  0.00     0.014 A 
HETATM   13  C   UNL     1      44.898 -21.499   3.910  1.00  0.00     0.001 A 
HETATM   14  C   UNL     1      44.589 -22.222   2.760  1.00  0.00     0.000 A 
HETATM   15  C   UNL     1      43.797 -21.645   1.771  1.00  0.00     0.001 A 
HETATM   16  C   UNL     1      43.312 -20.345   1.934  1.00  0.00     0.014 A 
ENDBRANCH   9  11
ENDBRANCH   1   5
BRANCH   2  17
HETATM   17  N   UNL     1      38.946 -14.541   1.895  1.00  0.00    -0.182 NA
HETATM   18  C   UNL     1      38.826 -14.303   0.629  1.00  0.00     0.168 C 
BRANCH  18  19
HETATM   19  C   UNL     1      37.929 -13.275   0.182  1.00  0.00     0.052 A 
HETATM   20  N   UNL     1      36.943 -12.730   0.979  1.00  0.00    -0.358 N 
HETATM   21  H   UNL     1      36.777 -13.009   1.939  1.00  0.00     0.166 HD
HETATM   22  C   UNL     1      36.262 -11.781   0.272  1.00  0.00     0.016 A 
HETATM   23  C   UNL     1      36.808 -11.701  -0.992  1.00  0.00    -0.033 A 
HETATM   24  C   UNL     1      35.144 -10.955   0.803  1.00  0.00     0.057 C 
HETATM   25  C   UNL     1      36.288 -10.768  -2.033  1.00  0.00     0.040 C 
HETATM   26  C   UNL     1      37.858 -12.648  -1.051  1.00  0.00     0.040 A 
HETATM   27  C   UNL     1      35.395  -9.681  -1.402  1.00  0.00     0.005 C 
HETATM   28  C   UNL     1      34.416 -10.260  -0.362  1.00  0.00     0.006 C 
ENDBRANCH  18  19
ENDBRANCH   2  17
TORSDOF 4
ENDMDL
MODEL 10
REMARK VINA RESULT:      -7.6      7.219     11.979
REMARK  4 active torsions:
REMARK  status: ('A' for Active; 'I' for Inactive)
REMARK    1  A    between atoms: C_4  and  C_5 
REMARK    2  A    between atoms: C_9  and  C_10 
REMARK       I    between atoms: C_10  and  N_11 
REMARK    3  A    between atoms: N_11  and  N_12 
REMARK    4  A    between atoms: C_13  and  C_14 
ROOT
HETATM    1  C   UNL     1      40.947 -15.034  -0.440  1.00  0.00     0.289 C 
HETATM    2  N   UNL     1      40.851 -16.258   0.202  1.00  0.00    -0.242 N 
HETATM    3  O   UNL     1      41.739 -14.149  -0.125  1.00  0.00    -0.264 OA
HETATM    4  H   UNL     1      40.164 -16.940  -0.091  1.00  0.00     0.192 HD
ENDROOT
BRANCH   1   5
HETATM    5  C   UNL     1      40.021 -14.851  -1.531  1.00  0.00     0.121 A 
HETATM    6  N   UNL     1      40.112 -15.604  -2.668  1.00  0.00    -0.272 N 
HETATM    7  N   UNL     1      39.200 -15.302  -3.603  1.00  0.00    -0.174 NA
HETATM    8  H   UNL     1      40.792 -16.336  -2.859  1.00  0.00     0.189 HD
HETATM    9  C   UNL     1      38.458 -14.328  -3.055  1.00  0.00     0.089 A 
HETATM   10  C   UNL     1      38.944 -14.015  -1.753  1.00  0.00     0.071 A 
BRANCH   9  11
HETATM   11  C   UNL     1      37.334 -13.719  -3.772  1.00  0.00    -0.006 A 
HETATM   12  C   UNL     1      37.197 -12.325  -3.859  1.00  0.00     0.014 A 
HETATM   13  C   UNL     1      36.126 -11.756  -4.556  1.00  0.00     0.001 A 
HETATM   14  C   UNL     1      35.179 -12.571  -5.173  1.00  0.00     0.000 A 
HETATM   15  C   UNL     1      35.300 -13.956  -5.092  1.00  0.00     0.001 A 
HETATM   16  C   UNL     1      36.369 -14.526  -4.394  1.00  0.00     0.014 A 
ENDBRANCH   9  11
ENDBRANCH   1   5
BRANCH   2  17
HETATM   17  N   UNL     1      41.661 -16.539   1.267  1.00  0.00    -0.182 NA
HETATM   18  C   UNL     1      41.064 -16.969   2.331  1.00  0.00     0.168 C 
BRANCH  18  19
HETATM   19  C   UNL     1      41.836 -17.282   3.500  1.00  0.00     0.052 A 
HETATM   20  N   UNL     1      41.448 -16.939   4.779  1.00  0.00    -0.358 N 
HETATM   21  H   UNL     1      40.589 -16.445   4.994  1.00  0.00     0.166 HD
HETATM   22  C   UNL     1      42.387 -17.374   5.670  1.00  0.00     0.016 A 
HETATM   23  C   UNL     1      43.393 -18.008   4.971  1.00  0.00    -0.033 A 
HETATM   24  C   UNL     1      42.306 -17.214   7.147  1.00  0.00     0.057 C 
HETATM   25  C   UNL     1      44.590 -18.592   5.641  1.00  0.00     0.040 C 
HETATM   26  C   UNL     1      43.047 -17.946   3.600  1.00  0.00     0.040 A 
HETATM   27  C   UNL     1      44.351 -18.752   7.156  1.00  0.00     0.005 C 
HETATM   28  C   UNL     1      43.680 -17.511   7.776  1.00  0.00     0.006 C 
ENDBRANCH  18  19
ENDBRANCH   2  17
TORSDOF 4
ENDMDL
