MODEL 1
REMARK VINA RESULT:      -8.1      0.000      0.000
REMARK  5 active torsions:
REMARK  status: ('A' for Active; 'I' for Inactive)
REMARK    1  A    between atoms: C_2  and  C_3 
REMARK    2  A    between atoms: C_6  and  C_7 
REMARK    3  A    between atoms: C_7  and  C_8 
REMARK       I    between atoms: C_8  and  N_9 
REMARK    4  A    between atoms: N_9  and  C_10 
REMARK    5  A    between atoms: C_12  and  C_13 
ROOT
HETATM    1  C   UNL     1      42.093 -16.807   0.686  1.00  0.00     0.226 C 
HETATM    2  N   UNL     1      42.110 -15.518   0.180  1.00  0.00    -0.327 N 
HETATM    3  O   UNL     1      41.088 -17.438   1.007  1.00  0.00    -0.273 OA
HETATM    4  H   UNL     1      43.020 -15.080   0.086  1.00  0.00     0.169 HD
ENDROOT
BRANCH   2   5
HETATM    5  C   UNL     1      40.998 -14.703  -0.124  1.00  0.00     0.035 A 
HETATM    6  C   UNL     1      40.206 -14.861  -1.267  1.00  0.00     0.042 A 
HETATM    7  C   UNL     1      39.120 -14.007  -1.533  1.00  0.00    -0.021 A 
HETATM    8  C   UNL     1      38.838 -12.984  -0.618  1.00  0.00     0.012 A 
HETATM    9  C   UNL     1      39.625 -12.812   0.521  1.00  0.00     0.003 A 
HETATM   10  C   UNL     1      40.703 -13.664   0.763  1.00  0.00     0.029 A 
BRANCH   7  11
HETATM   11  C   UNL     1      38.307 -14.160  -2.737  1.00  0.00     0.010 A 
HETATM   12  C   UNL     1      37.940 -15.317  -3.470  1.00  0.00     0.152 A 
HETATM   13  N   UNL     1      37.172 -15.045  -4.527  1.00  0.00    -0.187 NA
HETATM   14  N   UNL     1      37.037 -13.712  -4.480  1.00  0.00    -0.289 N 
HETATM   15  H   UNL     1      36.479 -13.257  -5.194  1.00  0.00     0.188 HD
HETATM   16  C   UNL     1      37.697 -13.137  -3.433  1.00  0.00     0.123 A 
ENDBRANCH   7  11
ENDBRANCH   2   5
BRANCH   1  17
HETATM   17  C   UNL     1      43.455 -17.483   0.748  1.00  0.00     0.141 C 
BRANCH  17  18
HETATM   18  C   UNL     1      43.711 -18.392   1.927  1.00  0.00    -0.049 A 
HETATM   19  C   UNL     1      43.919 -19.766   1.750  1.00  0.00     0.008 A 
HETATM   20  C   UNL     1      44.210 -20.589   2.843  1.00  0.00     0.007 A 
HETATM   21  C   UNL     1      44.301 -20.061   4.137  1.00  0.00    -0.059 A 
HETATM   22  C   UNL     1      44.107 -18.682   4.305  1.00  0.00     0.007 A 
HETATM   23  C   UNL     1      43.813 -17.858   3.216  1.00  0.00     0.008 A 
BRANCH  21  24
HETATM   24  C   UNL     1      44.684 -20.887   5.344  1.00  0.00     0.034 C 
HETATM   25  C   UNL     1      45.004 -22.354   5.084  1.00  0.00     0.010 C 
ENDBRANCH  21  24
ENDBRANCH  17  18
ENDBRANCH   1  17
TORSDOF 5
ENDMDL
MODEL 2
REMARK VINA RESULT:      -8.0      6.759      9.880
REMARK  5 active torsions:
REMARK  status: ('A' for Active; 'I' for Inactive)
REMARK    1  A    between atoms: C_2  and  C_3 
REMARK    2  A    between atoms: C_6  and  C_7 
REMARK    3  A    between atoms: C_7  and  C_8 
REMARK       I    between atoms: C_8  and  N_9 
REMARK    4  A    between atoms: N_9  and  C_10 
REMARK    5  A    between atoms: C_12  and  C_13 
ROOT
HETATM    1  C   UNL     1      43.390 -16.098   6.954  1.00  0.00     0.226 C 
HETATM    2  N   UNL     1      43.887 -14.885   6.506  1.00  0.00    -0.327 N 
HETATM    3  O   UNL     1      43.556 -16.570   8.077  1.00  0.00    -0.273 OA
HETATM    4  H   UNL     1      43.780 -14.689   5.517  1.00  0.00     0.169 HD
ENDROOT
BRANCH   2   5
HETATM    5  C   UNL     1      44.617 -13.933   7.249  1.00  0.00     0.035 A 
HETATM    6  C   UNL     1      44.138 -13.318   8.412  1.00  0.00     0.042 A 
HETATM    7  C   UNL     1      44.900 -12.358   9.103  1.00  0.00    -0.021 A 
HETATM    8  C   UNL     1      46.167 -12.028   8.603  1.00  0.00     0.012 A 
HETATM    9  C   UNL     1      46.652 -12.630   7.441  1.00  0.00     0.003 A 
HETATM   10  C   UNL     1      45.878 -13.573   6.765  1.00  0.00     0.029 A 
BRANCH   7  11
HETATM   11  C   UNL     1      44.390 -11.701  10.303  1.00  0.00     0.010 A 
HETATM   12  C   UNL     1      43.854 -12.239  11.500  1.00  0.00     0.152 A 
HETATM   13  N   UNL     1      43.496 -11.302  12.382  1.00  0.00    -0.187 NA
HETATM   14  N   UNL     1      43.803 -10.155  11.758  1.00  0.00    -0.289 N 
HETATM   15  H   UNL     1      43.622  -9.280  12.239  1.00  0.00     0.188 HD
HETATM   16  C   UNL     1      44.336 -10.338  10.516  1.00  0.00     0.123 A 
ENDBRANCH   7  11
ENDBRANCH   2   5
BRANCH   1  17
HETATM   17  C   UNL     1      42.498 -16.826   5.958  1.00  0.00     0.141 C 
BRANCH  17  18
HETATM   18  C   UNL     1      43.159 -17.865   5.084  1.00  0.00    -0.049 A 
HETATM   19  C   UNL     1      44.006 -18.837   5.631  1.00  0.00     0.008 A 
HETATM   20  C   UNL     1      44.569 -19.829   4.820  1.00  0.00     0.007 A 
HETATM   21  C   UNL     1      44.299 -19.874   3.447  1.00  0.00    -0.059 A 
HETATM   22  C   UNL     1      43.437 -18.907   2.909  1.00  0.00     0.007 A 
HETATM   23  C   UNL     1      42.876 -17.913   3.716  1.00  0.00     0.008 A 
BRANCH  21  24
HETATM   24  C   UNL     1      44.818 -20.963   2.535  1.00  0.00     0.034 C 
HETATM   25  C   UNL     1      43.770 -21.751   1.759  1.00  0.00     0.010 C 
ENDBRANCH  21  24
ENDBRANCH  17  18
ENDBRANCH   1  17
TORSDOF 5
ENDMDL
MODEL 3
REMARK VINA RESULT:      -8.0      6.803      9.441
REMARK  5 active torsions:
REMARK  status: ('A' for Active; 'I' for Inactive)
REMARK    1  A    between atoms: C_2  and  C_3 
REMARK    2  A    between atoms: C_6  and  C_7 
REMARK    3  A    between atoms: C_7  and  C_8 
REMARK       I    between atoms: C_8  and  N_9 
REMARK    4  A    between atoms: N_9  and  C_10 
REMARK    5  A    between atoms: C_12  and  C_13 
ROOT
HETATM    1  C   UNL     1      44.365 -14.466   7.210  1.00  0.00     0.226 C 
HETATM    2  N   UNL     1      43.865 -14.468   5.919  1.00  0.00    -0.327 N 
HETATM    3  O   UNL     1      44.157 -15.328   8.061  1.00  0.00    -0.273 OA
HETATM    4  H   UNL     1      44.013 -13.625   5.374  1.00  0.00     0.169 HD
ENDROOT
BRANCH   2   5
HETATM    5  C   UNL     1      43.082 -15.470   5.305  1.00  0.00     0.035 A 
HETATM    6  C   UNL     1      43.615 -16.616   4.704  1.00  0.00     0.042 A 
HETATM    7  C   UNL     1      42.789 -17.574   4.088  1.00  0.00    -0.021 A 
HETATM    8  C   UNL     1      41.405 -17.361   4.092  1.00  0.00     0.012 A 
HETATM    9  C   UNL     1      40.862 -16.219   4.683  1.00  0.00     0.003 A 
HETATM   10  C   UNL     1      41.698 -15.276   5.281  1.00  0.00     0.029 A 
BRANCH   7  11
HETATM   11  C   UNL     1      43.349 -18.758   3.441  1.00  0.00     0.010 A 
HETATM   12  C   UNL     1      44.321 -19.689   3.887  1.00  0.00     0.152 A 
HETATM   13  N   UNL     1      44.568 -20.655   2.999  1.00  0.00    -0.187 NA
HETATM   14  N   UNL     1      43.754 -20.353   1.977  1.00  0.00    -0.289 N 
HETATM   15  H   UNL     1      43.756 -20.958   1.163  1.00  0.00     0.188 HD
HETATM   16  C   UNL     1      43.008 -19.230   2.190  1.00  0.00     0.123 A 
ENDBRANCH   7  11
ENDBRANCH   2   5
BRANCH   1  17
HETATM   17  C   UNL     1      45.316 -13.319   7.521  1.00  0.00     0.141 C 
BRANCH  17  18
HETATM   18  C   UNL     1      44.902 -12.370   8.621  1.00  0.00    -0.049 A 
HETATM   19  C   UNL     1      43.651 -11.741   8.601  1.00  0.00     0.008 A 
HETATM   20  C   UNL     1      43.255 -10.907   9.653  1.00  0.00     0.007 A 
HETATM   21  C   UNL     1      44.098 -10.684  10.748  1.00  0.00    -0.059 A 
HETATM   22  C   UNL     1      45.343 -11.328  10.770  1.00  0.00     0.007 A 
HETATM   23  C   UNL     1      45.742 -12.159   9.719  1.00  0.00     0.008 A 
BRANCH  21  24
HETATM   24  C   UNL     1      43.696  -9.853  11.946  1.00  0.00     0.034 C 
HETATM   25  C   UNL     1      42.957 -10.587  13.059  1.00  0.00     0.010 C 
ENDBRANCH  21  24
ENDBRANCH  17  18
ENDBRANCH   1  17
TORSDOF 5
ENDMDL
MODEL 4
REMARK VINA RESULT:      -7.8      1.366      2.012
REMARK  5 active torsions:
REMARK  status: ('A' for Active; 'I' for Inactive)
REMARK    1  A    between atoms: C_2  and  C_3 
REMARK    2  A    between atoms: C_6  and  C_7 
REMARK    3  A    between atoms: C_7  and  C_8 
REMARK       I    between atoms: C_8  and  N_9 
REMARK    4  A    between atoms: N_9  and  C_10 
REMARK    5  A    between atoms: C_12  and  C_13 
ROOT
HETATM    1  C   UNL     1      41.888 -15.107   2.398  1.00  0.00     0.226 C 
HETATM    2  N   UNL     1      41.980 -14.230   1.330  1.00  0.00    -0.327 N 
HETATM    3  O   UNL     1      40.854 -15.622   2.816  1.00  0.00    -0.273 OA
HETATM    4  H   UNL     1      42.879 -13.785   1.185  1.00  0.00     0.169 HD
ENDROOT
BRANCH   2   5
HETATM    5  C   UNL     1      40.936 -13.805   0.480  1.00  0.00     0.035 A 
HETATM    6  C   UNL     1      40.555 -14.482  -0.684  1.00  0.00     0.042 A 
HETATM    7  C   UNL     1      39.520 -14.003  -1.508  1.00  0.00    -0.021 A 
HETATM    8  C   UNL     1      38.864 -12.823  -1.134  1.00  0.00     0.012 A 
HETATM    9  C   UNL     1      39.239 -12.135   0.020  1.00  0.00     0.003 A 
HETATM   10  C   UNL     1      40.274 -12.622   0.820  1.00  0.00     0.029 A 
BRANCH   7  11
HETATM   11  C   UNL     1      39.138 -14.699  -2.734  1.00  0.00     0.010 A 
HETATM   12  C   UNL     1      39.814 -15.691  -3.489  1.00  0.00     0.152 A 
HETATM   13  N   UNL     1      39.128 -16.091  -4.562  1.00  0.00    -0.187 NA
HETATM   14  N   UNL     1      38.005 -15.359  -4.504  1.00  0.00    -0.289 N 
HETATM   15  H   UNL     1      37.306 -15.489  -5.227  1.00  0.00     0.188 HD
HETATM   16  C   UNL     1      37.964 -14.513  -3.435  1.00  0.00     0.123 A 
ENDBRANCH   7  11
ENDBRANCH   2   5
BRANCH   1  17
HETATM   17  C   UNL     1      43.224 -15.497   3.016  1.00  0.00     0.141 C 
BRANCH  17  18
HETATM   18  C   UNL     1      43.585 -16.964   2.986  1.00  0.00    -0.049 A 
HETATM   19  C   UNL     1      43.726 -17.699   4.169  1.00  0.00     0.008 A 
HETATM   20  C   UNL     1      44.005 -19.069   4.128  1.00  0.00     0.007 A 
HETATM   21  C   UNL     1      44.148 -19.737   2.906  1.00  0.00    -0.059 A 
HETATM   22  C   UNL     1      43.990 -18.999   1.724  1.00  0.00     0.007 A 
HETATM   23  C   UNL     1      43.714 -17.629   1.762  1.00  0.00     0.008 A 
BRANCH  21  24
HETATM   24  C   UNL     1      44.377 -21.228   2.798  1.00  0.00     0.034 C 
HETATM   25  C   UNL     1      43.981 -21.878   1.478  1.00  0.00     0.010 C 
ENDBRANCH  21  24
ENDBRANCH  17  18
ENDBRANCH   1  17
TORSDOF 5
ENDMDL
MODEL 5
REMARK VINA RESULT:      -7.7      1.797      2.506
REMARK  5 active torsions:
REMARK  status: ('A' for Active; 'I' for Inactive)
REMARK    1  A    between atoms: C_2  and  C_3 
REMARK    2  A    between atoms: C_6  and  C_7 
REMARK    3  A    between atoms: C_7  and  C_8 
REMARK       I    between atoms: C_8  and  N_9 
REMARK    4  A    between atoms: N_9  and  C_10 
REMARK    5  A    between atoms: C_12  and  C_13 
ROOT
HETATM    1  C   UNL     1      42.273 -16.675   0.650  1.00  0.00     0.226 C 
HETATM    2  N   UNL     1      42.178 -15.552  -0.155  1.00  0.00    -0.327 N 
HETATM    3  O   UNL     1      41.359 -17.458   0.901  1.00  0.00    -0.273 OA
HETATM    4  H   UNL     1      42.980 -14.931  -0.162  1.00  0.00     0.169 HD
ENDROOT
BRANCH   2   5
HETATM    5  C   UNL     1      41.054 -15.119  -0.889  1.00  0.00     0.035 A 
HETATM    6  C   UNL     1      40.058 -14.283  -0.369  1.00  0.00     0.042 A 
HETATM    7  C   UNL     1      38.945 -13.898  -1.140  1.00  0.00    -0.021 A 
HETATM    8  C   UNL     1      38.853 -14.366  -2.457  1.00  0.00     0.012 A 
HETATM    9  C   UNL     1      39.836 -15.205  -2.984  1.00  0.00     0.003 A 
HETATM   10  C   UNL     1      40.927 -15.583  -2.202  1.00  0.00     0.029 A 
BRANCH   7  11
HETATM   11  C   UNL     1      37.897 -13.044  -0.589  1.00  0.00     0.010 A 
HETATM   12  C   UNL     1      37.266 -11.888  -1.116  1.00  0.00     0.152 A 
HETATM   13  N   UNL     1      36.336 -11.382  -0.303  1.00  0.00    -0.187 NA
HETATM   14  N   UNL     1      36.360 -12.211   0.752  1.00  0.00    -0.289 N 
HETATM   15  H   UNL     1      35.723 -12.033   1.521  1.00  0.00     0.188 HD
HETATM   16  C   UNL     1      37.275 -13.215   0.631  1.00  0.00     0.123 A 
ENDBRANCH   7  11
ENDBRANCH   2   5
BRANCH   1  17
HETATM   17  C   UNL     1      43.673 -16.965   1.174  1.00  0.00     0.141 C 
BRANCH  17  18
HETATM   18  C   UNL     1      43.780 -17.924   2.336  1.00  0.00    -0.049 A 
HETATM   19  C   UNL     1      44.144 -19.262   2.138  1.00  0.00     0.008 A 
HETATM   20  C   UNL     1      44.294 -20.128   3.227  1.00  0.00     0.007 A 
HETATM   21  C   UNL     1      44.087 -19.678   4.537  1.00  0.00    -0.059 A 
HETATM   22  C   UNL     1      43.739 -18.333   4.729  1.00  0.00     0.007 A 
HETATM   23  C   UNL     1      43.585 -17.467   3.643  1.00  0.00     0.008 A 
BRANCH  21  24
HETATM   24  C   UNL     1      44.306 -20.546   5.756  1.00  0.00     0.034 C 
HETATM   25  C   UNL     1      44.689 -21.997   5.491  1.00  0.00     0.010 C 
ENDBRANCH  21  24
ENDBRANCH  17  18
ENDBRANCH   1  17
TORSDOF 5
ENDMDL
MODEL 6
REMARK VINA RESULT:      -7.6      2.537      3.853
REMARK  5 active torsions:
REMARK  status: ('A' for Active; 'I' for Inactive)
REMARK    1  A    between atoms: C_2  and  C_3 
REMARK    2  A    between atoms: C_6  and  C_7 
REMARK    3  A    between atoms: C_7  and  C_8 
REMARK       I    between atoms: C_8  and  N_9 
REMARK    4  A    between atoms: N_9  and  C_10 
REMARK    5  A    between atoms: C_12  and  C_13 
ROOT
HETATM    1  C   UNL     1      42.222 -17.023   0.976  1.00  0.00     0.226 C 
HETATM    2  N   UNL     1      42.300 -15.657   0.760  1.00  0.00    -0.327 N 
HETATM    3  O   UNL     1      41.186 -17.668   1.125  1.00  0.00    -0.273 OA
HETATM    4  H   UNL     1      43.226 -15.246   0.788  1.00  0.00     0.169 HD
ENDROOT
BRANCH   2   5
HETATM    5  C   UNL     1      41.227 -14.753   0.605  1.00  0.00     0.035 A 
HETATM    6  C   UNL     1      40.698 -13.984   1.649  1.00  0.00     0.042 A 
HETATM    7  C   UNL     1      39.613 -13.113   1.444  1.00  0.00    -0.021 A 
HETATM    8  C   UNL     1      39.067 -13.021   0.157  1.00  0.00     0.012 A 
HETATM    9  C   UNL     1      39.581 -13.787  -0.891  1.00  0.00     0.003 A 
HETATM   10  C   UNL     1      40.652 -14.652  -0.665  1.00  0.00     0.029 A 
BRANCH   7  11
HETATM   11  C   UNL     1      39.049 -12.328   2.538  1.00  0.00     0.010 A 
HETATM   12  C   UNL     1      39.299 -12.364   3.933  1.00  0.00     0.152 A 
HETATM   13  N   UNL     1      38.579 -11.473   4.619  1.00  0.00    -0.187 NA
HETATM   14  N   UNL     1      37.862 -10.856   3.668  1.00  0.00    -0.289 N 
HETATM   15  H   UNL     1      37.225 -10.117   3.946  1.00  0.00     0.188 HD
HETATM   16  C   UNL     1      38.103 -11.331   2.412  1.00  0.00     0.123 A 
ENDBRANCH   7  11
ENDBRANCH   2   5
BRANCH   1  17
HETATM   17  C   UNL     1      43.559 -17.750   0.931  1.00  0.00     0.141 C 
BRANCH  17  18
HETATM   18  C   UNL     1      43.819 -18.764   2.020  1.00  0.00    -0.049 A 
HETATM   19  C   UNL     1      43.979 -20.122   1.722  1.00  0.00     0.008 A 
HETATM   20  C   UNL     1      44.275 -21.044   2.732  1.00  0.00     0.007 A 
HETATM   21  C   UNL     1      44.421 -20.631   4.061  1.00  0.00    -0.059 A 
HETATM   22  C   UNL     1      44.276 -19.266   4.352  1.00  0.00     0.007 A 
HETATM   23  C   UNL     1      43.976 -18.344   3.345  1.00  0.00     0.008 A 
BRANCH  21  24
HETATM   24  C   UNL     1      44.812 -21.567   5.183  1.00  0.00     0.034 C 
HETATM   25  C   UNL     1      44.072 -21.387   6.502  1.00  0.00     0.010 C 
ENDBRANCH  21  24
ENDBRANCH  17  18
ENDBRANCH   1  17
TORSDOF 5
ENDMDL
MODEL 7
REMARK VINA RESULT:      -7.6      2.613      3.965
REMARK  5 active torsions:
REMARK  status: ('A' for Active; 'I' for Inactive)
REMARK    1  A    between atoms: C_2  and  C_3 
REMARK    2  A    between atoms: C_6  and  C_7 
REMARK    3  A    between atoms: C_7  and  C_8 
REMARK       I    between atoms: C_8  and  N_9 
REMARK    4  A    between atoms: N_9  and  C_10 
REMARK    5  A    between atoms: C_12  and  C_13 
ROOT
HETATM    1  C   UNL     1      41.964 -16.638   0.793  1.00  0.00     0.226 C 
HETATM    2  N   UNL     1      41.122 -16.290  -0.250  1.00  0.00    -0.327 N 
HETATM    3  O   UNL     1      43.013 -16.069   1.088  1.00  0.00    -0.273 OA
HETATM    4  H   UNL     1      40.363 -16.931  -0.452  1.00  0.00     0.169 HD
ENDROOT
BRANCH   2   5
HETATM    5  C   UNL     1      41.258 -15.196  -1.131  1.00  0.00     0.035 A 
HETATM    6  C   UNL     1      41.787 -13.955  -0.757  1.00  0.00     0.042 A 
HETATM    7  C   UNL     1      41.881 -12.890  -1.672  1.00  0.00    -0.021 A 
HETATM    8  C   UNL     1      41.434 -13.098  -2.983  1.00  0.00     0.012 A 
HETATM    9  C   UNL     1      40.898 -14.328  -3.366  1.00  0.00     0.003 A 
HETATM   10  C   UNL     1      40.806 -15.369  -2.443  1.00  0.00     0.029 A 
BRANCH   7  11
HETATM   11  C   UNL     1      42.413 -11.589  -1.274  1.00  0.00     0.010 A 
HETATM   12  C   UNL     1      43.077 -10.587  -2.026  1.00  0.00     0.152 A 
HETATM   13  N   UNL     1      43.411  -9.520  -1.297  1.00  0.00    -0.187 NA
HETATM   14  N   UNL     1      42.963  -9.828  -0.071  1.00  0.00    -0.289 N 
HETATM   15  H   UNL     1      43.099  -9.156   0.676  1.00  0.00     0.188 HD
HETATM   16  C   UNL     1      42.363 -11.052  -0.004  1.00  0.00     0.123 A 
ENDBRANCH   7  11
ENDBRANCH   2   5
BRANCH   1  17
HETATM   17  C   UNL     1      41.455 -17.775   1.668  1.00  0.00     0.141 C 
BRANCH  17  18
HETATM   18  C   UNL     1      42.490 -18.542   2.457  1.00  0.00    -0.049 A 
HETATM   19  C   UNL     1      42.652 -18.334   3.832  1.00  0.00     0.008 A 
HETATM   20  C   UNL     1      43.575 -19.090   4.564  1.00  0.00     0.007 A 
HETATM   21  C   UNL     1      44.355 -20.071   3.940  1.00  0.00    -0.059 A 
HETATM   22  C   UNL     1      44.177 -20.285   2.566  1.00  0.00     0.007 A 
HETATM   23  C   UNL     1      43.258 -19.530   1.832  1.00  0.00     0.008 A 
BRANCH  21  24
HETATM   24  C   UNL     1      45.315 -20.968   4.690  1.00  0.00     0.034 C 
HETATM   25  C   UNL     1      44.764 -22.314   5.144  1.00  0.00     0.010 C 
ENDBRANCH  21  24
ENDBRANCH  17  18
ENDBRANCH   1  17
TORSDOF 5
ENDMDL
MODEL 8
REMARK VINA RESULT:      -7.5      2.288      3.112
REMARK  5 active torsions:
REMARK  status: ('A' for Active; 'I' for Inactive)
REMARK    1  A    between atoms: C_2  and  C_3 
REMARK    2  A    between atoms: C_6  and  C_7 
REMARK    3  A    between atoms: C_7  and  C_8 
REMARK       I    between atoms: C_8  and  N_9 
REMARK    4  A    between atoms: N_9  and  C_10 
REMARK    5  A    between atoms: C_12  and  C_13 
ROOT
HETATM    1  C   UNL     1      42.116 -15.625   4.049  1.00  0.00     0.226 C 
HETATM    2  N   UNL     1      42.688 -14.704   3.188  1.00  0.00    -0.327 N 
HETATM    3  O   UNL     1      40.917 -15.884   4.129  1.00  0.00    -0.273 OA
HETATM    4  H   UNL     1      43.672 -14.503   3.327  1.00  0.00     0.169 HD
ENDROOT
BRANCH   2   5
HETATM    5  C   UNL     1      42.035 -13.934   2.201  1.00  0.00     0.035 A 
HETATM    6  C   UNL     1      42.051 -14.241   0.836  1.00  0.00     0.042 A 
HETATM    7  C   UNL     1      41.398 -13.426  -0.109  1.00  0.00    -0.021 A 
HETATM    8  C   UNL     1      40.718 -12.290   0.349  1.00  0.00     0.012 A 
HETATM    9  C   UNL     1      40.700 -11.970   1.707  1.00  0.00     0.003 A 
HETATM   10  C   UNL     1      41.360 -12.786   2.627  1.00  0.00     0.029 A 
BRANCH   7  11
HETATM   11  C   UNL     1      41.435 -13.736  -1.535  1.00  0.00     0.010 A 
HETATM   12  C   UNL     1      40.656 -14.630  -2.313  1.00  0.00     0.152 A 
HETATM   13  N   UNL     1      40.991 -14.629  -3.605  1.00  0.00    -0.187 NA
HETATM   14  N   UNL     1      41.985 -13.731  -3.668  1.00  0.00    -0.289 N 
HETATM   15  H   UNL     1      42.413 -13.546  -4.569  1.00  0.00     0.188 HD
HETATM   16  C   UNL     1      42.289 -13.173  -2.461  1.00  0.00     0.123 A 
ENDBRANCH   7  11
ENDBRANCH   2   5
BRANCH   1  17
HETATM   17  C   UNL     1      43.112 -16.418   4.884  1.00  0.00     0.141 C 
BRANCH  17  18
HETATM   18  C   UNL     1      43.579 -17.737   4.315  1.00  0.00    -0.049 A 
HETATM   19  C   UNL     1      44.275 -18.660   5.106  1.00  0.00     0.008 A 
HETATM   20  C   UNL     1      44.653 -19.903   4.585  1.00  0.00     0.007 A 
HETATM   21  C   UNL     1      44.346 -20.252   3.264  1.00  0.00    -0.059 A 
HETATM   22  C   UNL     1      43.636 -19.329   2.483  1.00  0.00     0.007 A 
HETATM   23  C   UNL     1      43.259 -18.086   2.999  1.00  0.00     0.008 A 
BRANCH  21  24
HETATM   24  C   UNL     1      44.664 -21.605   2.670  1.00  0.00     0.034 C 
HETATM   25  C   UNL     1      43.936 -21.963   1.379  1.00  0.00     0.010 C 
ENDBRANCH  21  24
ENDBRANCH  17  18
ENDBRANCH   1  17
TORSDOF 5
ENDMDL
MODEL 9
REMARK VINA RESULT:      -7.5      2.976      3.676
REMARK  5 active torsions:
REMARK  status: ('A' for Active; 'I' for Inactive)
REMARK    1  A    between atoms: C_2  and  C_3 
REMARK    2  A    between atoms: C_6  and  C_7 
REMARK    3  A    between atoms: C_7  and  C_8 
REMARK       I    between atoms: C_8  and  N_9 
REMARK    4  A    between atoms: N_9  and  C_10 
REMARK    5  A    between atoms: C_12  and  C_13 
ROOT
HETATM    1  C   UNL     1      40.844 -15.397   1.636  1.00  0.00     0.226 C 
HETATM    2  N   UNL     1      41.829 -15.067   0.720  1.00  0.00    -0.327 N 
HETATM    3  O   UNL     1      39.632 -15.368   1.428  1.00  0.00    -0.273 OA
HETATM    4  H   UNL     1      42.777 -15.012   1.074  1.00  0.00     0.169 HD
ENDROOT
BRANCH   2   5
HETATM    5  C   UNL     1      41.652 -14.698  -0.631  1.00  0.00     0.035 A 
HETATM    6  C   UNL     1      41.998 -13.444  -1.149  1.00  0.00     0.042 A 
HETATM    7  C   UNL     1      41.780 -13.121  -2.501  1.00  0.00    -0.021 A 
HETATM    8  C   UNL     1      41.208 -14.092  -3.333  1.00  0.00     0.012 A 
HETATM    9  C   UNL     1      40.852 -15.343  -2.828  1.00  0.00     0.003 A 
HETATM   10  C   UNL     1      41.068 -15.641  -1.482  1.00  0.00     0.029 A 
BRANCH   7  11
HETATM   11  C   UNL     1      42.123 -11.805  -3.034  1.00  0.00     0.010 A 
HETATM   12  C   UNL     1      42.429 -10.587  -2.377  1.00  0.00     0.152 A 
HETATM   13  N   UNL     1      42.698  -9.588  -3.222  1.00  0.00    -0.187 NA
HETATM   14  N   UNL     1      42.569 -10.160  -4.428  1.00  0.00    -0.289 N 
HETATM   15  H   UNL     1      42.732  -9.590  -5.252  1.00  0.00     0.188 HD
HETATM   16  C   UNL     1      42.224 -11.478  -4.371  1.00  0.00     0.123 A 
ENDBRANCH   7  11
ENDBRANCH   2   5
BRANCH   1  17
HETATM   17  C   UNL     1      41.365 -15.916   2.969  1.00  0.00     0.141 C 
BRANCH  17  18
HETATM   18  C   UNL     1      42.168 -17.195   2.934  1.00  0.00    -0.049 A 
HETATM   19  C   UNL     1      42.060 -18.089   1.862  1.00  0.00     0.008 A 
HETATM   20  C   UNL     1      42.850 -19.243   1.814  1.00  0.00     0.007 A 
HETATM   21  C   UNL     1      43.767 -19.529   2.833  1.00  0.00    -0.059 A 
HETATM   22  C   UNL     1      43.881 -18.622   3.896  1.00  0.00     0.007 A 
HETATM   23  C   UNL     1      43.091 -17.470   3.949  1.00  0.00     0.008 A 
BRANCH  21  24
HETATM   24  C   UNL     1      44.698 -20.720   2.800  1.00  0.00     0.034 C 
HETATM   25  C   UNL     1      44.287 -21.873   1.892  1.00  0.00     0.010 C 
ENDBRANCH  21  24
ENDBRANCH  17  18
ENDBRANCH   1  17
TORSDOF 5
ENDMDL
MODEL 10
REMARK VINA RESULT:      -7.4      1.986      2.584
REMARK  5 active torsions:
REMARK  status: ('A' for Active; 'I' for Inactive)
REMARK    1  A    between atoms: C_2  and  C_3 
REMARK    2  A    between atoms: C_6  and  C_7 
REMARK    3  A    between atoms: C_7  and  C_8 
REMARK       I    between atoms: C_8  and  N_9 
REMARK    4  A    between atoms: N_9  and  C_10 
REMARK    5  A    between atoms: C_12  and  C_13 
ROOT
HETATM    1  C   UNL     1      42.593 -14.474   2.419  1.00  0.00     0.226 C 
HETATM    2  N   UNL     1      41.501 -15.220   2.008  1.00  0.00    -0.327 N 
HETATM    3  O   UNL     1      42.782 -13.284   2.174  1.00  0.00    -0.273 OA
HETATM    4  H   UNL     1      41.547 -16.220   2.173  1.00  0.00     0.169 HD
ENDROOT
BRANCH   2   5
HETATM    5  C   UNL     1      40.373 -14.764   1.292  1.00  0.00     0.035 A 
HETATM    6  C   UNL     1      40.442 -14.157   0.033  1.00  0.00     0.042 A 
HETATM    7  C   UNL     1      39.286 -13.701  -0.627  1.00  0.00    -0.021 A 
HETATM    8  C   UNL     1      38.048 -13.873   0.003  1.00  0.00     0.012 A 
HETATM    9  C   UNL     1      37.966 -14.471   1.262  1.00  0.00     0.003 A 
HETATM   10  C   UNL     1      39.125 -14.909   1.905  1.00  0.00     0.029 A 
BRANCH   7  11
HETATM   11  C   UNL     1      39.362 -13.048  -1.931  1.00  0.00     0.010 A 
HETATM   12  C   UNL     1      39.696 -11.716  -2.286  1.00  0.00     0.152 A 
HETATM   13  N   UNL     1      39.658 -11.499  -3.603  1.00  0.00    -0.187 NA
HETATM   14  N   UNL     1      39.302 -12.692  -4.104  1.00  0.00    -0.289 N 
HETATM   15  H   UNL     1      39.209 -12.784  -5.110  1.00  0.00     0.188 HD
HETATM   16  C   UNL     1      39.111 -13.647  -3.149  1.00  0.00     0.123 A 
ENDBRANCH   7  11
ENDBRANCH   2   5
BRANCH   1  17
HETATM   17  C   UNL     1      43.568 -15.219   3.321  1.00  0.00     0.141 C 
BRANCH  17  18
HETATM   18  C   UNL     1      43.639 -16.718   3.155  1.00  0.00    -0.049 A 
HETATM   19  C   UNL     1      43.962 -17.296   1.922  1.00  0.00     0.008 A 
HETATM   20  C   UNL     1      44.080 -18.685   1.794  1.00  0.00     0.007 A 
HETATM   21  C   UNL     1      43.878 -19.527   2.894  1.00  0.00    -0.059 A 
HETATM   22  C   UNL     1      43.570 -18.941   4.130  1.00  0.00     0.007 A 
HETATM   23  C   UNL     1      43.448 -17.555   4.260  1.00  0.00     0.008 A 
BRANCH  21  24
HETATM   24  C   UNL     1      44.063 -21.027   2.834  1.00  0.00     0.034 C 
HETATM   25  C   UNL     1      43.976 -21.663   1.452  1.00  0.00     0.010 C 
ENDBRANCH  21  24
ENDBRANCH  17  18
ENDBRANCH   1  17
TORSDOF 5
ENDMDL
