MODEL 1
REMARK VINA RESULT:      -8.8      0.000      0.000
REMARK  6 active torsions:
REMARK  status: ('A' for Active; 'I' for Inactive)
REMARK    1  A    between atoms: C_2  and  C_3 
REMARK    2  A    between atoms: C_3  and  C_4 
REMARK       I    between atoms: C_4  and  N_5 
REMARK    3  A    between atoms: N_5  and  C_6 
REMARK    4  A    between atoms: C_8  and  C_9 
REMARK    5  A    between atoms: C_9  and  N_10 
REMARK       I    between atoms: N_10  and  C_11 
REMARK    6  A    between atoms: C_11  and  C_12 
ROOT
HETATM    1  C   UNL     1      44.894 -13.760   6.614  1.00  0.00     0.161 C 
ENDROOT
BRANCH   1   2
HETATM    2  C   UNL     1      45.140 -12.799   7.745  1.00  0.00    -0.038 A 
HETATM    3  C   UNL     1      44.076 -12.400   8.574  1.00  0.00     0.038 A 
HETATM    4  C   UNL     1      44.286 -11.527   9.643  1.00  0.00     0.035 A 
HETATM    5  C   UNL     1      45.580 -11.046   9.878  1.00  0.00     0.029 A 
HETATM    6  C   UNL     1      46.640 -11.414   9.046  1.00  0.00     0.003 A 
HETATM    7  C   UNL     1      46.420 -12.284   7.980  1.00  0.00     0.009 A 
BRANCH   4   8
HETATM    8  N   UNL     1      43.272 -11.104  10.528  1.00  0.00    -0.327 N 
HETATM    9  C   UNL     1      43.020 -11.571  11.805  1.00  0.00     0.226 C 
HETATM   10  O   UNL     1      43.632 -12.466  12.381  1.00  0.00    -0.273 OA
HETATM   11  H   UNL     1      42.635 -10.411  10.158  1.00  0.00     0.169 HD
BRANCH   9  12
HETATM   12  C   UNL     1      41.874 -10.852  12.522  1.00  0.00     0.074 C 
HETATM   13  C   UNL     1      40.644 -11.757  12.569  1.00  0.00     0.020 C 
BRANCH  12  14
HETATM   14  C   UNL     1      42.238 -10.349  13.928  1.00  0.00     0.009 C 
HETATM   15  C   UNL     1      43.333  -9.290  13.914  1.00  0.00     0.006 C 
ENDBRANCH  12  14
ENDBRANCH   9  12
ENDBRANCH   4   8
ENDBRANCH   1   2
BRANCH   1  16
HETATM   16  N   UNL     1      44.601 -15.082   7.093  1.00  0.00    -0.351 N 
HETATM   17  C   UNL     1      43.746 -15.915   6.406  1.00  0.00     0.273 C 
HETATM   18  O   UNL     1      43.082 -15.544   5.443  1.00  0.00    -0.266 OA
HETATM   19  H   UNL     1      45.183 -15.526   7.798  1.00  0.00     0.163 HD
BRANCH  17  20
HETATM   20  C   UNL     1      43.727 -17.293   6.924  1.00  0.00     0.157 A 
HETATM   21  N   UNL     1      43.478 -17.556   8.226  1.00  0.00    -0.168 NA
HETATM   22  N   UNL     1      43.558 -18.895   8.303  1.00  0.00    -0.277 N 
HETATM   23  H   UNL     1      43.404 -19.333   9.204  1.00  0.00     0.189 HD
HETATM   24  C   UNL     1      43.854 -19.516   7.122  1.00  0.00     0.063 A 
HETATM   25  C   UNL     1      43.972 -18.492   6.191  1.00  0.00     0.029 A 
HETATM   26  C   UNL     1      44.029 -20.864   6.800  1.00  0.00     0.032 A 
HETATM   27  C   UNL     1      44.287 -18.821   4.857  1.00  0.00     0.023 A 
HETATM   28  C   UNL     1      44.475 -20.168   4.501  1.00  0.00    -0.061 A 
HETATM   29  C   UNL     1      44.344 -21.169   5.470  1.00  0.00     0.009 A 
HETATM   30  C   UNL     1      44.824 -20.510   3.081  1.00  0.00     0.048 C 
ENDBRANCH  17  20
ENDBRANCH   1  16
TORSDOF 6
ENDMDL
MODEL 2
REMARK VINA RESULT:      -8.8      4.526      6.787
REMARK  6 active torsions:
REMARK  status: ('A' for Active; 'I' for Inactive)
REMARK    1  A    between atoms: C_2  and  C_3 
REMARK    2  A    between atoms: C_3  and  C_4 
REMARK       I    between atoms: C_4  and  N_5 
REMARK    3  A    between atoms: N_5  and  C_6 
REMARK    4  A    between atoms: C_8  and  C_9 
REMARK    5  A    between atoms: C_9  and  N_10 
REMARK       I    between atoms: N_10  and  C_11 
REMARK    6  A    between atoms: C_11  and  C_12 
ROOT
HETATM    1  C   UNL     1      44.438 -17.585   7.420  1.00  0.00     0.161 C 
ENDROOT
BRANCH   1   2
HETATM    2  C   UNL     1      44.031 -16.325   6.706  1.00  0.00    -0.038 A 
HETATM    3  C   UNL     1      43.131 -16.387   5.627  1.00  0.00     0.038 A 
HETATM    4  C   UNL     1      42.722 -15.228   4.965  1.00  0.00     0.035 A 
HETATM    5  C   UNL     1      43.228 -13.993   5.390  1.00  0.00     0.029 A 
HETATM    6  C   UNL     1      44.143 -13.922   6.443  1.00  0.00     0.003 A 
HETATM    7  C   UNL     1      44.547 -15.085   7.096  1.00  0.00     0.009 A 
BRANCH   4   8
HETATM    8  N   UNL     1      41.805 -15.214   3.893  1.00  0.00    -0.327 N 
HETATM    9  C   UNL     1      40.458 -14.908   3.942  1.00  0.00     0.226 C 
HETATM   10  O   UNL     1      39.818 -14.620   4.950  1.00  0.00    -0.273 OA
HETATM   11  H   UNL     1      42.179 -15.504   3.000  1.00  0.00     0.169 HD
BRANCH   9  12
HETATM   12  C   UNL     1      39.759 -14.928   2.579  1.00  0.00     0.074 C 
HETATM   13  C   UNL     1      39.867 -13.552   1.922  1.00  0.00     0.020 C 
BRANCH  12  14
HETATM   14  C   UNL     1      40.270 -16.027   1.635  1.00  0.00     0.009 C 
HETATM   15  C   UNL     1      40.950 -15.472   0.390  1.00  0.00     0.006 C 
ENDBRANCH  12  14
ENDBRANCH   9  12
ENDBRANCH   4   8
ENDBRANCH   1   2
BRANCH   1  16
HETATM   16  N   UNL     1      44.694 -18.659   6.502  1.00  0.00    -0.351 N 
HETATM   17  C   UNL     1      44.201 -19.925   6.730  1.00  0.00     0.273 C 
HETATM   18  O   UNL     1      43.646 -20.247   7.776  1.00  0.00    -0.266 OA
HETATM   19  H   UNL     1      45.029 -18.476   5.560  1.00  0.00     0.163 HD
BRANCH  17  20
HETATM   20  C   UNL     1      44.383 -20.839   5.591  1.00  0.00     0.157 A 
HETATM   21  N   UNL     1      44.771 -22.121   5.768  1.00  0.00    -0.168 NA
HETATM   22  N   UNL     1      44.832 -22.614   4.519  1.00  0.00    -0.277 N 
HETATM   23  H   UNL     1      45.108 -23.581   4.398  1.00  0.00     0.189 HD
HETATM   24  C   UNL     1      44.511 -21.716   3.539  1.00  0.00     0.063 A 
HETATM   25  C   UNL     1      44.209 -20.538   4.208  1.00  0.00     0.029 A 
HETATM   26  C   UNL     1      44.466 -21.838   2.148  1.00  0.00     0.032 A 
HETATM   27  C   UNL     1      43.842 -19.404   3.454  1.00  0.00     0.023 A 
HETATM   28  C   UNL     1      43.792 -19.491   2.051  1.00  0.00    -0.061 A 
HETATM   29  C   UNL     1      44.101 -20.701   1.417  1.00  0.00     0.009 A 
HETATM   30  C   UNL     1      43.413 -18.277   1.253  1.00  0.00     0.048 C 
ENDBRANCH  17  20
ENDBRANCH   1  16
TORSDOF 6
ENDMDL
MODEL 3
REMARK VINA RESULT:      -8.6      2.613      9.641
REMARK  6 active torsions:
REMARK  status: ('A' for Active; 'I' for Inactive)
REMARK    1  A    between atoms: C_2  and  C_3 
REMARK    2  A    between atoms: C_3  and  C_4 
REMARK       I    between atoms: C_4  and  N_5 
REMARK    3  A    between atoms: N_5  and  C_6 
REMARK    4  A    between atoms: C_8  and  C_9 
REMARK    5  A    between atoms: C_9  and  N_10 
REMARK       I    between atoms: N_10  and  C_11 
REMARK    6  A    between atoms: C_11  and  C_12 
ROOT
HETATM    1  C   UNL     1      44.791 -13.722   6.845  1.00  0.00     0.161 C 
ENDROOT
BRANCH   1   2
HETATM    2  C   UNL     1      43.686 -14.202   5.944  1.00  0.00    -0.038 A 
HETATM    3  C   UNL     1      43.924 -15.250   5.036  1.00  0.00     0.038 A 
HETATM    4  C   UNL     1      42.907 -15.725   4.206  1.00  0.00     0.035 A 
HETATM    5  C   UNL     1      41.638 -15.138   4.287  1.00  0.00     0.029 A 
HETATM    6  C   UNL     1      41.397 -14.080   5.166  1.00  0.00     0.003 A 
HETATM    7  C   UNL     1      42.419 -13.610   5.989  1.00  0.00     0.009 A 
BRANCH   4   8
HETATM    8  N   UNL     1      43.068 -16.787   3.290  1.00  0.00    -0.327 N 
HETATM    9  C   UNL     1      42.925 -18.140   3.536  1.00  0.00     0.226 C 
HETATM   10  O   UNL     1      42.657 -18.654   4.619  1.00  0.00    -0.273 OA
HETATM   11  H   UNL     1      43.364 -16.517   2.362  1.00  0.00     0.169 HD
BRANCH   9  12
HETATM   12  C   UNL     1      43.111 -19.026   2.302  1.00  0.00     0.074 C 
HETATM   13  C   UNL     1      43.548 -18.171   1.112  1.00  0.00     0.020 C 
BRANCH  12  14
HETATM   14  C   UNL     1      44.080 -20.199   2.518  1.00  0.00     0.009 C 
HETATM   15  C   UNL     1      43.660 -21.460   1.773  1.00  0.00     0.006 C 
ENDBRANCH  12  14
ENDBRANCH   9  12
ENDBRANCH   4   8
ENDBRANCH   1   2
BRANCH   1  16
HETATM   16  N   UNL     1      44.315 -13.447   8.172  1.00  0.00    -0.351 N 
HETATM   17  C   UNL     1      44.912 -12.487   8.959  1.00  0.00     0.273 C 
HETATM   18  O   UNL     1      45.952 -11.918   8.643  1.00  0.00    -0.266 OA
HETATM   19  H   UNL     1      43.400 -13.766   8.478  1.00  0.00     0.163 HD
BRANCH  17  20
HETATM   20  C   UNL     1      44.169 -12.197  10.195  1.00  0.00     0.157 A 
HETATM   21  N   UNL     1      44.377 -12.903  11.328  1.00  0.00    -0.168 NA
HETATM   22  N   UNL     1      43.521 -12.356  12.209  1.00  0.00    -0.277 N 
HETATM   23  H   UNL     1      43.498 -12.731  13.150  1.00  0.00     0.189 HD
HETATM   24  C   UNL     1      42.763 -11.336  11.706  1.00  0.00     0.063 A 
HETATM   25  C   UNL     1      43.163 -11.204  10.382  1.00  0.00     0.029 A 
HETATM   26  C   UNL     1      41.776 -10.539  12.289  1.00  0.00     0.032 A 
HETATM   27  C   UNL     1      42.544 -10.221   9.583  1.00  0.00     0.023 A 
HETATM   28  C   UNL     1      41.542  -9.405  10.137  1.00  0.00    -0.061 A 
HETATM   29  C   UNL     1      41.172  -9.571  11.477  1.00  0.00     0.009 A 
HETATM   30  C   UNL     1      40.878  -8.370   9.277  1.00  0.00     0.048 C 
ENDBRANCH  17  20
ENDBRANCH   1  16
TORSDOF 6
ENDMDL
MODEL 4
REMARK VINA RESULT:      -8.5      6.232     10.277
REMARK  6 active torsions:
REMARK  status: ('A' for Active; 'I' for Inactive)
REMARK    1  A    between atoms: C_2  and  C_3 
REMARK    2  A    between atoms: C_3  and  C_4 
REMARK       I    between atoms: C_4  and  N_5 
REMARK    3  A    between atoms: N_5  and  C_6 
REMARK    4  A    between atoms: C_8  and  C_9 
REMARK    5  A    between atoms: C_9  and  N_10 
REMARK       I    between atoms: N_10  and  C_11 
REMARK    6  A    between atoms: C_11  and  C_12 
ROOT
HETATM    1  C   UNL     1      40.870 -13.814   3.759  1.00  0.00     0.161 C 
ENDROOT
BRANCH   1   2
HETATM    2  C   UNL     1      41.072 -15.157   4.406  1.00  0.00    -0.038 A 
HETATM    3  C   UNL     1      41.827 -16.147   3.751  1.00  0.00     0.038 A 
HETATM    4  C   UNL     1      42.046 -17.392   4.344  1.00  0.00     0.035 A 
HETATM    5  C   UNL     1      41.496 -17.646   5.606  1.00  0.00     0.029 A 
HETATM    6  C   UNL     1      40.723 -16.680   6.255  1.00  0.00     0.003 A 
HETATM    7  C   UNL     1      40.507 -15.441   5.654  1.00  0.00     0.009 A 
BRANCH   4   8
HETATM    8  N   UNL     1      42.812 -18.421   3.756  1.00  0.00    -0.327 N 
HETATM    9  C   UNL     1      44.060 -18.869   4.147  1.00  0.00     0.226 C 
HETATM   10  O   UNL     1      44.734 -18.419   5.070  1.00  0.00    -0.273 OA
HETATM   11  H   UNL     1      42.411 -18.842   2.929  1.00  0.00     0.169 HD
BRANCH   9  12
HETATM   12  C   UNL     1      44.588 -20.050   3.328  1.00  0.00     0.074 C 
HETATM   13  C   UNL     1      44.807 -21.257   4.240  1.00  0.00     0.020 C 
BRANCH  12  14
HETATM   14  C   UNL     1      43.701 -20.422   2.130  1.00  0.00     0.009 C 
HETATM   15  C   UNL     1      43.934 -21.845   1.638  1.00  0.00     0.006 C 
ENDBRANCH  12  14
ENDBRANCH   9  12
ENDBRANCH   4   8
ENDBRANCH   1   2
BRANCH   1  16
HETATM   16  N   UNL     1      40.817 -13.915   2.328  1.00  0.00    -0.351 N 
HETATM   17  C   UNL     1      41.861 -13.477   1.543  1.00  0.00     0.273 C 
HETATM   18  O   UNL     1      42.820 -12.856   1.993  1.00  0.00    -0.266 OA
HETATM   19  H   UNL     1      40.138 -14.515   1.868  1.00  0.00     0.163 HD
BRANCH  17  20
HETATM   20  C   UNL     1      41.726 -13.847   0.125  1.00  0.00     0.157 A 
HETATM   21  N   UNL     1      41.382 -15.099  -0.249  1.00  0.00    -0.168 NA
HETATM   22  N   UNL     1      41.374 -15.042  -1.592  1.00  0.00    -0.277 N 
HETATM   23  H   UNL     1      41.138 -15.882  -2.106  1.00  0.00     0.189 HD
HETATM   24  C   UNL     1      41.703 -13.820  -2.110  1.00  0.00     0.063 A 
HETATM   25  C   UNL     1      41.940 -13.009  -1.008  1.00  0.00     0.029 A 
HETATM   26  C   UNL     1      41.813 -13.371  -3.428  1.00  0.00     0.032 A 
HETATM   27  C   UNL     1      42.315 -11.667  -1.223  1.00  0.00     0.023 A 
HETATM   28  C   UNL     1      42.440 -11.183  -2.537  1.00  0.00    -0.061 A 
HETATM   29  C   UNL     1      42.189 -12.036  -3.620  1.00  0.00     0.009 A 
HETATM   30  C   UNL     1      42.853  -9.757  -2.759  1.00  0.00     0.048 C 
ENDBRANCH  17  20
ENDBRANCH   1  16
TORSDOF 6
ENDMDL
MODEL 5
REMARK VINA RESULT:      -8.4      1.501      2.145
REMARK  6 active torsions:
REMARK  status: ('A' for Active; 'I' for Inactive)
REMARK    1  A    between atoms: C_2  and  C_3 
REMARK    2  A    between atoms: C_3  and  C_4 
REMARK       I    between atoms: C_4  and  N_5 
REMARK    3  A    between atoms: N_5  and  C_6 
REMARK    4  A    between atoms: C_8  and  C_9 
REMARK    5  A    between atoms: C_9  and  N_10 
REMARK       I    between atoms: N_10  and  C_11 
REMARK    6  A    between atoms: C_11  and  C_12 
ROOT
HETATM    1  C   UNL     1      43.308 -14.366   6.095  1.00  0.00     0.161 C 
ENDROOT
BRANCH   1   2
HETATM    2  C   UNL     1      44.247 -13.586   6.974  1.00  0.00    -0.038 A 
HETATM    3  C   UNL     1      43.743 -12.839   8.054  1.00  0.00     0.038 A 
HETATM    4  C   UNL     1      44.599 -12.126   8.895  1.00  0.00     0.035 A 
HETATM    5  C   UNL     1      45.977 -12.161   8.645  1.00  0.00     0.029 A 
HETATM    6  C   UNL     1      46.486 -12.877   7.559  1.00  0.00     0.003 A 
HETATM    7  C   UNL     1      45.624 -13.584   6.724  1.00  0.00     0.009 A 
BRANCH   4   8
HETATM    8  N   UNL     1      44.166 -11.376  10.010  1.00  0.00    -0.327 N 
HETATM    9  C   UNL     1      44.072 -11.799  11.323  1.00  0.00     0.226 C 
HETATM   10  O   UNL     1      44.327 -12.925  11.740  1.00  0.00    -0.273 OA
HETATM   11  H   UNL     1      43.851 -10.438   9.804  1.00  0.00     0.169 HD
BRANCH   9  12
HETATM   12  C   UNL     1      43.621 -10.711  12.301  1.00  0.00     0.074 C 
HETATM   13  C   UNL     1      43.346  -9.413  11.542  1.00  0.00     0.020 C 
BRANCH  12  14
HETATM   14  C   UNL     1      42.411 -11.109  13.161  1.00  0.00     0.009 C 
HETATM   15  C   UNL     1      41.273 -10.100  13.088  1.00  0.00     0.006 C 
ENDBRANCH  12  14
ENDBRANCH   9  12
ENDBRANCH   4   8
ENDBRANCH   1   2
BRANCH   1  16
HETATM   16  N   UNL     1      43.786 -15.698   5.855  1.00  0.00    -0.351 N 
HETATM   17  C   UNL     1      43.263 -16.777   6.535  1.00  0.00     0.273 C 
HETATM   18  O   UNL     1      42.477 -16.659   7.470  1.00  0.00    -0.266 OA
HETATM   19  H   UNL     1      44.334 -15.918   5.028  1.00  0.00     0.163 HD
BRANCH  17  20
HETATM   20  C   UNL     1      43.720 -18.076   6.015  1.00  0.00     0.157 A 
HETATM   21  N   UNL     1      44.092 -19.077   6.842  1.00  0.00    -0.168 NA
HETATM   22  N   UNL     1      44.446 -20.069   6.006  1.00  0.00    -0.277 N 
HETATM   23  H   UNL     1      44.767 -20.942   6.407  1.00  0.00     0.189 HD
HETATM   24  C   UNL     1      44.329 -19.762   4.680  1.00  0.00     0.063 A 
HETATM   25  C   UNL     1      43.853 -18.457   4.647  1.00  0.00     0.029 A 
HETATM   26  C   UNL     1      44.600 -20.505   3.528  1.00  0.00     0.032 A 
HETATM   27  C   UNL     1      43.635 -17.846   3.396  1.00  0.00     0.023 A 
HETATM   28  C   UNL     1      43.903 -18.564   2.217  1.00  0.00    -0.061 A 
HETATM   29  C   UNL     1      44.380 -19.878   2.295  1.00  0.00     0.009 A 
HETATM   30  C   UNL     1      43.682 -17.902   0.888  1.00  0.00     0.048 C 
ENDBRANCH  17  20
ENDBRANCH   1  16
TORSDOF 6
ENDMDL
MODEL 6
REMARK VINA RESULT:      -8.4      2.347      9.781
REMARK  6 active torsions:
REMARK  status: ('A' for Active; 'I' for Inactive)
REMARK    1  A    between atoms: C_2  and  C_3 
REMARK    2  A    between atoms: C_3  and  C_4 
REMARK       I    between atoms: C_4  and  N_5 
REMARK    3  A    between atoms: N_5  and  C_6 
REMARK    4  A    between atoms: C_8  and  C_9 
REMARK    5  A    between atoms: C_9  and  N_10 
REMARK       I    between atoms: N_10  and  C_11 
REMARK    6  A    between atoms: C_11  and  C_12 
ROOT
HETATM    1  C   UNL     1      44.671 -14.335   7.185  1.00  0.00     0.161 C 
ENDROOT
BRANCH   1   2
HETATM    2  C   UNL     1      44.110 -15.706   6.921  1.00  0.00    -0.038 A 
HETATM    3  C   UNL     1      44.172 -16.254   5.627  1.00  0.00     0.038 A 
HETATM    4  C   UNL     1      43.678 -17.533   5.364  1.00  0.00     0.035 A 
HETATM    5  C   UNL     1      43.111 -18.267   6.413  1.00  0.00     0.029 A 
HETATM    6  C   UNL     1      43.020 -17.723   7.696  1.00  0.00     0.003 A 
HETATM    7  C   UNL     1      43.513 -16.444   7.948  1.00  0.00     0.009 A 
BRANCH   4   8
HETATM    8  N   UNL     1      43.730 -18.153   4.098  1.00  0.00    -0.327 N 
HETATM    9  C   UNL     1      44.374 -19.330   3.763  1.00  0.00     0.226 C 
HETATM   10  O   UNL     1      45.043 -20.029   4.519  1.00  0.00    -0.273 OA
HETATM   11  H   UNL     1      43.277 -17.648   3.349  1.00  0.00     0.169 HD
BRANCH   9  12
HETATM   12  C   UNL     1      44.180 -19.759   2.306  1.00  0.00     0.074 C 
HETATM   13  C   UNL     1      43.891 -21.259   2.241  1.00  0.00     0.020 C 
BRANCH  12  14
HETATM   14  C   UNL     1      43.100 -18.961   1.560  1.00  0.00     0.009 C 
HETATM   15  C   UNL     1      43.646 -17.710   0.884  1.00  0.00     0.006 C 
ENDBRANCH  12  14
ENDBRANCH   9  12
ENDBRANCH   4   8
ENDBRANCH   1   2
BRANCH   1  16
HETATM   16  N   UNL     1      44.311 -13.855   8.489  1.00  0.00    -0.351 N 
HETATM   17  C   UNL     1      44.674 -12.595   8.911  1.00  0.00     0.273 C 
HETATM   18  O   UNL     1      45.434 -11.871   8.273  1.00  0.00    -0.266 OA
HETATM   19  H   UNL     1      43.590 -14.315   9.038  1.00  0.00     0.163 HD
BRANCH  17  20
HETATM   20  C   UNL     1      44.046 -12.196  10.180  1.00  0.00     0.157 A 
HETATM   21  N   UNL     1      44.307 -12.848  11.334  1.00  0.00    -0.168 NA
HETATM   22  N   UNL     1      43.552 -12.208  12.243  1.00  0.00    -0.277 N 
HETATM   23  H   UNL     1      43.584 -12.527  13.204  1.00  0.00     0.189 HD
HETATM   24  C   UNL     1      42.808 -11.178  11.738  1.00  0.00     0.063 A 
HETATM   25  C   UNL     1      43.109 -11.140  10.383  1.00  0.00     0.029 A 
HETATM   26  C   UNL     1      41.911 -10.296  12.347  1.00  0.00     0.032 A 
HETATM   27  C   UNL     1      42.479 -10.172   9.575  1.00  0.00     0.023 A 
HETATM   28  C   UNL     1      41.567  -9.272  10.155  1.00  0.00    -0.061 A 
HETATM   29  C   UNL     1      41.294  -9.343  11.526  1.00  0.00     0.009 A 
HETATM   30  C   UNL     1      40.889  -8.252   9.286  1.00  0.00     0.048 C 
ENDBRANCH  17  20
ENDBRANCH   1  16
TORSDOF 6
ENDMDL
MODEL 7
REMARK VINA RESULT:      -8.3      2.561      9.831
REMARK  6 active torsions:
REMARK  status: ('A' for Active; 'I' for Inactive)
REMARK    1  A    between atoms: C_2  and  C_3 
REMARK    2  A    between atoms: C_3  and  C_4 
REMARK       I    between atoms: C_4  and  N_5 
REMARK    3  A    between atoms: N_5  and  C_6 
REMARK    4  A    between atoms: C_8  and  C_9 
REMARK    5  A    between atoms: C_9  and  N_10 
REMARK       I    between atoms: N_10  and  C_11 
REMARK    6  A    between atoms: C_11  and  C_12 
ROOT
HETATM    1  C   UNL     1      44.741 -14.126   7.273  1.00  0.00     0.161 C 
ENDROOT
BRANCH   1   2
HETATM    2  C   UNL     1      44.065 -15.451   7.049  1.00  0.00    -0.038 A 
HETATM    3  C   UNL     1      43.810 -15.898   5.740  1.00  0.00     0.038 A 
HETATM    4  C   UNL     1      43.205 -17.134   5.508  1.00  0.00     0.035 A 
HETATM    5  C   UNL     1      42.847 -17.928   6.605  1.00  0.00     0.029 A 
HETATM    6  C   UNL     1      43.071 -17.482   7.910  1.00  0.00     0.003 A 
HETATM    7  C   UNL     1      43.674 -16.246   8.132  1.00  0.00     0.009 A 
BRANCH   4   8
HETATM    8  N   UNL     1      42.941 -17.656   4.224  1.00  0.00    -0.327 N 
HETATM    9  C   UNL     1      41.889 -17.337   3.386  1.00  0.00     0.226 C 
HETATM   10  O   UNL     1      40.976 -16.554   3.636  1.00  0.00    -0.273 OA
HETATM   11  H   UNL     1      43.578 -18.375   3.909  1.00  0.00     0.169 HD
BRANCH   9  12
HETATM   12  C   UNL     1      41.931 -18.044   2.028  1.00  0.00     0.074 C 
HETATM   13  C   UNL     1      41.326 -17.139   0.955  1.00  0.00     0.020 C 
BRANCH  12  14
HETATM   14  C   UNL     1      43.334 -18.518   1.617  1.00  0.00     0.009 C 
HETATM   15  C   UNL     1      44.263 -17.370   1.245  1.00  0.00     0.006 C 
ENDBRANCH  12  14
ENDBRANCH   9  12
ENDBRANCH   4   8
ENDBRANCH   1   2
BRANCH   1  16
HETATM   16  N   UNL     1      43.819 -13.130   7.743  1.00  0.00    -0.351 N 
HETATM   17  C   UNL     1      44.220 -12.143   8.617  1.00  0.00     0.273 C 
HETATM   18  O   UNL     1      45.325 -12.133   9.151  1.00  0.00    -0.266 OA
HETATM   19  H   UNL     1      42.931 -12.975   7.275  1.00  0.00     0.163 HD
BRANCH  17  20
HETATM   20  C   UNL     1      43.206 -11.096   8.824  1.00  0.00     0.157 A 
HETATM   21  N   UNL     1      42.401 -10.683   7.821  1.00  0.00    -0.168 NA
HETATM   22  N   UNL     1      41.640  -9.732   8.392  1.00  0.00    -0.277 N 
HETATM   23  H   UNL     1      40.946  -9.267   7.820  1.00  0.00     0.189 HD
HETATM   24  C   UNL     1      41.915  -9.502   9.711  1.00  0.00     0.063 A 
HETATM   25  C   UNL     1      42.940 -10.382  10.030  1.00  0.00     0.029 A 
HETATM   26  C   UNL     1      41.362  -8.608  10.631  1.00  0.00     0.032 A 
HETATM   27  C   UNL     1      43.455 -10.377  11.342  1.00  0.00     0.023 A 
HETATM   28  C   UNL     1      42.925  -9.486  12.292  1.00  0.00    -0.061 A 
HETATM   29  C   UNL     1      41.889  -8.616  11.928  1.00  0.00     0.009 A 
HETATM   30  C   UNL     1      43.487  -9.475  13.684  1.00  0.00     0.048 C 
ENDBRANCH  17  20
ENDBRANCH   1  16
TORSDOF 6
ENDMDL
MODEL 8
REMARK VINA RESULT:      -8.3      5.927      9.944
REMARK  6 active torsions:
REMARK  status: ('A' for Active; 'I' for Inactive)
REMARK    1  A    between atoms: C_2  and  C_3 
REMARK    2  A    between atoms: C_3  and  C_4 
REMARK       I    between atoms: C_4  and  N_5 
REMARK    3  A    between atoms: N_5  and  C_6 
REMARK    4  A    between atoms: C_8  and  C_9 
REMARK    5  A    between atoms: C_9  and  N_10 
REMARK       I    between atoms: N_10  and  C_11 
REMARK    6  A    between atoms: C_11  and  C_12 
ROOT
HETATM    1  C   UNL     1      42.274 -13.077   4.124  1.00  0.00     0.161 C 
ENDROOT
BRANCH   1   2
HETATM    2  C   UNL     1      41.946 -14.503   4.474  1.00  0.00    -0.038 A 
HETATM    3  C   UNL     1      42.631 -15.557   3.843  1.00  0.00     0.038 A 
HETATM    4  C   UNL     1      42.359 -16.887   4.169  1.00  0.00     0.035 A 
HETATM    5  C   UNL     1      41.384 -17.160   5.137  1.00  0.00     0.029 A 
HETATM    6  C   UNL     1      40.678 -16.122   5.750  1.00  0.00     0.003 A 
HETATM    7  C   UNL     1      40.955 -14.798   5.417  1.00  0.00     0.009 A 
BRANCH   4   8
HETATM    8  N   UNL     1      43.023 -17.992   3.595  1.00  0.00    -0.327 N 
HETATM    9  C   UNL     1      44.109 -18.680   4.106  1.00  0.00     0.226 C 
HETATM   10  O   UNL     1      44.703 -18.421   5.149  1.00  0.00    -0.273 OA
HETATM   11  H   UNL     1      42.685 -18.276   2.686  1.00  0.00     0.169 HD
BRANCH   9  12
HETATM   12  C   UNL     1      44.551 -19.875   3.257  1.00  0.00     0.074 C 
HETATM   13  C   UNL     1      44.815 -21.081   4.158  1.00  0.00     0.020 C 
BRANCH  12  14
HETATM   14  C   UNL     1      43.568 -20.236   2.132  1.00  0.00     0.009 C 
HETATM   15  C   UNL     1      43.692 -21.685   1.679  1.00  0.00     0.006 C 
ENDBRANCH  12  14
ENDBRANCH   9  12
ENDBRANCH   4   8
ENDBRANCH   1   2
BRANCH   1  16
HETATM   16  N   UNL     1      42.544 -12.921   2.723  1.00  0.00    -0.351 N 
HETATM   17  C   UNL     1      41.545 -12.585   1.837  1.00  0.00     0.273 C 
HETATM   18  O   UNL     1      40.360 -12.540   2.153  1.00  0.00    -0.266 OA
HETATM   19  H   UNL     1      43.496 -12.814   2.381  1.00  0.00     0.163 HD
BRANCH  17  20
HETATM   20  C   UNL     1      42.039 -12.265   0.488  1.00  0.00     0.157 A 
HETATM   21  N   UNL     1      42.760 -11.148   0.246  1.00  0.00    -0.168 NA
HETATM   22  N   UNL     1      43.008 -11.206  -1.074  1.00  0.00    -0.277 N 
HETATM   23  H   UNL     1      43.547 -10.458  -1.494  1.00  0.00     0.189 HD
HETATM   24  C   UNL     1      42.480 -12.299  -1.703  1.00  0.00     0.063 A 
HETATM   25  C   UNL     1      41.836 -13.018  -0.705  1.00  0.00     0.029 A 
HETATM   26  C   UNL     1      42.511 -12.704  -3.040  1.00  0.00     0.032 A 
HETATM   27  C   UNL     1      41.175 -14.214  -1.052  1.00  0.00     0.023 A 
HETATM   28  C   UNL     1      41.181 -14.649  -2.389  1.00  0.00    -0.061 A 
HETATM   29  C   UNL     1      41.846 -13.894  -3.363  1.00  0.00     0.009 A 
HETATM   30  C   UNL     1      40.464 -15.917  -2.753  1.00  0.00     0.048 C 
ENDBRANCH  17  20
ENDBRANCH   1  16
TORSDOF 6
ENDMDL
MODEL 9
REMARK VINA RESULT:      -8.1      5.344      7.987
REMARK  6 active torsions:
REMARK  status: ('A' for Active; 'I' for Inactive)
REMARK    1  A    between atoms: C_2  and  C_3 
REMARK    2  A    between atoms: C_3  and  C_4 
REMARK       I    between atoms: C_4  and  N_5 
REMARK    3  A    between atoms: N_5  and  C_6 
REMARK    4  A    between atoms: C_8  and  C_9 
REMARK    5  A    between atoms: C_9  and  N_10 
REMARK       I    between atoms: N_10  and  C_11 
REMARK    6  A    between atoms: C_11  and  C_12 
ROOT
HETATM    1  C   UNL     1      40.580 -15.937   6.318  1.00  0.00     0.161 C 
ENDROOT
BRANCH   1   2
HETATM    2  C   UNL     1      40.332 -14.840   5.318  1.00  0.00    -0.038 A 
HETATM    3  C   UNL     1      40.664 -15.034   3.965  1.00  0.00     0.038 A 
HETATM    4  C   UNL     1      40.421 -14.038   3.017  1.00  0.00     0.035 A 
HETATM    5  C   UNL     1      39.843 -12.833   3.435  1.00  0.00     0.029 A 
HETATM    6  C   UNL     1      39.534 -12.619   4.780  1.00  0.00     0.003 A 
HETATM    7  C   UNL     1      39.782 -13.618   5.720  1.00  0.00     0.009 A 
BRANCH   4   8
HETATM    8  N   UNL     1      40.706 -14.172   1.642  1.00  0.00    -0.327 N 
HETATM    9  C   UNL     1      41.713 -13.551   0.926  1.00  0.00     0.226 C 
HETATM   10  O   UNL     1      42.524 -12.743   1.371  1.00  0.00    -0.273 OA
HETATM   11  H   UNL     1      40.067 -14.759   1.122  1.00  0.00     0.169 HD
BRANCH   9  12
HETATM   12  C   UNL     1      41.784 -13.965  -0.547  1.00  0.00     0.074 C 
HETATM   13  C   UNL     1      40.443 -14.555  -0.984  1.00  0.00     0.020 C 
BRANCH  12  14
HETATM   14  C   UNL     1      42.218 -12.833  -1.491  1.00  0.00     0.009 C 
HETATM   15  C   UNL     1      42.020 -13.178  -2.961  1.00  0.00     0.006 C 
ENDBRANCH  12  14
ENDBRANCH   9  12
ENDBRANCH   4   8
ENDBRANCH   1   2
BRANCH   1  16
HETATM   16  N   UNL     1      41.511 -16.910   5.821  1.00  0.00    -0.351 N 
HETATM   17  C   UNL     1      42.503 -17.424   6.626  1.00  0.00     0.273 C 
HETATM   18  O   UNL     1      42.743 -16.991   7.750  1.00  0.00    -0.266 OA
HETATM   19  H   UNL     1      41.328 -17.421   4.962  1.00  0.00     0.163 HD
BRANCH  17  20
HETATM   20  C   UNL     1      43.226 -18.553   6.020  1.00  0.00     0.157 A 
HETATM   21  N   UNL     1      43.690 -19.579   6.767  1.00  0.00    -0.168 NA
HETATM   22  N   UNL     1      44.287 -20.384   5.871  1.00  0.00    -0.277 N 
HETATM   23  H   UNL     1      44.717 -21.238   6.206  1.00  0.00     0.189 HD
HETATM   24  C   UNL     1      44.242 -19.931   4.582  1.00  0.00     0.063 A 
HETATM   25  C   UNL     1      43.551 -18.728   4.642  1.00  0.00     0.029 A 
HETATM   26  C   UNL     1      44.745 -20.465   3.393  1.00  0.00     0.032 A 
HETATM   27  C   UNL     1      43.346 -18.003   3.450  1.00  0.00     0.023 A 
HETATM   28  C   UNL     1      43.844 -18.509   2.237  1.00  0.00    -0.061 A 
HETATM   29  C   UNL     1      44.533 -19.728   2.221  1.00  0.00     0.009 A 
HETATM   30  C   UNL     1      43.635 -17.726   0.973  1.00  0.00     0.048 C 
ENDBRANCH  17  20
ENDBRANCH   1  16
TORSDOF 6
ENDMDL
MODEL 10
REMARK VINA RESULT:      -8.1      6.421      9.532
REMARK  6 active torsions:
REMARK  status: ('A' for Active; 'I' for Inactive)
REMARK    1  A    between atoms: C_2  and  C_3 
REMARK    2  A    between atoms: C_3  and  C_4 
REMARK       I    between atoms: C_4  and  N_5 
REMARK    3  A    between atoms: N_5  and  C_6 
REMARK    4  A    between atoms: C_8  and  C_9 
REMARK    5  A    between atoms: C_9  and  N_10 
REMARK       I    between atoms: N_10  and  C_11 
REMARK    6  A    between atoms: C_11  and  C_12 
ROOT
HETATM    1  C   UNL     1      42.919 -14.331   2.958  1.00  0.00     0.161 C 
ENDROOT
BRANCH   1   2
HETATM    2  C   UNL     1      41.524 -14.198   2.412  1.00  0.00    -0.038 A 
HETATM    3  C   UNL     1      41.261 -14.524   1.068  1.00  0.00     0.038 A 
HETATM    4  C   UNL     1      39.970 -14.430   0.546  1.00  0.00     0.035 A 
HETATM    5  C   UNL     1      38.932 -13.999   1.383  1.00  0.00     0.029 A 
HETATM    6  C   UNL     1      39.186 -13.648   2.711  1.00  0.00     0.003 A 
HETATM    7  C   UNL     1      40.479 -13.743   3.222  1.00  0.00     0.009 A 
BRANCH   4   8
HETATM    8  N   UNL     1      39.630 -14.762  -0.782  1.00  0.00    -0.327 N 
HETATM    9  C   UNL     1      39.699 -13.948  -1.898  1.00  0.00     0.226 C 
HETATM   10  O   UNL     1      40.049 -12.771  -1.913  1.00  0.00    -0.273 OA
HETATM   11  H   UNL     1      39.252 -15.690  -0.913  1.00  0.00     0.169 HD
BRANCH   9  12
HETATM   12  C   UNL     1      39.312 -14.641  -3.206  1.00  0.00     0.074 C 
HETATM   13  C   UNL     1      40.131 -15.920  -3.377  1.00  0.00     0.020 C 
BRANCH  12  14
HETATM   14  C   UNL     1      37.808 -14.932  -3.335  1.00  0.00     0.009 C 
HETATM   15  C   UNL     1      37.016 -13.743  -3.861  1.00  0.00     0.006 C 
ENDBRANCH  12  14
ENDBRANCH   9  12
ENDBRANCH   4   8
ENDBRANCH   1   2
BRANCH   1  16
HETATM   16  N   UNL     1      43.089 -15.551   3.696  1.00  0.00    -0.351 N 
HETATM   17  C   UNL     1      43.640 -16.668   3.109  1.00  0.00     0.273 C 
HETATM   18  O   UNL     1      43.884 -16.740   1.908  1.00  0.00    -0.266 OA
HETATM   19  H   UNL     1      43.037 -15.562   4.711  1.00  0.00     0.163 HD
BRANCH  17  20
HETATM   20  C   UNL     1      43.928 -17.751   4.062  1.00  0.00     0.157 A 
HETATM   21  N   UNL     1      44.061 -17.512   5.386  1.00  0.00    -0.168 NA
HETATM   22  N   UNL     1      44.325 -18.723   5.906  1.00  0.00    -0.277 N 
HETATM   23  H   UNL     1      44.466 -18.794   6.906  1.00  0.00     0.189 HD
HETATM   24  C   UNL     1      44.377 -19.735   4.989  1.00  0.00     0.063 A 
HETATM   25  C   UNL     1      44.121 -19.133   3.765  1.00  0.00     0.029 A 
HETATM   26  C   UNL     1      44.629 -21.102   5.130  1.00  0.00     0.032 A 
HETATM   27  C   UNL     1      44.115 -19.932   2.604  1.00  0.00     0.023 A 
HETATM   28  C   UNL     1      44.369 -21.311   2.709  1.00  0.00    -0.061 A 
HETATM   29  C   UNL     1      44.621 -21.878   3.964  1.00  0.00     0.009 A 
HETATM   30  C   UNL     1      44.376 -22.154   1.467  1.00  0.00     0.048 C 
ENDBRANCH  17  20
ENDBRANCH   1  16
TORSDOF 6
ENDMDL
