MODEL 1
REMARK VINA RESULT:      -7.9      0.000      0.000
REMARK  5 active torsions:
REMARK  status: ('A' for Active; 'I' for Inactive)
REMARK    1  A    between atoms: C_2  and  C_3 
REMARK    2  A    between atoms: C_3  and  N_4 
REMARK    3  A    between atoms: C_3  and  C_18 
REMARK    4  A    between atoms: N_4  and  C_7 
REMARK    5  A    between atoms: C_7  and  C_8 
ROOT
HETATM    1  N   UNL     1      43.453 -15.511   7.558  1.00  0.00    -0.056 N 
HETATM    2  H   UNL     1      43.616 -15.137   8.502  1.00  0.00     0.278 HD
HETATM    3  H   UNL     1      42.468 -15.335   7.335  1.00  0.00     0.278 HD
ENDROOT
BRANCH   1   4
HETATM    4  C   UNL     1      44.334 -14.734   6.622  1.00  0.00     0.292 C 
BRANCH   4   5
HETATM    5  C   UNL     1      43.512 -14.012   5.568  1.00  0.00    -0.020 A 
HETATM    6  C   UNL     1      42.443 -13.156   5.903  1.00  0.00     0.011 A 
HETATM    7  C   UNL     1      41.699 -12.518   4.906  1.00  0.00     0.024 A 
HETATM    8  C   UNL     1      42.009 -12.724   3.565  1.00  0.00     0.034 A 
HETATM    9  C   UNL     1      43.061 -13.563   3.211  1.00  0.00     0.024 A 
HETATM   10 CL   UNL     1      41.092 -11.937   2.344  1.00  0.00    -0.084 Cl
HETATM   11  C   UNL     1      43.809 -14.204   4.205  1.00  0.00     0.011 A 
ENDBRANCH   4   5
BRANCH   4  12
HETATM   12  C   UNL     1      45.133 -13.670   7.319  1.00  0.00     0.190 A 
HETATM   13  N   UNL     1      46.240 -13.126   6.802  1.00  0.00    -0.109 NA
HETATM   14  O   UNL     1      46.661 -12.251   7.808  1.00  0.00    -0.205 OA
HETATM   15  C   UNL     1      45.786 -12.398   8.838  1.00  0.00     0.288 A 
HETATM   16  N   UNL     1      44.844 -13.286   8.612  1.00  0.00    -0.215 NA
ENDBRANCH   4  12
ENDBRANCH   1   4
BRANCH   1  17
HETATM   17  C   UNL     1      43.716 -16.972   7.592  1.00  0.00     0.272 C 
BRANCH  17  18
HETATM   18  C   UNL     1      43.459 -17.587   6.247  1.00  0.00    -0.030 A 
HETATM   19  C   UNL     1      44.381 -18.491   5.697  1.00  0.00     0.048 A 
HETATM   20  C   UNL     1      44.127 -19.097   4.466  1.00  0.00     0.102 A 
HETATM   21  C   UNL     1      42.965 -18.786   3.759  1.00  0.00     0.102 A 
HETATM   22  O   UNL     1      45.069 -19.982   4.014  1.00  0.00    -0.346 OA
HETATM   23  O   UNL     1      42.671 -19.313   2.530  1.00  0.00    -0.346 OA
HETATM   24  C   UNL     1      42.034 -17.906   4.303  1.00  0.00     0.040 A 
HETATM   25  C   UNL     1      43.831 -19.892   1.919  1.00  0.00     0.202 C 
HETATM   26  C   UNL     1      44.578 -20.764   2.915  1.00  0.00     0.202 C 
HETATM   27  C   UNL     1      42.276 -17.309   5.544  1.00  0.00     0.012 A 
ENDBRANCH  17  18
ENDBRANCH   1  17
TORSDOF 5
ENDMDL
MODEL 2
REMARK VINA RESULT:      -7.6      4.804      6.901
REMARK  5 active torsions:
REMARK  status: ('A' for Active; 'I' for Inactive)
REMARK    1  A    between atoms: C_2  and  C_3 
REMARK    2  A    between atoms: C_3  and  N_4 
REMARK    3  A    between atoms: C_3  and  C_18 
REMARK    4  A    between atoms: N_4  and  C_7 
REMARK    5  A    between atoms: C_7  and  C_8 
ROOT
HETATM    1  N   UNL     1      40.299 -16.287   2.987  1.00  0.00    -0.056 N 
HETATM    2  H   UNL     1      40.617 -16.583   2.054  1.00  0.00     0.278 HD
HETATM    3  H   UNL     1      39.550 -16.932   3.262  1.00  0.00     0.278 HD
ENDROOT
BRANCH   1   4
HETATM    4  C   UNL     1      41.469 -16.441   3.916  1.00  0.00     0.292 C 
BRANCH   4   5
HETATM    5  C   UNL     1      42.307 -17.655   3.546  1.00  0.00    -0.020 A 
HETATM    6  C   UNL     1      43.203 -18.255   4.454  1.00  0.00     0.011 A 
HETATM    7  C   UNL     1      43.967 -19.363   4.076  1.00  0.00     0.024 A 
HETATM    8  C   UNL     1      43.850 -19.885   2.792  1.00  0.00     0.034 A 
HETATM    9  C   UNL     1      42.970 -19.309   1.879  1.00  0.00     0.024 A 
HETATM   10 CL   UNL     1      44.791 -21.247   2.332  1.00  0.00    -0.084 Cl
HETATM   11  C   UNL     1      42.203 -18.201   2.252  1.00  0.00     0.011 A 
ENDBRANCH   4   5
BRANCH   4  12
HETATM   12  C   UNL     1      42.406 -15.269   3.877  1.00  0.00     0.190 A 
HETATM   13  N   UNL     1      43.213 -15.007   2.843  1.00  0.00    -0.109 NA
HETATM   14  O   UNL     1      43.923 -13.882   3.274  1.00  0.00    -0.205 OA
HETATM   15  C   UNL     1      43.497 -13.617   4.537  1.00  0.00     0.288 A 
HETATM   16  N   UNL     1      42.590 -14.459   4.979  1.00  0.00    -0.215 NA
ENDBRANCH   4  12
ENDBRANCH   1   4
BRANCH   1  17
HETATM   17  C   UNL     1      39.770 -14.905   2.875  1.00  0.00     0.272 C 
BRANCH  17  18
HETATM   18  C   UNL     1      39.490 -14.560   1.441  1.00  0.00    -0.030 A 
HETATM   19  C   UNL     1      40.495 -14.710   0.471  1.00  0.00     0.048 A 
HETATM   20  C   UNL     1      40.228 -14.430  -0.869  1.00  0.00     0.102 A 
HETATM   21  C   UNL     1      38.966 -13.972  -1.251  1.00  0.00     0.102 A 
HETATM   22  O   UNL     1      41.257 -14.624  -1.751  1.00  0.00    -0.346 OA
HETATM   23  O   UNL     1      38.647 -13.641  -2.541  1.00  0.00    -0.346 OA
HETATM   24  C   UNL     1      37.957 -13.838  -0.301  1.00  0.00     0.040 A 
HETATM   25  C   UNL     1      39.823 -13.463  -3.341  1.00  0.00     0.202 C 
HETATM   26  C   UNL     1      40.801 -14.604  -3.112  1.00  0.00     0.202 C 
HETATM   27  C   UNL     1      38.215 -14.134   1.041  1.00  0.00     0.012 A 
ENDBRANCH  17  18
ENDBRANCH   1  17
TORSDOF 5
ENDMDL
MODEL 3
REMARK VINA RESULT:      -7.4      4.119      6.550
REMARK  5 active torsions:
REMARK  status: ('A' for Active; 'I' for Inactive)
REMARK    1  A    between atoms: C_2  and  C_3 
REMARK    2  A    between atoms: C_3  and  N_4 
REMARK    3  A    between atoms: C_3  and  C_18 
REMARK    4  A    between atoms: N_4  and  C_7 
REMARK    5  A    between atoms: C_7  and  C_8 
ROOT
HETATM    1  N   UNL     1      43.048 -15.596   3.409  1.00  0.00    -0.056 N 
HETATM    2  H   UNL     1      43.846 -15.249   3.958  1.00  0.00     0.278 HD
HETATM    3  H   UNL     1      43.423 -15.903   2.504  1.00  0.00     0.278 HD
ENDROOT
BRANCH   1   4
HETATM    4  C   UNL     1      42.486 -16.774   4.153  1.00  0.00     0.292 C 
BRANCH   4   5
HETATM    5  C   UNL     1      43.044 -18.081   3.613  1.00  0.00    -0.020 A 
HETATM    6  C   UNL     1      43.965 -18.863   4.339  1.00  0.00     0.011 A 
HETATM    7  C   UNL     1      44.467 -20.054   3.806  1.00  0.00     0.024 A 
HETATM    8  C   UNL     1      44.060 -20.479   2.545  1.00  0.00     0.034 A 
HETATM    9  C   UNL     1      43.151 -19.723   1.811  1.00  0.00     0.024 A 
HETATM   10 CL   UNL     1      44.680 -21.944   1.895  1.00  0.00    -0.084 Cl
HETATM   11  C   UNL     1      42.645 -18.531   2.340  1.00  0.00     0.011 A 
ENDBRANCH   4   5
BRANCH   4  12
HETATM   12  C   UNL     1      42.823 -16.757   5.616  1.00  0.00     0.190 A 
HETATM   13  N   UNL     1      42.075 -17.355   6.550  1.00  0.00    -0.109 NA
HETATM   14  O   UNL     1      42.733 -17.027   7.739  1.00  0.00    -0.205 OA
HETATM   15  C   UNL     1      43.780 -16.231   7.394  1.00  0.00     0.288 A 
HETATM   16  N   UNL     1      43.867 -15.997   6.104  1.00  0.00    -0.215 NA
ENDBRANCH   4  12
ENDBRANCH   1   4
BRANCH   1  17
HETATM   17  C   UNL     1      42.100 -14.472   3.215  1.00  0.00     0.272 C 
BRANCH  17  18
HETATM   18  C   UNL     1      41.947 -14.154   1.755  1.00  0.00    -0.030 A 
HETATM   19  C   UNL     1      41.638 -15.174   0.840  1.00  0.00     0.048 A 
HETATM   20  C   UNL     1      41.455 -14.877  -0.510  1.00  0.00     0.102 A 
HETATM   21  C   UNL     1      41.606 -13.566  -0.966  1.00  0.00     0.102 A 
HETATM   22  O   UNL     1      41.135 -15.927  -1.329  1.00  0.00    -0.346 OA
HETATM   23  O   UNL     1      41.479 -13.211  -2.282  1.00  0.00    -0.346 OA
HETATM   24  C   UNL     1      41.893 -12.545  -0.065  1.00  0.00     0.040 A 
HETATM   25  C   UNL     1      41.554 -14.356  -3.142  1.00  0.00     0.202 C 
HETATM   26  C   UNL     1      40.675 -15.478  -2.613  1.00  0.00     0.202 C 
HETATM   27  C   UNL     1      42.061 -12.834   1.292  1.00  0.00     0.012 A 
ENDBRANCH  17  18
ENDBRANCH   1  17
TORSDOF 5
ENDMDL
MODEL 4
REMARK VINA RESULT:      -7.4      2.976      4.413
REMARK  5 active torsions:
REMARK  status: ('A' for Active; 'I' for Inactive)
REMARK    1  A    between atoms: C_2  and  C_3 
REMARK    2  A    between atoms: C_3  and  N_4 
REMARK    3  A    between atoms: C_3  and  C_18 
REMARK    4  A    between atoms: N_4  and  C_7 
REMARK    5  A    between atoms: C_7  and  C_8 
ROOT
HETATM    1  N   UNL     1      42.517 -16.985   2.099  1.00  0.00    -0.056 N 
HETATM    2  H   UNL     1      42.580 -17.220   3.098  1.00  0.00     0.278 HD
HETATM    3  H   UNL     1      41.592 -17.291   1.780  1.00  0.00     0.278 HD
ENDROOT
BRANCH   1   4
HETATM    4  C   UNL     1      42.623 -15.490   1.995  1.00  0.00     0.292 C 
BRANCH   4   5
HETATM    5  C   UNL     1      41.275 -14.866   1.670  1.00  0.00    -0.020 A 
HETATM    6  C   UNL     1      41.160 -13.625   1.012  1.00  0.00     0.011 A 
HETATM    7  C   UNL     1      39.903 -13.075   0.741  1.00  0.00     0.024 A 
HETATM    8  C   UNL     1      38.749 -13.752   1.120  1.00  0.00     0.034 A 
HETATM    9  C   UNL     1      38.840 -14.980   1.770  1.00  0.00     0.024 A 
HETATM   10 CL   UNL     1      37.207 -13.073   0.784  1.00  0.00    -0.084 Cl
HETATM   11  C   UNL     1      40.093 -15.535   2.044  1.00  0.00     0.011 A 
ENDBRANCH   4   5
BRANCH   4  12
HETATM   12  C   UNL     1      43.076 -14.845   3.272  1.00  0.00     0.190 A 
HETATM   13  N   UNL     1      43.863 -13.764   3.311  1.00  0.00    -0.109 NA
HETATM   14  O   UNL     1      44.063 -13.568   4.681  1.00  0.00    -0.205 OA
HETATM   15  C   UNL     1      43.411 -14.578   5.315  1.00  0.00     0.288 A 
HETATM   16  N   UNL     1      42.815 -15.419   4.500  1.00  0.00    -0.215 NA
ENDBRANCH   4  12
ENDBRANCH   1   4
BRANCH   1  17
HETATM   17  C   UNL     1      43.579 -17.735   1.383  1.00  0.00     0.272 C 
BRANCH  17  18
HETATM   18  C   UNL     1      43.873 -19.031   2.080  1.00  0.00    -0.030 A 
HETATM   19  C   UNL     1      44.096 -19.051   3.467  1.00  0.00     0.048 A 
HETATM   20  C   UNL     1      44.328 -20.258   4.126  1.00  0.00     0.102 A 
HETATM   21  C   UNL     1      44.368 -21.453   3.406  1.00  0.00     0.102 A 
HETATM   22  O   UNL     1      44.515 -20.189   5.481  1.00  0.00    -0.346 OA
HETATM   23  O   UNL     1      44.629 -22.667   3.983  1.00  0.00    -0.346 OA
HETATM   24  C   UNL     1      44.129 -21.448   2.035  1.00  0.00     0.040 A 
HETATM   25  C   UNL     1      45.211 -22.514   5.283  1.00  0.00     0.202 C 
HETATM   26  C   UNL     1      44.440 -21.485   6.094  1.00  0.00     0.202 C 
HETATM   27  C   UNL     1      43.879 -20.243   1.372  1.00  0.00     0.012 A 
ENDBRANCH  17  18
ENDBRANCH   1  17
TORSDOF 5
ENDMDL
MODEL 5
REMARK VINA RESULT:      -7.4      5.984      8.064
REMARK  5 active torsions:
REMARK  status: ('A' for Active; 'I' for Inactive)
REMARK    1  A    between atoms: C_2  and  C_3 
REMARK    2  A    between atoms: C_3  and  N_4 
REMARK    3  A    between atoms: C_3  and  C_18 
REMARK    4  A    between atoms: N_4  and  C_7 
REMARK    5  A    between atoms: C_7  and  C_8 
ROOT
HETATM    1  N   UNL     1      42.114 -15.750   0.277  1.00  0.00    -0.056 N 
HETATM    2  H   UNL     1      43.127 -15.832   0.120  1.00  0.00     0.278 HD
HETATM    3  H   UNL     1      41.674 -16.537  -0.213  1.00  0.00     0.278 HD
ENDROOT
BRANCH   1   4
HETATM    4  C   UNL     1      41.889 -15.883   1.756  1.00  0.00     0.292 C 
BRANCH   4   5
HETATM    5  C   UNL     1      42.602 -17.105   2.312  1.00  0.00    -0.020 A 
HETATM    6  C   UNL     1      43.475 -17.887   1.528  1.00  0.00     0.011 A 
HETATM    7  C   UNL     1      44.105 -19.013   2.068  1.00  0.00     0.024 A 
HETATM    8  C   UNL     1      43.872 -19.374   3.391  1.00  0.00     0.034 A 
HETATM    9  C   UNL     1      43.015 -18.615   4.184  1.00  0.00     0.024 A 
HETATM   10 CL   UNL     1      44.648 -20.758   4.051  1.00  0.00    -0.084 Cl
HETATM   11  C   UNL     1      42.383 -17.488   3.649  1.00  0.00     0.011 A 
ENDBRANCH   4   5
BRANCH   4  12
HETATM   12  C   UNL     1      42.414 -14.712   2.536  1.00  0.00     0.190 A 
HETATM   13  N   UNL     1      43.718 -14.478   2.722  1.00  0.00    -0.109 NA
HETATM   14  O   UNL     1      43.722 -13.343   3.537  1.00  0.00    -0.205 OA
HETATM   15  C   UNL     1      42.420 -13.044   3.790  1.00  0.00     0.288 A 
HETATM   16  N   UNL     1      41.567 -13.874   3.231  1.00  0.00    -0.215 NA
ENDBRANCH   4  12
ENDBRANCH   1   4
BRANCH   1  17
HETATM   17  C   UNL     1      41.661 -14.464  -0.308  1.00  0.00     0.272 C 
BRANCH  17  18
HETATM   18  C   UNL     1      40.667 -14.704  -1.408  1.00  0.00    -0.030 A 
HETATM   19  C   UNL     1      39.540 -13.876  -1.532  1.00  0.00     0.048 A 
HETATM   20  C   UNL     1      38.635 -14.069  -2.576  1.00  0.00     0.102 A 
HETATM   21  C   UNL     1      38.830 -15.107  -3.489  1.00  0.00     0.102 A 
HETATM   22  O   UNL     1      37.576 -13.203  -2.635  1.00  0.00    -0.346 OA
HETATM   23  O   UNL     1      37.963 -15.377  -4.513  1.00  0.00    -0.346 OA
HETATM   24  C   UNL     1      39.954 -15.921  -3.387  1.00  0.00     0.040 A 
HETATM   25  C   UNL     1      36.695 -14.740  -4.306  1.00  0.00     0.202 C 
HETATM   26  C   UNL     1      36.889 -13.290  -3.893  1.00  0.00     0.202 C 
HETATM   27  C   UNL     1      40.873 -15.721  -2.352  1.00  0.00     0.012 A 
ENDBRANCH  17  18
ENDBRANCH   1  17
TORSDOF 5
ENDMDL
MODEL 6
REMARK VINA RESULT:      -7.2      4.965      7.272
REMARK  5 active torsions:
REMARK  status: ('A' for Active; 'I' for Inactive)
REMARK    1  A    between atoms: C_2  and  C_3 
REMARK    2  A    between atoms: C_3  and  N_4 
REMARK    3  A    between atoms: C_3  and  C_18 
REMARK    4  A    between atoms: N_4  and  C_7 
REMARK    5  A    between atoms: C_7  and  C_8 
ROOT
HETATM    1  N   UNL     1      40.346 -16.431   2.945  1.00  0.00    -0.056 N 
HETATM    2  H   UNL     1      40.660 -16.811   2.042  1.00  0.00     0.278 HD
HETATM    3  H   UNL     1      39.583 -17.034   3.271  1.00  0.00     0.278 HD
ENDROOT
BRANCH   1   4
HETATM    4  C   UNL     1      41.511 -16.529   3.888  1.00  0.00     0.292 C 
BRANCH   4   5
HETATM    5  C   UNL     1      42.381 -17.731   3.562  1.00  0.00    -0.020 A 
HETATM    6  C   UNL     1      43.302 -18.266   4.486  1.00  0.00     0.011 A 
HETATM    7  C   UNL     1      44.096 -19.367   4.147  1.00  0.00     0.024 A 
HETATM    8  C   UNL     1      43.984 -19.945   2.886  1.00  0.00     0.034 A 
HETATM    9  C   UNL     1      43.080 -19.433   1.959  1.00  0.00     0.024 A 
HETATM   10 CL   UNL     1      44.962 -21.297   2.475  1.00  0.00    -0.084 Cl
HETATM   11  C   UNL     1      42.284 -18.334   2.293  1.00  0.00     0.011 A 
ENDBRANCH   4   5
BRANCH   4  12
HETATM   12  C   UNL     1      42.419 -15.335   3.823  1.00  0.00     0.190 A 
HETATM   13  N   UNL     1      43.290 -15.127   2.829  1.00  0.00    -0.109 NA
HETATM   14  O   UNL     1      43.940 -13.952   3.220  1.00  0.00    -0.205 OA
HETATM   15  C   UNL     1      43.421 -13.607   4.428  1.00  0.00     0.288 A 
HETATM   16  N   UNL     1      42.506 -14.440   4.871  1.00  0.00    -0.215 NA
ENDBRANCH   4  12
ENDBRANCH   1   4
BRANCH   1  17
HETATM   17  C   UNL     1      39.846 -15.053   2.714  1.00  0.00     0.272 C 
BRANCH  17  18
HETATM   18  C   UNL     1      39.792 -14.749   1.245  1.00  0.00    -0.030 A 
HETATM   19  C   UNL     1      38.768 -13.936   0.730  1.00  0.00     0.048 A 
HETATM   20  C   UNL     1      38.737 -13.617  -0.627  1.00  0.00     0.102 A 
HETATM   21  C   UNL     1      39.708 -14.128  -1.489  1.00  0.00     0.102 A 
HETATM   22  O   UNL     1      37.717 -12.802  -1.040  1.00  0.00    -0.346 OA
HETATM   23  O   UNL     1      39.715 -13.888  -2.837  1.00  0.00    -0.346 OA
HETATM   24  C   UNL     1      40.738 -14.919  -0.987  1.00  0.00     0.040 A 
HETATM   25  C   UNL     1      38.447 -13.394  -3.287  1.00  0.00     0.202 C 
HETATM   26  C   UNL     1      37.946 -12.295  -2.364  1.00  0.00     0.202 C 
HETATM   27  C   UNL     1      40.784 -15.227   0.375  1.00  0.00     0.012 A 
ENDBRANCH  17  18
ENDBRANCH   1  17
TORSDOF 5
ENDMDL
MODEL 7
REMARK VINA RESULT:      -7.1      3.731      5.169
REMARK  5 active torsions:
REMARK  status: ('A' for Active; 'I' for Inactive)
REMARK    1  A    between atoms: C_2  and  C_3 
REMARK    2  A    between atoms: C_3  and  N_4 
REMARK    3  A    between atoms: C_3  and  C_18 
REMARK    4  A    between atoms: N_4  and  C_7 
REMARK    5  A    between atoms: C_7  and  C_8 
ROOT
HETATM    1  N   UNL     1      41.104 -15.546   1.089  1.00  0.00    -0.056 N 
HETATM    2  H   UNL     1      40.528 -15.576   0.237  1.00  0.00     0.278 HD
HETATM    3  H   UNL     1      42.055 -15.811   0.812  1.00  0.00     0.278 HD
ENDROOT
BRANCH   1   4
HETATM    4  C   UNL     1      41.092 -14.124   1.572  1.00  0.00     0.292 C 
BRANCH   4   5
HETATM    5  C   UNL     1      41.806 -13.993   2.907  1.00  0.00    -0.020 A 
HETATM    6  C   UNL     1      41.130 -13.623   4.088  1.00  0.00     0.011 A 
HETATM    7  C   UNL     1      41.821 -13.500   5.298  1.00  0.00     0.024 A 
HETATM    8  C   UNL     1      43.190 -13.742   5.346  1.00  0.00     0.034 A 
HETATM    9  C   UNL     1      43.877 -14.109   4.192  1.00  0.00     0.024 A 
HETATM   10 CL   UNL     1      44.035 -13.589   6.835  1.00  0.00    -0.084 Cl
HETATM   11  C   UNL     1      43.191 -14.234   2.980  1.00  0.00     0.011 A 
ENDBRANCH   4   5
BRANCH   4  12
HETATM   12  C   UNL     1      41.795 -13.182   0.637  1.00  0.00     0.190 A 
HETATM   13  N   UNL     1      42.334 -12.022   1.030  1.00  0.00    -0.109 NA
HETATM   14  O   UNL     1      42.810 -11.475  -0.166  1.00  0.00    -0.205 OA
HETATM   15  C   UNL     1      42.466 -12.344  -1.152  1.00  0.00     0.288 A 
HETATM   16  N   UNL     1      41.805 -13.397  -0.726  1.00  0.00    -0.215 NA
ENDBRANCH   4  12
ENDBRANCH   1   4
BRANCH   1  17
HETATM   17  C   UNL     1      40.555 -16.535   2.050  1.00  0.00     0.272 C 
BRANCH  17  18
HETATM   18  C   UNL     1      41.638 -17.451   2.541  1.00  0.00    -0.030 A 
HETATM   19  C   UNL     1      41.854 -17.611   3.920  1.00  0.00     0.048 A 
HETATM   20  C   UNL     1      42.831 -18.493   4.383  1.00  0.00     0.102 A 
HETATM   21  C   UNL     1      43.621 -19.201   3.476  1.00  0.00     0.102 A 
HETATM   22  O   UNL     1      42.960 -18.604   5.741  1.00  0.00    -0.346 OA
HETATM   23  O   UNL     1      44.623 -20.052   3.860  1.00  0.00    -0.346 OA
HETATM   24  C   UNL     1      43.404 -19.064   2.108  1.00  0.00     0.040 A 
HETATM   25  C   UNL     1      44.996 -19.837   5.227  1.00  0.00     0.202 C 
HETATM   26  C   UNL     1      43.761 -19.738   6.107  1.00  0.00     0.202 C 
HETATM   27  C   UNL     1      42.414 -18.195   1.639  1.00  0.00     0.012 A 
ENDBRANCH  17  18
ENDBRANCH   1  17
TORSDOF 5
ENDMDL
MODEL 8
REMARK VINA RESULT:      -7.0      4.066      7.575
REMARK  5 active torsions:
REMARK  status: ('A' for Active; 'I' for Inactive)
REMARK    1  A    between atoms: C_2  and  C_3 
REMARK    2  A    between atoms: C_3  and  N_4 
REMARK    3  A    between atoms: C_3  and  C_18 
REMARK    4  A    between atoms: N_4  and  C_7 
REMARK    5  A    between atoms: C_7  and  C_8 
ROOT
HETATM    1  N   UNL     1      43.211 -16.133   4.670  1.00  0.00    -0.056 N 
HETATM    2  H   UNL     1      42.234 -16.310   4.939  1.00  0.00     0.278 HD
HETATM    3  H   UNL     1      43.796 -16.718   5.278  1.00  0.00     0.278 HD
ENDROOT
BRANCH   1   4
HETATM    4  C   UNL     1      43.357 -16.577   3.243  1.00  0.00     0.292 C 
BRANCH   4   5
HETATM    5  C   UNL     1      43.669 -18.063   3.160  1.00  0.00    -0.020 A 
HETATM    6  C   UNL     1      43.446 -18.814   1.988  1.00  0.00     0.011 A 
HETATM    7  C   UNL     1      43.733 -20.182   1.951  1.00  0.00     0.024 A 
HETATM    8  C   UNL     1      44.244 -20.817   3.078  1.00  0.00     0.034 A 
HETATM    9  C   UNL     1      44.474 -20.094   4.246  1.00  0.00     0.024 A 
HETATM   10 CL   UNL     1      44.595 -22.498   3.028  1.00  0.00    -0.084 Cl
HETATM   11  C   UNL     1      44.189 -18.726   4.288  1.00  0.00     0.011 A 
ENDBRANCH   4   5
BRANCH   4  12
HETATM   12  C   UNL     1      42.107 -16.375   2.436  1.00  0.00     0.190 A 
HETATM   13  N   UNL     1      42.078 -15.696   1.283  1.00  0.00    -0.109 NA
HETATM   14  O   UNL     1      40.723 -15.719   0.938  1.00  0.00    -0.205 OA
HETATM   15  C   UNL     1      40.080 -16.371   1.942  1.00  0.00     0.288 A 
HETATM   16  N   UNL     1      40.872 -16.766   2.913  1.00  0.00    -0.215 NA
ENDBRANCH   4  12
ENDBRANCH   1   4
BRANCH   1  17
HETATM   17  C   UNL     1      43.501 -14.697   4.908  1.00  0.00     0.272 C 
BRANCH  17  18
HETATM   18  C   UNL     1      42.228 -13.906   4.979  1.00  0.00    -0.030 A 
HETATM   19  C   UNL     1      42.147 -12.644   4.368  1.00  0.00     0.048 A 
HETATM   20  C   UNL     1      40.954 -11.922   4.396  1.00  0.00     0.102 A 
HETATM   21  C   UNL     1      39.838 -12.438   5.057  1.00  0.00     0.102 A 
HETATM   22  O   UNL     1      40.957 -10.711   3.757  1.00  0.00    -0.346 OA
HETATM   23  O   UNL     1      38.649 -11.767   5.156  1.00  0.00    -0.346 OA
HETATM   24  C   UNL     1      39.901 -13.696   5.649  1.00  0.00     0.040 A 
HETATM   25  C   UNL     1      38.806 -10.376   4.850  1.00  0.00     0.202 C 
HETATM   26  C   UNL     1      39.627 -10.200   3.582  1.00  0.00     0.202 C 
HETATM   27  C   UNL     1      41.089 -14.431   5.610  1.00  0.00     0.012 A 
ENDBRANCH  17  18
ENDBRANCH   1  17
TORSDOF 5
ENDMDL
MODEL 9
REMARK VINA RESULT:      -7.0      2.030      3.177
REMARK  5 active torsions:
REMARK  status: ('A' for Active; 'I' for Inactive)
REMARK    1  A    between atoms: C_2  and  C_3 
REMARK    2  A    between atoms: C_3  and  N_4 
REMARK    3  A    between atoms: C_3  and  C_18 
REMARK    4  A    between atoms: N_4  and  C_7 
REMARK    5  A    between atoms: C_7  and  C_8 
ROOT
HETATM    1  N   UNL     1      42.751 -16.232   3.799  1.00  0.00    -0.056 N 
HETATM    2  H   UNL     1      42.885 -16.826   4.628  1.00  0.00     0.278 HD
HETATM    3  H   UNL     1      41.744 -16.216   3.605  1.00  0.00     0.278 HD
ENDROOT
BRANCH   1   4
HETATM    4  C   UNL     1      43.220 -14.854   4.171  1.00  0.00     0.292 C 
BRANCH   4   5
HETATM    5  C   UNL     1      42.065 -13.865   4.175  1.00  0.00    -0.020 A 
HETATM    6  C   UNL     1      42.084 -12.683   3.408  1.00  0.00     0.011 A 
HETATM    7  C   UNL     1      41.009 -11.789   3.446  1.00  0.00     0.024 A 
HETATM    8  C   UNL     1      39.906 -12.060   4.249  1.00  0.00     0.034 A 
HETATM    9  C   UNL     1      39.866 -13.223   5.014  1.00  0.00     0.024 A 
HETATM   10 CL   UNL     1      38.588 -10.960   4.292  1.00  0.00    -0.084 Cl
HETATM   11  C   UNL     1      40.937 -14.120   4.979  1.00  0.00     0.011 A 
ENDBRANCH   4   5
BRANCH   4  12
HETATM   12  C   UNL     1      43.821 -14.790   5.545  1.00  0.00     0.190 A 
HETATM   13  N   UNL     1      43.597 -15.712   6.488  1.00  0.00    -0.109 NA
HETATM   14  O   UNL     1      44.299 -15.212   7.590  1.00  0.00    -0.205 OA
HETATM   15  C   UNL     1      44.830 -14.022   7.202  1.00  0.00     0.288 A 
HETATM   16  N   UNL     1      44.540 -13.689   5.965  1.00  0.00    -0.215 NA
ENDBRANCH   4  12
ENDBRANCH   1   4
BRANCH   1  17
HETATM   17  C   UNL     1      43.481 -16.854   2.667  1.00  0.00     0.272 C 
BRANCH  17  18
HETATM   18  C   UNL     1      43.811 -18.286   2.973  1.00  0.00    -0.030 A 
HETATM   19  C   UNL     1      43.989 -18.700   4.303  1.00  0.00     0.048 A 
HETATM   20  C   UNL     1      44.255 -20.038   4.595  1.00  0.00     0.102 A 
HETATM   21  C   UNL     1      44.374 -20.970   3.563  1.00  0.00     0.102 A 
HETATM   22  O   UNL     1      44.392 -20.358   5.919  1.00  0.00    -0.346 OA
HETATM   23  O   UNL     1      44.671 -22.289   3.776  1.00  0.00    -0.346 OA
HETATM   24  C   UNL     1      44.181 -20.575   2.243  1.00  0.00     0.040 A 
HETATM   25  C   UNL     1      45.202 -22.500   5.091  1.00  0.00     0.202 C 
HETATM   26  C   UNL     1      44.358 -21.778   6.128  1.00  0.00     0.202 C 
HETATM   27  C   UNL     1      43.897 -19.238   1.946  1.00  0.00     0.012 A 
ENDBRANCH  17  18
ENDBRANCH   1  17
TORSDOF 5
ENDMDL
MODEL 10
REMARK VINA RESULT:      -7.0      3.534      5.115
REMARK  5 active torsions:
REMARK  status: ('A' for Active; 'I' for Inactive)
REMARK    1  A    between atoms: C_2  and  C_3 
REMARK    2  A    between atoms: C_3  and  N_4 
REMARK    3  A    between atoms: C_3  and  C_18 
REMARK    4  A    between atoms: N_4  and  C_7 
REMARK    5  A    between atoms: C_7  and  C_8 
ROOT
HETATM    1  N   UNL     1      43.636 -16.710   2.300  1.00  0.00    -0.056 N 
HETATM    2  H   UNL     1      43.834 -15.906   1.690  1.00  0.00     0.278 HD
HETATM    3  H   UNL     1      44.493 -16.897   2.831  1.00  0.00     0.278 HD
ENDROOT
BRANCH   1   4
HETATM    4  C   UNL     1      42.540 -16.288   3.236  1.00  0.00     0.292 C 
BRANCH   4   5
HETATM    5  C   UNL     1      43.103 -15.577   4.455  1.00  0.00    -0.020 A 
HETATM    6  C   UNL     1      43.497 -14.224   4.422  1.00  0.00     0.011 A 
HETATM    7  C   UNL     1      44.023 -13.605   5.560  1.00  0.00     0.024 A 
HETATM    8  C   UNL     1      44.165 -14.324   6.742  1.00  0.00     0.034 A 
HETATM    9  C   UNL     1      43.781 -15.661   6.798  1.00  0.00     0.024 A 
HETATM   10 CL   UNL     1      44.811 -13.559   8.138  1.00  0.00    -0.084 Cl
HETATM   11  C   UNL     1      43.253 -16.285   5.663  1.00  0.00     0.011 A 
ENDBRANCH   4   5
BRANCH   4  12
HETATM   12  C   UNL     1      41.573 -15.325   2.609  1.00  0.00     0.190 A 
HETATM   13  N   UNL     1      40.319 -15.154   3.044  1.00  0.00    -0.109 NA
HETATM   14  O   UNL     1      39.795 -14.227   2.138  1.00  0.00    -0.205 OA
HETATM   15  C   UNL     1      40.776 -13.976   1.232  1.00  0.00     0.288 A 
HETATM   16  N   UNL     1      41.883 -14.650   1.446  1.00  0.00    -0.215 NA
ENDBRANCH   4  12
ENDBRANCH   1   4
BRANCH   1  17
HETATM   17  C   UNL     1      43.305 -17.870   1.436  1.00  0.00     0.272 C 
BRANCH  17  18
HETATM   18  C   UNL     1      43.697 -19.156   2.105  1.00  0.00    -0.030 A 
HETATM   19  C   UNL     1      43.952 -19.183   3.486  1.00  0.00     0.048 A 
HETATM   20  C   UNL     1      44.276 -20.383   4.119  1.00  0.00     0.102 A 
HETATM   21  C   UNL     1      44.376 -21.561   3.378  1.00  0.00     0.102 A 
HETATM   22  O   UNL     1      44.488 -20.323   5.471  1.00  0.00    -0.346 OA
HETATM   23  O   UNL     1      44.727 -22.765   3.928  1.00  0.00    -0.346 OA
HETATM   24  C   UNL     1      44.106 -21.550   2.013  1.00  0.00     0.040 A 
HETATM   25  C   UNL     1      45.328 -22.595   5.219  1.00  0.00     0.202 C 
HETATM   26  C   UNL     1      44.511 -21.630   6.063  1.00  0.00     0.202 C 
HETATM   27  C   UNL     1      43.765 -20.353   1.376  1.00  0.00     0.012 A 
ENDBRANCH  17  18
ENDBRANCH   1  17
TORSDOF 5
ENDMDL
