MODEL 1
REMARK VINA RESULT:      -9.0      0.000      0.000
REMARK  7 active torsions:
REMARK  status: ('A' for Active; 'I' for Inactive)
REMARK    1  A    between atoms: C_2  and  C_3 
REMARK    2  A    between atoms: C_3  and  C_4 
REMARK       I    between atoms: C_4  and  N_5 
REMARK    3  A    between atoms: N_8  and  C_9 
REMARK    4  A    between atoms: C_12  and  N_13 
REMARK    5  A    between atoms: N_13  and  C_14 
REMARK    6  A    between atoms: C_14  and  N_15 
REMARK       I    between atoms: N_15  and  C_16 
REMARK    7  A    between atoms: C_16  and  C_17 
ROOT
HETATM    1  N   UNL     1      42.370 -13.610   5.995  1.00  0.00    -0.333 N 
HETATM    2  H   UNL     1      42.172 -12.881   6.681  1.00  0.00     0.168 HD
ENDROOT
BRANCH   1   3
HETATM    3  C   UNL     1      41.692 -13.483   4.761  1.00  0.00     0.034 C 
HETATM    4  C   UNL     1      40.463 -14.077   4.500  1.00  0.00     0.032 C 
HETATM    5  C   UNL     1      39.941 -14.094   3.204  1.00  0.00     0.031 C 
HETATM    6  C   UNL     1      40.620 -13.509   2.129  1.00  0.00     0.030 C 
HETATM    7  C   UNL     1      41.773 -12.774   2.439  1.00  0.00     0.031 C 
HETATM    8  C   UNL     1      42.299 -12.749   3.742  1.00  0.00     0.032 C 
BRANCH   6   9
HETATM    9  N   UNL     1      40.259 -13.737   0.803  1.00  0.00    -0.378 N 
HETATM   10  C   UNL     1      41.295 -14.198  -0.140  1.00  0.00     0.143 C 
HETATM   11  C   UNL     1      40.640 -14.863  -1.373  1.00  0.00     0.145 C 
HETATM   12  N   UNL     1      39.530 -14.094  -1.960  1.00  0.00    -0.349 N 
HETATM   13  C   UNL     1      39.155 -14.403  -3.269  1.00  0.00     0.219 C 
HETATM   14  C   UNL     1      38.587 -13.523  -0.992  1.00  0.00     0.145 C 
HETATM   15  O   UNL     1      39.842 -15.122  -3.993  1.00  0.00    -0.273 OA
HETATM   16  C   UNL     1      39.281 -12.827   0.184  1.00  0.00     0.143 C 
BRANCH  13  17
HETATM   17  C   UNL     1      37.851 -13.782  -3.761  1.00  0.00     0.103 C 
BRANCH  17  18
HETATM   18  C   UNL     1      36.786 -14.818  -4.111  1.00  0.00     0.005 C 
HETATM   19  C   UNL     1      35.617 -14.173  -4.841  1.00  0.00     0.005 C 
ENDBRANCH  17  18
ENDBRANCH  13  17
ENDBRANCH   6   9
ENDBRANCH   1   3
BRANCH   1  20
HETATM   20  C   UNL     1      43.478 -14.376   6.291  1.00  0.00     0.179 C 
HETATM   21  S   UNL     1      44.755 -14.058   7.330  1.00  0.00    -0.040 SA
BRANCH  20  22
HETATM   22  N   UNL     1      43.532 -15.618   5.691  1.00  0.00    -0.299 N 
HETATM   23  C   UNL     1      43.144 -16.873   6.143  1.00  0.00     0.266 C 
HETATM   24  O   UNL     1      42.588 -17.016   7.232  1.00  0.00    -0.267 OA
HETATM   25  H   UNL     1      43.998 -15.579   4.794  1.00  0.00     0.171 HD
BRANCH  23  26
HETATM   26  C   UNL     1      43.437 -17.964   5.221  1.00  0.00     0.096 A 
HETATM   27  S   UNL     1      44.389 -19.272   5.782  1.00  0.00    -0.082 SA
HETATM   28  C   UNL     1      44.266 -20.127   4.296  1.00  0.00     0.017 A 
HETATM   29  C   UNL     1      43.532 -19.407   3.352  1.00  0.00     0.004 A 
HETATM   30  C   UNL     1      44.815 -21.390   3.998  1.00  0.00     0.020 A 
HETATM   31  C   UNL     1      43.073 -18.157   3.900  1.00  0.00     0.068 A 
HETATM   32  C   UNL     1      43.357 -19.987   2.066  1.00  0.00     0.014 A 
HETATM   33 CL   UNL     1      42.164 -17.053   2.938  1.00  0.00    -0.082 Cl
HETATM   34  C   UNL     1      43.899 -21.239   1.767  1.00  0.00     0.001 A 
HETATM   35  C   UNL     1      44.619 -21.934   2.727  1.00  0.00     0.001 A 
ENDBRANCH  23  26
ENDBRANCH  20  22
ENDBRANCH   1  20
TORSDOF 7
ENDMDL
MODEL 2
REMARK VINA RESULT:      -8.7      5.844     10.066
REMARK  7 active torsions:
REMARK  status: ('A' for Active; 'I' for Inactive)
REMARK    1  A    between atoms: C_2  and  C_3 
REMARK    2  A    between atoms: C_3  and  C_4 
REMARK       I    between atoms: C_4  and  N_5 
REMARK    3  A    between atoms: N_8  and  C_9 
REMARK    4  A    between atoms: C_12  and  N_13 
REMARK    5  A    between atoms: N_13  and  C_14 
REMARK    6  A    between atoms: C_14  and  N_15 
REMARK       I    between atoms: N_15  and  C_16 
REMARK    7  A    between atoms: C_16  and  C_17 
ROOT
HETATM    1  N   UNL     1      40.142 -11.382   6.544  1.00  0.00    -0.333 N 
HETATM    2  H   UNL     1      39.128 -11.266   6.535  1.00  0.00     0.168 HD
ENDROOT
BRANCH   1   3
HETATM    3  C   UNL     1      40.622 -12.580   5.969  1.00  0.00     0.034 C 
HETATM    4  C   UNL     1      39.845 -13.723   5.822  1.00  0.00     0.032 C 
HETATM    5  C   UNL     1      40.426 -14.936   5.443  1.00  0.00     0.031 C 
HETATM    6  C   UNL     1      41.796 -15.047   5.184  1.00  0.00     0.030 C 
HETATM    7  C   UNL     1      42.533 -13.854   5.175  1.00  0.00     0.031 C 
HETATM    8  C   UNL     1      41.952 -12.630   5.550  1.00  0.00     0.032 C 
BRANCH   6   9
HETATM    9  N   UNL     1      42.438 -16.278   5.063  1.00  0.00    -0.378 N 
HETATM   10  C   UNL     1      42.976 -16.913   6.280  1.00  0.00     0.143 C 
HETATM   11  C   UNL     1      43.179 -18.429   6.049  1.00  0.00     0.145 C 
HETATM   12  N   UNL     1      43.863 -18.764   4.789  1.00  0.00    -0.349 N 
HETATM   13  C   UNL     1      44.433 -20.035   4.686  1.00  0.00     0.219 C 
HETATM   14  C   UNL     1      43.407 -18.015   3.613  1.00  0.00     0.145 C 
HETATM   15  O   UNL     1      44.562 -20.775   5.660  1.00  0.00    -0.273 OA
HETATM   16  C   UNL     1      43.273 -16.511   3.874  1.00  0.00     0.143 C 
BRANCH  13  17
HETATM   17  C   UNL     1      44.904 -20.451   3.296  1.00  0.00     0.103 C 
BRANCH  17  18
HETATM   18  C   UNL     1      44.470 -21.863   2.910  1.00  0.00     0.005 C 
HETATM   19  C   UNL     1      43.937 -21.901   1.485  1.00  0.00     0.005 C 
ENDBRANCH  17  18
ENDBRANCH  13  17
ENDBRANCH   6   9
ENDBRANCH   1   3
BRANCH   1  20
HETATM   20  C   UNL     1      40.839 -10.225   6.825  1.00  0.00     0.179 C 
HETATM   21  S   UNL     1      41.320  -8.988   5.800  1.00  0.00    -0.040 SA
BRANCH  20  22
HETATM   22  N   UNL     1      41.149 -10.013   8.153  1.00  0.00    -0.299 N 
HETATM   23  C   UNL     1      42.251 -10.393   8.910  1.00  0.00     0.266 C 
HETATM   24  O   UNL     1      43.208 -10.974   8.398  1.00  0.00    -0.267 OA
HETATM   25  H   UNL     1      40.393  -9.554   8.644  1.00  0.00     0.171 HD
BRANCH  23  26
HETATM   26  C   UNL     1      42.168 -10.030  10.320  1.00  0.00     0.096 A 
HETATM   27  S   UNL     1      40.704  -9.361  10.904  1.00  0.00    -0.082 SA
HETATM   28  C   UNL     1      41.280  -9.259  12.520  1.00  0.00     0.017 A 
HETATM   29  C   UNL     1      42.601  -9.698  12.619  1.00  0.00     0.004 A 
HETATM   30  C   UNL     1      40.569  -8.796  13.645  1.00  0.00     0.020 A 
HETATM   31  C   UNL     1      43.100 -10.128  11.338  1.00  0.00     0.068 A 
HETATM   32  C   UNL     1      43.218  -9.660  13.899  1.00  0.00     0.014 A 
HETATM   33 CL   UNL     1      44.719 -10.693  11.165  1.00  0.00    -0.082 Cl
HETATM   34  C   UNL     1      42.516  -9.203  15.017  1.00  0.00     0.001 A 
HETATM   35  C   UNL     1      41.203  -8.778  14.889  1.00  0.00     0.001 A 
ENDBRANCH  23  26
ENDBRANCH  20  22
ENDBRANCH   1  20
TORSDOF 7
ENDMDL
MODEL 3
REMARK VINA RESULT:      -8.6      4.894      9.200
REMARK  7 active torsions:
REMARK  status: ('A' for Active; 'I' for Inactive)
REMARK    1  A    between atoms: C_2  and  C_3 
REMARK    2  A    between atoms: C_3  and  C_4 
REMARK       I    between atoms: C_4  and  N_5 
REMARK    3  A    between atoms: N_8  and  C_9 
REMARK    4  A    between atoms: C_12  and  N_13 
REMARK    5  A    between atoms: N_13  and  C_14 
REMARK    6  A    between atoms: C_14  and  N_15 
REMARK       I    between atoms: N_15  and  C_16 
REMARK    7  A    between atoms: C_16  and  C_17 
ROOT
HETATM    1  N   UNL     1      39.836 -14.431   4.456  1.00  0.00    -0.333 N 
HETATM    2  H   UNL     1      39.299 -15.185   4.886  1.00  0.00     0.168 HD
ENDROOT
BRANCH   1   3
HETATM    3  C   UNL     1      40.111 -13.327   5.295  1.00  0.00     0.034 C 
HETATM    4  C   UNL     1      41.347 -12.693   5.344  1.00  0.00     0.032 C 
HETATM    5  C   UNL     1      41.624 -11.749   6.336  1.00  0.00     0.031 C 
HETATM    6  C   UNL     1      40.675 -11.395   7.302  1.00  0.00     0.030 C 
HETATM    7  C   UNL     1      39.385 -11.920   7.137  1.00  0.00     0.031 C 
HETATM    8  C   UNL     1      39.099 -12.865   6.137  1.00  0.00     0.032 C 
BRANCH   6   9
HETATM    9  N   UNL     1      41.005 -10.666   8.443  1.00  0.00    -0.378 N 
HETATM   10  C   UNL     1      40.342  -9.367   8.664  1.00  0.00     0.143 C 
HETATM   11  C   UNL     1      40.434  -8.965  10.155  1.00  0.00     0.145 C 
HETATM   12  N   UNL     1      41.776  -9.113  10.742  1.00  0.00    -0.349 N 
HETATM   13  C   UNL     1      42.041  -8.419  11.924  1.00  0.00     0.219 C 
HETATM   14  C   UNL     1      42.477 -10.355  10.391  1.00  0.00     0.145 C 
HETATM   15  O   UNL     1      41.285  -7.550  12.354  1.00  0.00    -0.273 OA
HETATM   16  C   UNL     1      42.405 -10.683   8.896  1.00  0.00     0.143 C 
BRANCH  13  17
HETATM   17  C   UNL     1      43.333  -8.786  12.646  1.00  0.00     0.103 C 
BRANCH  17  18
HETATM   18  C   UNL     1      43.113  -9.225  14.091  1.00  0.00     0.005 C 
HETATM   19  C   UNL     1      42.209 -10.448  14.159  1.00  0.00     0.005 C 
ENDBRANCH  17  18
ENDBRANCH  13  17
ENDBRANCH   6   9
ENDBRANCH   1   3
BRANCH   1  20
HETATM   20  C   UNL     1      40.443 -14.777   3.267  1.00  0.00     0.179 C 
HETATM   21  S   UNL     1      40.445 -13.978   1.792  1.00  0.00    -0.040 SA
BRANCH  20  22
HETATM   22  N   UNL     1      41.212 -15.923   3.292  1.00  0.00    -0.299 N 
HETATM   23  C   UNL     1      42.571 -16.111   3.513  1.00  0.00     0.266 C 
HETATM   24  O   UNL     1      43.306 -15.169   3.808  1.00  0.00    -0.267 OA
HETATM   25  H   UNL     1      40.672 -16.740   3.038  1.00  0.00     0.171 HD
BRANCH  23  26
HETATM   26  C   UNL     1      43.017 -17.494   3.383  1.00  0.00     0.096 A 
HETATM   27  S   UNL     1      42.573 -18.364   1.977  1.00  0.00    -0.082 SA
HETATM   28  C   UNL     1      43.438 -19.770   2.455  1.00  0.00     0.017 A 
HETATM   29  C   UNL     1      44.040 -19.600   3.702  1.00  0.00     0.004 A 
HETATM   30  C   UNL     1      43.561 -20.974   1.733  1.00  0.00     0.020 A 
HETATM   31  C   UNL     1      43.775 -18.285   4.227  1.00  0.00     0.068 A 
HETATM   32  C   UNL     1      44.782 -20.688   4.234  1.00  0.00     0.014 A 
HETATM   33 CL   UNL     1      44.376 -17.815   5.773  1.00  0.00    -0.082 Cl
HETATM   34  C   UNL     1      44.908 -21.883   3.522  1.00  0.00     0.001 A 
HETATM   35  C   UNL     1      44.304 -22.022   2.282  1.00  0.00     0.001 A 
ENDBRANCH  23  26
ENDBRANCH  20  22
ENDBRANCH   1  20
TORSDOF 7
ENDMDL
MODEL 4
REMARK VINA RESULT:      -8.6      4.706      9.039
REMARK  7 active torsions:
REMARK  status: ('A' for Active; 'I' for Inactive)
REMARK    1  A    between atoms: C_2  and  C_3 
REMARK    2  A    between atoms: C_3  and  C_4 
REMARK       I    between atoms: C_4  and  N_5 
REMARK    3  A    between atoms: N_8  and  C_9 
REMARK    4  A    between atoms: C_12  and  N_13 
REMARK    5  A    between atoms: N_13  and  C_14 
REMARK    6  A    between atoms: C_14  and  N_15 
REMARK       I    between atoms: N_15  and  C_16 
REMARK    7  A    between atoms: C_16  and  C_17 
ROOT
HETATM    1  N   UNL     1      40.061 -14.000   3.688  1.00  0.00    -0.333 N 
HETATM    2  H   UNL     1      39.300 -14.662   3.846  1.00  0.00     0.168 HD
ENDROOT
BRANCH   1   3
HETATM    3  C   UNL     1      40.209 -12.998   4.674  1.00  0.00     0.034 C 
HETATM    4  C   UNL     1      41.233 -12.058   4.661  1.00  0.00     0.032 C 
HETATM    5  C   UNL     1      41.454 -11.229   5.764  1.00  0.00     0.031 C 
HETATM    6  C   UNL     1      40.653 -11.300   6.910  1.00  0.00     0.030 C 
HETATM    7  C   UNL     1      39.528 -12.134   6.839  1.00  0.00     0.031 C 
HETATM    8  C   UNL     1      39.298 -12.965   5.730  1.00  0.00     0.032 C 
BRANCH   6   9
HETATM    9  N   UNL     1      41.005 -10.683   8.108  1.00  0.00    -0.378 N 
HETATM   10  C   UNL     1      40.395  -9.381   8.436  1.00  0.00     0.143 C 
HETATM   11  C   UNL     1      40.494  -9.108   9.955  1.00  0.00     0.145 C 
HETATM   12  N   UNL     1      41.826  -9.360  10.530  1.00  0.00    -0.349 N 
HETATM   13  C   UNL     1      42.112  -8.777  11.767  1.00  0.00     0.219 C 
HETATM   14  C   UNL     1      42.478 -10.595  10.079  1.00  0.00     0.145 C 
HETATM   15  O   UNL     1      41.390  -7.917  12.267  1.00  0.00    -0.273 OA
HETATM   16  C   UNL     1      42.401 -10.795   8.562  1.00  0.00     0.143 C 
BRANCH  13  17
HETATM   17  C   UNL     1      43.385  -9.256  12.458  1.00  0.00     0.103 C 
BRANCH  17  18
HETATM   18  C   UNL     1      43.276  -9.264  13.981  1.00  0.00     0.005 C 
HETATM   19  C   UNL     1      42.281 -10.313  14.453  1.00  0.00     0.005 C 
ENDBRANCH  17  18
ENDBRANCH  13  17
ENDBRANCH   6   9
ENDBRANCH   1   3
BRANCH   1  20
HETATM   20  C   UNL     1      40.968 -14.402   2.730  1.00  0.00     0.179 C 
HETATM   21  S   UNL     1      41.374 -13.684   1.270  1.00  0.00    -0.040 SA
BRANCH  20  22
HETATM   22  N   UNL     1      41.698 -15.535   3.026  1.00  0.00    -0.299 N 
HETATM   23  C   UNL     1      42.949 -15.693   3.611  1.00  0.00     0.266 C 
HETATM   24  O   UNL     1      43.584 -14.727   4.032  1.00  0.00    -0.267 OA
HETATM   25  H   UNL     1      41.242 -16.372   2.689  1.00  0.00     0.171 HD
BRANCH  23  26
HETATM   26  C   UNL     1      43.408 -17.076   3.687  1.00  0.00     0.096 A 
HETATM   27  S   UNL     1      43.765 -17.731   5.228  1.00  0.00    -0.082 SA
HETATM   28  C   UNL     1      44.145 -19.281   4.589  1.00  0.00     0.017 A 
HETATM   29  C   UNL     1      44.039 -19.299   3.197  1.00  0.00     0.004 A 
HETATM   30  C   UNL     1      44.527 -20.426   5.316  1.00  0.00     0.020 A 
HETATM   31  C   UNL     1      43.625 -18.015   2.694  1.00  0.00     0.068 A 
HETATM   32  C   UNL     1      44.337 -20.516   2.526  1.00  0.00     0.014 A 
HETATM   33 CL   UNL     1      43.444 -17.747   1.001  1.00  0.00    -0.082 Cl
HETATM   34  C   UNL     1      44.715 -21.654   3.243  1.00  0.00     0.001 A 
HETATM   35  C   UNL     1      44.807 -21.608   4.625  1.00  0.00     0.001 A 
ENDBRANCH  23  26
ENDBRANCH  20  22
ENDBRANCH   1  20
TORSDOF 7
ENDMDL
MODEL 5
REMARK VINA RESULT:      -8.1      5.162      8.169
REMARK  7 active torsions:
REMARK  status: ('A' for Active; 'I' for Inactive)
REMARK    1  A    between atoms: C_2  and  C_3 
REMARK    2  A    between atoms: C_3  and  C_4 
REMARK       I    between atoms: C_4  and  N_5 
REMARK    3  A    between atoms: N_8  and  C_9 
REMARK    4  A    between atoms: C_12  and  N_13 
REMARK    5  A    between atoms: N_13  and  C_14 
REMARK    6  A    between atoms: C_14  and  N_15 
REMARK       I    between atoms: N_15  and  C_16 
REMARK    7  A    between atoms: C_16  and  C_17 
ROOT
HETATM    1  N   UNL     1      41.689 -12.509   6.590  1.00  0.00    -0.333 N 
HETATM    2  H   UNL     1      41.503 -13.128   7.380  1.00  0.00     0.168 HD
ENDROOT
BRANCH   1   3
HETATM    3  C   UNL     1      41.740 -13.138   5.325  1.00  0.00     0.034 C 
HETATM    4  C   UNL     1      42.865 -13.125   4.509  1.00  0.00     0.032 C 
HETATM    5  C   UNL     1      42.793 -13.577   3.188  1.00  0.00     0.031 C 
HETATM    6  C   UNL     1      41.602 -14.070   2.643  1.00  0.00     0.030 C 
HETATM    7  C   UNL     1      40.525 -14.229   3.527  1.00  0.00     0.031 C 
HETATM    8  C   UNL     1      40.594 -13.781   4.857  1.00  0.00     0.032 C 
BRANCH   6   9
HETATM    9  N   UNL     1      41.436 -14.277   1.276  1.00  0.00    -0.378 N 
HETATM   10  C   UNL     1      41.490 -13.111   0.374  1.00  0.00     0.143 C 
HETATM   11  C   UNL     1      41.791 -13.565  -1.073  1.00  0.00     0.145 C 
HETATM   12  N   UNL     1      40.975 -14.701  -1.535  1.00  0.00    -0.349 N 
HETATM   13  C   UNL     1      40.892 -14.914  -2.912  1.00  0.00     0.219 C 
HETATM   14  C   UNL     1      40.816 -15.790  -0.565  1.00  0.00     0.145 C 
HETATM   15  O   UNL     1      41.288 -14.083  -3.728  1.00  0.00    -0.273 OA
HETATM   16  C   UNL     1      40.465 -15.295   0.842  1.00  0.00     0.143 C 
BRANCH  13  17
HETATM   17  C   UNL     1      40.262 -16.232  -3.353  1.00  0.00     0.103 C 
BRANCH  17  18
HETATM   18  C   UNL     1      39.040 -16.046  -4.250  1.00  0.00     0.005 C 
HETATM   19  C   UNL     1      37.954 -15.254  -3.537  1.00  0.00     0.005 C 
ENDBRANCH  17  18
ENDBRANCH  13  17
ENDBRANCH   6   9
ENDBRANCH   1   3
BRANCH   1  20
HETATM   20  C   UNL     1      41.541 -11.169   6.877  1.00  0.00     0.179 C 
HETATM   21  S   UNL     1      41.144  -9.893   5.863  1.00  0.00    -0.040 SA
BRANCH  20  22
HETATM   22  N   UNL     1      41.684 -10.814   8.203  1.00  0.00    -0.299 N 
HETATM   23  C   UNL     1      42.789 -10.838   9.045  1.00  0.00     0.266 C 
HETATM   24  O   UNL     1      43.903 -11.157   8.628  1.00  0.00    -0.267 OA
HETATM   25  H   UNL     1      40.798 -10.558   8.618  1.00  0.00     0.171 HD
BRANCH  23  26
HETATM   26  C   UNL     1      42.508 -10.444  10.421  1.00  0.00     0.096 A 
HETATM   27  S   UNL     1      41.489  -9.095  10.689  1.00  0.00    -0.082 SA
HETATM   28  C   UNL     1      41.556  -9.260  12.398  1.00  0.00     0.017 A 
HETATM   29  C   UNL     1      42.382 -10.319  12.777  1.00  0.00     0.004 A 
HETATM   30  C   UNL     1      40.894  -8.462  13.352  1.00  0.00     0.020 A 
HETATM   31  C   UNL     1      42.932 -10.982  11.623  1.00  0.00     0.068 A 
HETATM   32  C   UNL     1      42.545 -10.569  14.166  1.00  0.00     0.014 A 
HETATM   33 CL   UNL     1      44.015 -12.311  11.801  1.00  0.00    -0.082 Cl
HETATM   34  C   UNL     1      41.889  -9.782  15.115  1.00  0.00     0.001 A 
HETATM   35  C   UNL     1      41.069  -8.740  14.710  1.00  0.00     0.001 A 
ENDBRANCH  23  26
ENDBRANCH  20  22
ENDBRANCH   1  20
TORSDOF 7
ENDMDL
MODEL 6
REMARK VINA RESULT:      -8.1      2.436      3.644
REMARK  7 active torsions:
REMARK  status: ('A' for Active; 'I' for Inactive)
REMARK    1  A    between atoms: C_2  and  C_3 
REMARK    2  A    between atoms: C_3  and  C_4 
REMARK       I    between atoms: C_4  and  N_5 
REMARK    3  A    between atoms: N_8  and  C_9 
REMARK    4  A    between atoms: C_12  and  N_13 
REMARK    5  A    between atoms: N_13  and  C_14 
REMARK    6  A    between atoms: C_14  and  N_15 
REMARK       I    between atoms: N_15  and  C_16 
REMARK    7  A    between atoms: C_16  and  C_17 
ROOT
HETATM    1  N   UNL     1      40.741 -13.500   2.647  1.00  0.00    -0.333 N 
HETATM    2  H   UNL     1      41.501 -12.827   2.543  1.00  0.00     0.168 HD
ENDROOT
BRANCH   1   3
HETATM    3  C   UNL     1      40.036 -13.810   1.462  1.00  0.00     0.034 C 
HETATM    4  C   UNL     1      40.660 -14.059   0.245  1.00  0.00     0.032 C 
HETATM    5  C   UNL     1      39.913 -14.151  -0.933  1.00  0.00     0.031 C 
HETATM    6  C   UNL     1      38.521 -14.012  -0.935  1.00  0.00     0.030 C 
HETATM    7  C   UNL     1      37.897 -13.926   0.318  1.00  0.00     0.031 C 
HETATM    8  C   UNL     1      38.642 -13.839   1.506  1.00  0.00     0.032 C 
BRANCH   6   9
HETATM    9  N   UNL     1      37.788 -13.838  -2.106  1.00  0.00    -0.378 N 
HETATM   10  C   UNL     1      37.864 -14.881  -3.147  1.00  0.00     0.143 C 
HETATM   11  C   UNL     1      36.649 -14.779  -4.098  1.00  0.00     0.145 C 
HETATM   12  N   UNL     1      36.362 -13.415  -4.572  1.00  0.00    -0.349 N 
HETATM   13  C   UNL     1      35.565 -13.285  -5.711  1.00  0.00     0.219 C 
HETATM   14  C   UNL     1      36.432 -12.370  -3.544  1.00  0.00     0.145 C 
HETATM   15  O   UNL     1      35.287 -14.245  -6.428  1.00  0.00    -0.273 OA
HETATM   16  C   UNL     1      37.679 -12.478  -2.661  1.00  0.00     0.143 C 
BRANCH  13  17
HETATM   17  C   UNL     1      35.071 -11.878  -6.031  1.00  0.00     0.103 C 
BRANCH  17  18
HETATM   18  C   UNL     1      33.551 -11.747  -5.981  1.00  0.00     0.005 C 
HETATM   19  C   UNL     1      32.958 -11.726  -7.383  1.00  0.00     0.005 C 
ENDBRANCH  17  18
ENDBRANCH  13  17
ENDBRANCH   6   9
ENDBRANCH   1   3
BRANCH   1  20
HETATM   20  C   UNL     1      40.763 -14.195   3.838  1.00  0.00     0.179 C 
HETATM   21  S   UNL     1      39.903 -13.926   5.253  1.00  0.00    -0.040 SA
BRANCH  20  22
HETATM   22  N   UNL     1      41.569 -15.315   3.870  1.00  0.00    -0.299 N 
HETATM   23  C   UNL     1      42.866 -15.525   3.418  1.00  0.00     0.266 C 
HETATM   24  O   UNL     1      43.533 -14.607   2.943  1.00  0.00    -0.267 OA
HETATM   25  H   UNL     1      41.075 -16.120   4.234  1.00  0.00     0.171 HD
BRANCH  23  26
HETATM   26  C   UNL     1      43.346 -16.894   3.577  1.00  0.00     0.096 A 
HETATM   27  S   UNL     1      43.630 -17.479   5.160  1.00  0.00    -0.082 SA
HETATM   28  C   UNL     1      44.072 -19.045   4.608  1.00  0.00     0.017 A 
HETATM   29  C   UNL     1      44.042 -19.122   3.215  1.00  0.00     0.004 A 
HETATM   30  C   UNL     1      44.435 -20.151   5.401  1.00  0.00     0.020 A 
HETATM   31  C   UNL     1      43.633 -17.868   2.637  1.00  0.00     0.068 A 
HETATM   32  C   UNL     1      44.398 -20.359   2.611  1.00  0.00     0.014 A 
HETATM   33 CL   UNL     1      43.539 -17.673   0.927  1.00  0.00    -0.082 Cl
HETATM   34  C   UNL     1      44.758 -21.458   3.394  1.00  0.00     0.001 A 
HETATM   35  C   UNL     1      44.773 -21.354   4.777  1.00  0.00     0.001 A 
ENDBRANCH  23  26
ENDBRANCH  20  22
ENDBRANCH   1  20
TORSDOF 7
ENDMDL
MODEL 7
REMARK VINA RESULT:      -8.1      1.618      2.082
REMARK  7 active torsions:
REMARK  status: ('A' for Active; 'I' for Inactive)
REMARK    1  A    between atoms: C_2  and  C_3 
REMARK    2  A    between atoms: C_3  and  C_4 
REMARK       I    between atoms: C_4  and  N_5 
REMARK    3  A    between atoms: N_8  and  C_9 
REMARK    4  A    between atoms: C_12  and  N_13 
REMARK    5  A    between atoms: N_13  and  C_14 
REMARK    6  A    between atoms: C_14  and  N_15 
REMARK       I    between atoms: N_15  and  C_16 
REMARK    7  A    between atoms: C_16  and  C_17 
ROOT
HETATM    1  N   UNL     1      42.403 -13.678   6.364  1.00  0.00    -0.333 N 
HETATM    2  H   UNL     1      42.253 -13.163   7.233  1.00  0.00     0.168 HD
ENDROOT
BRANCH   1   3
HETATM    3  C   UNL     1      41.525 -13.352   5.305  1.00  0.00     0.034 C 
HETATM    4  C   UNL     1      40.358 -14.056   5.036  1.00  0.00     0.032 C 
HETATM    5  C   UNL     1      39.642 -13.824   3.858  1.00  0.00     0.031 C 
HETATM    6  C   UNL     1      40.058 -12.874   2.918  1.00  0.00     0.030 C 
HETATM    7  C   UNL     1      41.140 -12.061   3.284  1.00  0.00     0.031 C 
HETATM    8  C   UNL     1      41.860 -12.286   4.470  1.00  0.00     0.032 C 
BRANCH   6   9
HETATM    9  N   UNL     1      39.522 -12.808   1.634  1.00  0.00    -0.378 N 
HETATM   10  C   UNL     1      38.299 -12.010   1.421  1.00  0.00     0.143 C 
HETATM   11  C   UNL     1      38.152 -11.642  -0.074  1.00  0.00     0.145 C 
HETATM   12  N   UNL     1      38.356 -12.770  -0.998  1.00  0.00    -0.349 N 
HETATM   13  C   UNL     1      37.863 -12.632  -2.297  1.00  0.00     0.219 C 
HETATM   14  C   UNL     1      39.498 -13.636  -0.684  1.00  0.00     0.145 C 
HETATM   15  O   UNL     1      37.102 -11.720  -2.615  1.00  0.00    -0.273 OA
HETATM   16  C   UNL     1      39.572 -14.018   0.798  1.00  0.00     0.143 C 
BRANCH  13  17
HETATM   17  C   UNL     1      38.307 -13.691  -3.302  1.00  0.00     0.103 C 
BRANCH  17  18
HETATM   18  C   UNL     1      37.282 -14.805  -3.496  1.00  0.00     0.005 C 
HETATM   19  C   UNL     1      36.324 -14.476  -4.631  1.00  0.00     0.005 C 
ENDBRANCH  17  18
ENDBRANCH  13  17
ENDBRANCH   6   9
ENDBRANCH   1   3
BRANCH   1  20
HETATM   20  C   UNL     1      43.609 -14.343   6.305  1.00  0.00     0.179 C 
HETATM   21  S   UNL     1      45.109 -13.902   6.914  1.00  0.00    -0.040 SA
BRANCH  20  22
HETATM   22  N   UNL     1      43.586 -15.586   5.704  1.00  0.00    -0.299 N 
HETATM   23  C   UNL     1      42.913 -16.754   6.039  1.00  0.00     0.266 C 
HETATM   24  O   UNL     1      42.124 -16.788   6.983  1.00  0.00    -0.267 OA
HETATM   25  H   UNL     1      44.231 -15.636   4.926  1.00  0.00     0.171 HD
BRANCH  23  26
HETATM   26  C   UNL     1      43.213 -17.891   5.176  1.00  0.00     0.096 A 
HETATM   27  S   UNL     1      42.784 -17.793   3.522  1.00  0.00    -0.082 SA
HETATM   28  C   UNL     1      43.450 -19.335   3.156  1.00  0.00     0.017 A 
HETATM   29  C   UNL     1      43.969 -19.950   4.296  1.00  0.00     0.004 A 
HETATM   30  C   UNL     1      43.494 -19.961   1.895  1.00  0.00     0.020 A 
HETATM   31  C   UNL     1      43.813 -19.107   5.454  1.00  0.00     0.068 A 
HETATM   32  C   UNL     1      44.544 -21.241   4.150  1.00  0.00     0.014 A 
HETATM   33 CL   UNL     1      44.341 -19.634   7.007  1.00  0.00    -0.082 Cl
HETATM   34  C   UNL     1      44.591 -21.864   2.901  1.00  0.00     0.001 A 
HETATM   35  C   UNL     1      44.072 -21.228   1.784  1.00  0.00     0.001 A 
ENDBRANCH  23  26
ENDBRANCH  20  22
ENDBRANCH   1  20
TORSDOF 7
ENDMDL
MODEL 8
REMARK VINA RESULT:      -7.9      3.507      8.014
REMARK  7 active torsions:
REMARK  status: ('A' for Active; 'I' for Inactive)
REMARK    1  A    between atoms: C_2  and  C_3 
REMARK    2  A    between atoms: C_3  and  C_4 
REMARK       I    between atoms: C_4  and  N_5 
REMARK    3  A    between atoms: N_8  and  C_9 
REMARK    4  A    between atoms: C_12  and  N_13 
REMARK    5  A    between atoms: N_13  and  C_14 
REMARK    6  A    between atoms: C_14  and  N_15 
REMARK       I    between atoms: N_15  and  C_16 
REMARK    7  A    between atoms: C_16  and  C_17 
ROOT
HETATM    1  N   UNL     1      39.886 -11.704   5.083  1.00  0.00    -0.333 N 
HETATM    2  H   UNL     1      39.669 -11.168   5.924  1.00  0.00     0.168 HD
ENDROOT
BRANCH   1   3
HETATM    3  C   UNL     1      40.659 -12.870   5.289  1.00  0.00     0.034 C 
HETATM    4  C   UNL     1      42.041 -12.906   5.143  1.00  0.00     0.032 C 
HETATM    5  C   UNL     1      42.726 -14.125   5.152  1.00  0.00     0.031 C 
HETATM    6  C   UNL     1      42.060 -15.343   5.322  1.00  0.00     0.030 C 
HETATM    7  C   UNL     1      40.694 -15.274   5.633  1.00  0.00     0.031 C 
HETATM    8  C   UNL     1      40.001 -14.052   5.630  1.00  0.00     0.032 C 
BRANCH   6   9
HETATM    9  N   UNL     1      42.671 -16.570   5.076  1.00  0.00    -0.378 N 
HETATM   10  C   UNL     1      43.187 -17.343   6.221  1.00  0.00     0.143 C 
HETATM   11  C   UNL     1      43.352 -18.831   5.834  1.00  0.00     0.145 C 
HETATM   12  N   UNL     1      44.034 -19.051   4.548  1.00  0.00    -0.349 N 
HETATM   13  C   UNL     1      44.572 -20.318   4.314  1.00  0.00     0.219 C 
HETATM   14  C   UNL     1      43.603 -18.172   3.455  1.00  0.00     0.145 C 
HETATM   15  O   UNL     1      44.678 -21.158   5.206  1.00  0.00    -0.273 OA
HETATM   16  C   UNL     1      43.506 -16.700   3.871  1.00  0.00     0.143 C 
BRANCH  13  17
HETATM   17  C   UNL     1      45.040 -20.599   2.889  1.00  0.00     0.103 C 
BRANCH  17  18
HETATM   18  C   UNL     1      44.438 -21.872   2.298  1.00  0.00     0.005 C 
HETATM   19  C   UNL     1      43.078 -21.595   1.675  1.00  0.00     0.005 C 
ENDBRANCH  17  18
ENDBRANCH  13  17
ENDBRANCH   6   9
ENDBRANCH   1   3
BRANCH   1  20
HETATM   20  C   UNL     1      39.128 -11.361   3.984  1.00  0.00     0.179 C 
HETATM   21  S   UNL     1      37.868 -10.262   3.851  1.00  0.00    -0.040 SA
BRANCH  20  22
HETATM   22  N   UNL     1      39.481 -11.964   2.794  1.00  0.00    -0.299 N 
HETATM   23  C   UNL     1      40.503 -11.690   1.894  1.00  0.00     0.266 C 
HETATM   24  O   UNL     1      41.339 -10.815   2.124  1.00  0.00    -0.267 OA
HETATM   25  H   UNL     1      38.821 -12.685   2.531  1.00  0.00     0.171 HD
BRANCH  23  26
HETATM   26  C   UNL     1      40.496 -12.527   0.699  1.00  0.00     0.096 A 
HETATM   27  S   UNL     1      39.951 -11.841  -0.772  1.00  0.00    -0.082 SA
HETATM   28  C   UNL     1      40.266 -13.273  -1.670  1.00  0.00     0.017 A 
HETATM   29  C   UNL     1      40.752 -14.292  -0.850  1.00  0.00     0.004 A 
HETATM   30  C   UNL     1      40.075 -13.464  -3.052  1.00  0.00     0.020 A 
HETATM   31  C   UNL     1      40.866 -13.847   0.515  1.00  0.00     0.068 A 
HETATM   32  C   UNL     1      41.046 -15.545  -1.454  1.00  0.00     0.014 A 
HETATM   33 CL   UNL     1      41.415 -14.917   1.750  1.00  0.00    -0.082 Cl
HETATM   34  C   UNL     1      40.859 -15.738  -2.824  1.00  0.00     0.001 A 
HETATM   35  C   UNL     1      40.380 -14.706  -3.615  1.00  0.00     0.001 A 
ENDBRANCH  23  26
ENDBRANCH  20  22
ENDBRANCH   1  20
TORSDOF 7
ENDMDL
MODEL 9
REMARK VINA RESULT:      -7.8      4.857      7.959
REMARK  7 active torsions:
REMARK  status: ('A' for Active; 'I' for Inactive)
REMARK    1  A    between atoms: C_2  and  C_3 
REMARK    2  A    between atoms: C_3  and  C_4 
REMARK       I    between atoms: C_4  and  N_5 
REMARK    3  A    between atoms: N_8  and  C_9 
REMARK    4  A    between atoms: C_12  and  N_13 
REMARK    5  A    between atoms: N_13  and  C_14 
REMARK    6  A    between atoms: C_14  and  N_15 
REMARK       I    between atoms: N_15  and  C_16 
REMARK    7  A    between atoms: C_16  and  C_17 
ROOT
HETATM    1  N   UNL     1      43.695 -14.696   7.384  1.00  0.00    -0.333 N 
HETATM    2  H   UNL     1      43.320 -15.215   8.179  1.00  0.00     0.168 HD
ENDROOT
BRANCH   1   3
HETATM    3  C   UNL     1      43.076 -14.958   6.141  1.00  0.00     0.034 C 
HETATM    4  C   UNL     1      43.403 -16.045   5.339  1.00  0.00     0.032 C 
HETATM    5  C   UNL     1      42.913 -16.139   4.032  1.00  0.00     0.031 C 
HETATM    6  C   UNL     1      42.072 -15.161   3.489  1.00  0.00     0.030 C 
HETATM    7  C   UNL     1      41.623 -14.162   4.365  1.00  0.00     0.031 C 
HETATM    8  C   UNL     1      42.107 -14.066   5.681  1.00  0.00     0.032 C 
BRANCH   6   9
HETATM    9  N   UNL     1      41.787 -15.092   2.128  1.00  0.00    -0.378 N 
HETATM   10  C   UNL     1      42.260 -16.181   1.253  1.00  0.00     0.143 C 
HETATM   11  C   UNL     1      41.449 -16.202  -0.064  1.00  0.00     0.145 C 
HETATM   12  N   UNL     1      41.293 -14.884  -0.702  1.00  0.00    -0.349 N 
HETATM   13  C   UNL     1      40.938 -14.862  -2.052  1.00  0.00     0.219 C 
HETATM   14  C   UNL     1      40.960 -13.785   0.212  1.00  0.00     0.145 C 
HETATM   15  O   UNL     1      40.964 -15.873  -2.751  1.00  0.00    -0.273 OA
HETATM   16  C   UNL     1      41.826 -13.772   1.477  1.00  0.00     0.143 C 
BRANCH  13  17
HETATM   17  C   UNL     1      40.532 -13.505  -2.619  1.00  0.00     0.103 C 
BRANCH  17  18
HETATM   18  C   UNL     1      41.473 -13.002  -3.711  1.00  0.00     0.005 C 
HETATM   19  C   UNL     1      42.462 -11.988  -3.155  1.00  0.00     0.005 C 
ENDBRANCH  17  18
ENDBRANCH  13  17
ENDBRANCH   6   9
ENDBRANCH   1   3
BRANCH   1  20
HETATM   20  C   UNL     1      44.500 -13.633   7.735  1.00  0.00     0.179 C 
HETATM   21  S   UNL     1      45.977 -13.152   7.103  1.00  0.00    -0.040 SA
BRANCH  20  22
HETATM   22  N   UNL     1      44.004 -12.796   8.715  1.00  0.00    -0.299 N 
HETATM   23  C   UNL     1      43.279 -11.614   8.632  1.00  0.00     0.266 C 
HETATM   24  O   UNL     1      42.905 -11.170   7.546  1.00  0.00    -0.267 OA
HETATM   25  H   UNL     1      44.292 -13.092   9.638  1.00  0.00     0.171 HD
BRANCH  23  26
HETATM   26  C   UNL     1      43.002 -10.985   9.918  1.00  0.00     0.096 A 
HETATM   27  S   UNL     1      41.378 -10.604  10.305  1.00  0.00    -0.082 SA
HETATM   28  C   UNL     1      41.786 -10.006  11.863  1.00  0.00     0.017 A 
HETATM   29  C   UNL     1      43.163 -10.057  12.085  1.00  0.00     0.004 A 
HETATM   30  C   UNL     1      40.899  -9.507  12.838  1.00  0.00     0.020 A 
HETATM   31  C   UNL     1      43.849 -10.614  10.947  1.00  0.00     0.068 A 
HETATM   32  C   UNL     1      43.652  -9.582  13.332  1.00  0.00     0.014 A 
HETATM   33 CL   UNL     1      45.566 -10.766  10.939  1.00  0.00    -0.082 Cl
HETATM   34  C   UNL     1      42.776  -9.088  14.301  1.00  0.00     0.001 A 
HETATM   35  C   UNL     1      41.412  -9.054  14.056  1.00  0.00     0.001 A 
ENDBRANCH  23  26
ENDBRANCH  20  22
ENDBRANCH   1  20
TORSDOF 7
ENDMDL
MODEL 10
REMARK VINA RESULT:      -7.8      1.477      1.999
REMARK  7 active torsions:
REMARK  status: ('A' for Active; 'I' for Inactive)
REMARK    1  A    between atoms: C_2  and  C_3 
REMARK    2  A    between atoms: C_3  and  C_4 
REMARK       I    between atoms: C_4  and  N_5 
REMARK    3  A    between atoms: N_8  and  C_9 
REMARK    4  A    between atoms: C_12  and  N_13 
REMARK    5  A    between atoms: N_13  and  C_14 
REMARK    6  A    between atoms: C_14  and  N_15 
REMARK       I    between atoms: N_15  and  C_16 
REMARK    7  A    between atoms: C_16  and  C_17 
ROOT
HETATM    1  N   UNL     1      42.677 -13.374   5.170  1.00  0.00    -0.333 N 
HETATM    2  H   UNL     1      42.677 -12.452   5.609  1.00  0.00     0.168 HD
ENDROOT
BRANCH   1   3
HETATM    3  C   UNL     1      41.978 -13.465   3.945  1.00  0.00     0.034 C 
HETATM    4  C   UNL     1      42.558 -13.192   2.712  1.00  0.00     0.032 C 
HETATM    5  C   UNL     1      41.772 -13.093   1.561  1.00  0.00     0.031 C 
HETATM    6  C   UNL     1      40.385 -13.276   1.599  1.00  0.00     0.030 C 
HETATM    7  C   UNL     1      39.842 -13.712   2.816  1.00  0.00     0.031 C 
HETATM    8  C   UNL     1      40.629 -13.819   3.975  1.00  0.00     0.032 C 
BRANCH   6   9
HETATM    9  N   UNL     1      39.555 -12.929   0.535  1.00  0.00    -0.378 N 
HETATM   10  C   UNL     1      38.553 -11.866   0.741  1.00  0.00     0.143 C 
HETATM   11  C   UNL     1      38.101 -11.284  -0.619  1.00  0.00     0.145 C 
HETATM   12  N   UNL     1      37.767 -12.298  -1.633  1.00  0.00    -0.349 N 
HETATM   13  C   UNL     1      36.991 -11.890  -2.719  1.00  0.00     0.219 C 
HETATM   14  C   UNL     1      38.706 -13.423  -1.722  1.00  0.00     0.145 C 
HETATM   15  O   UNL     1      36.418 -10.802  -2.741  1.00  0.00    -0.273 OA
HETATM   16  C   UNL     1      39.082 -14.002  -0.354  1.00  0.00     0.143 C 
BRANCH  13  17
HETATM   17  C   UNL     1      36.876 -12.879  -3.874  1.00  0.00     0.103 C 
BRANCH  17  18
HETATM   18  C   UNL     1      35.537 -12.801  -4.604  1.00  0.00     0.005 C 
HETATM   19  C   UNL     1      35.691 -12.124  -5.957  1.00  0.00     0.005 C 
ENDBRANCH  17  18
ENDBRANCH  13  17
ENDBRANCH   6   9
ENDBRANCH   1   3
BRANCH   1  20
HETATM   20  C   UNL     1      43.609 -14.246   5.693  1.00  0.00     0.179 C 
HETATM   21  S   UNL     1      44.702 -14.023   6.946  1.00  0.00    -0.040 SA
BRANCH  20  22
HETATM   22  N   UNL     1      43.621 -15.515   5.151  1.00  0.00    -0.299 N 
HETATM   23  C   UNL     1      42.801 -16.615   5.372  1.00  0.00     0.266 C 
HETATM   24  O   UNL     1      41.824 -16.544   6.118  1.00  0.00    -0.267 OA
HETATM   25  H   UNL     1      44.414 -15.652   4.538  1.00  0.00     0.171 HD
BRANCH  23  26
HETATM   26  C   UNL     1      43.193 -17.816   4.642  1.00  0.00     0.096 A 
HETATM   27  S   UNL     1      44.217 -18.944   5.422  1.00  0.00    -0.082 SA
HETATM   28  C   UNL     1      44.193 -20.033   4.092  1.00  0.00     0.017 A 
HETATM   29  C   UNL     1      43.436 -19.529   3.033  1.00  0.00     0.004 A 
HETATM   30  C   UNL     1      44.835 -21.284   4.010  1.00  0.00     0.020 A 
HETATM   31  C   UNL     1      42.877 -18.243   3.365  1.00  0.00     0.068 A 
HETATM   32  C   UNL     1      43.335 -20.317   1.855  1.00  0.00     0.014 A 
HETATM   33 CL   UNL     1      41.920 -17.376   2.224  1.00  0.00    -0.082 Cl
HETATM   34  C   UNL     1      43.969 -21.559   1.771  1.00  0.00     0.001 A 
HETATM   35  C   UNL     1      44.710 -22.038   2.840  1.00  0.00     0.001 A 
ENDBRANCH  23  26
ENDBRANCH  20  22
ENDBRANCH   1  20
TORSDOF 7
ENDMDL
