MODEL 1
REMARK VINA RESULT:      -7.9      0.000      0.000
REMARK  3 active torsions:
REMARK  status: ('A' for Active; 'I' for Inactive)
REMARK    1  A    between atoms: C_5  and  N_6 
REMARK       I    between atoms: N_6  and  C_7 
REMARK    2  A    between atoms: C_7  and  C_8 
REMARK    3  A    between atoms: C_8  and  C_9 
ROOT
HETATM    1  C   UNL     1      40.246 -16.920   2.084  1.00  0.00     0.286 C 
HETATM    2  N   UNL     1      39.855 -15.815   1.112  1.00  0.00    -0.056 N 
HETATM    3  H   UNL     1      40.748 -15.348   0.843  1.00  0.00     0.278 HD
HETATM    4  H   UNL     1      39.471 -16.211   0.247  1.00  0.00     0.278 HD
HETATM    5  C   UNL     1      38.904 -14.823   1.734  1.00  0.00     0.209 C 
HETATM    6  C   UNL     1      39.573 -14.194   2.985  1.00  0.00     0.115 C 
HETATM    7  N   UNL     1      40.139 -15.206   3.880  1.00  0.00    -0.353 N 
HETATM    8  C   UNL     1      40.710 -16.381   3.454  1.00  0.00     0.249 C 
HETATM    9  O   UNL     1      41.463 -17.005   4.194  1.00  0.00    -0.271 OA
HETATM   10  C   UNL     1      38.494 -13.788   0.688  1.00  0.00     0.035 C 
HETATM   11  C   UNL     1      39.601 -12.791   0.358  1.00  0.00     0.002 C 
HETATM   12  C   UNL     1      40.147 -12.133   1.618  1.00  0.00     0.002 C 
HETATM   13  C   UNL     1      40.654 -13.167   2.617  1.00  0.00     0.027 C 
HETATM   14  H   UNL     1      40.470 -14.903   4.794  1.00  0.00     0.163 HD
ENDROOT
BRANCH   1  15
HETATM   15  C   UNL     1      41.277 -17.874   1.468  1.00  0.00     0.146 C 
BRANCH  15  16
HETATM   16  C   UNL     1      42.621 -17.205   1.335  1.00  0.00     0.224 C 
HETATM   17  N   UNL     1      43.746 -17.718   1.895  1.00  0.00    -0.327 N 
HETATM   18  H   UNL     1      44.533 -17.079   1.812  1.00  0.00     0.169 HD
HETATM   19  O   UNL     1      42.696 -16.168   0.662  1.00  0.00    -0.273 OA
BRANCH  17  20
HETATM   20  C   UNL     1      44.033 -18.917   2.579  1.00  0.00     0.034 A 
HETATM   21  C   UNL     1      44.093 -20.185   2.003  1.00  0.00     0.030 A 
HETATM   22  C   UNL     1      44.391 -21.311   2.783  1.00  0.00     0.009 A 
HETATM   23  C   UNL     1      44.638 -21.190   4.153  1.00  0.00    -0.062 A 
HETATM   24  C   UNL     1      44.980 -22.400   4.971  1.00  0.00     0.048 C 
HETATM   25  C   UNL     1      44.618 -19.918   4.726  1.00  0.00     0.009 A 
HETATM   26  C   UNL     1      44.320 -18.796   3.946  1.00  0.00     0.030 A 
ENDBRANCH  17  20
ENDBRANCH  15  16
ENDBRANCH   1  15
TORSDOF 3
ENDMDL
MODEL 2
REMARK VINA RESULT:      -7.8      2.872      4.886
REMARK  3 active torsions:
REMARK  status: ('A' for Active; 'I' for Inactive)
REMARK    1  A    between atoms: C_5  and  N_6 
REMARK       I    between atoms: N_6  and  C_7 
REMARK    2  A    between atoms: C_7  and  C_8 
REMARK    3  A    between atoms: C_8  and  C_9 
ROOT
HETATM    1  C   UNL     1      40.225 -13.349  -0.073  1.00  0.00     0.286 C 
HETATM    2  N   UNL     1      39.129 -13.654  -1.086  1.00  0.00    -0.056 N 
HETATM    3  H   UNL     1      38.849 -14.643  -0.908  1.00  0.00     0.278 HD
HETATM    4  H   UNL     1      38.295 -13.085  -0.900  1.00  0.00     0.278 HD
HETATM    5  C   UNL     1      39.607 -13.485  -2.506  1.00  0.00     0.209 C 
HETATM    6  C   UNL     1      40.812 -14.432  -2.752  1.00  0.00     0.115 C 
HETATM    7  N   UNL     1      41.828 -14.322  -1.704  1.00  0.00    -0.353 N 
HETATM    8  C   UNL     1      41.549 -14.081  -0.380  1.00  0.00     0.249 C 
HETATM    9  O   UNL     1      42.379 -14.346   0.483  1.00  0.00    -0.271 OA
HETATM   10  C   UNL     1      38.445 -13.729  -3.466  1.00  0.00     0.035 C 
HETATM   11  C   UNL     1      38.057 -15.201  -3.582  1.00  0.00     0.002 C 
HETATM   12  C   UNL     1      39.263 -16.066  -3.925  1.00  0.00     0.002 C 
HETATM   13  C   UNL     1      40.382 -15.898  -2.903  1.00  0.00     0.027 C 
HETATM   14  H   UNL     1      42.719 -14.793  -1.851  1.00  0.00     0.163 HD
ENDROOT
BRANCH   1  15
HETATM   15  C   UNL     1      39.752 -13.606   1.363  1.00  0.00     0.146 C 
BRANCH  15  16
HETATM   16  C   UNL     1      38.757 -14.737   1.412  1.00  0.00     0.224 C 
HETATM   17  N   UNL     1      39.110 -16.001   1.757  1.00  0.00    -0.327 N 
HETATM   18  H   UNL     1      38.345 -16.657   1.617  1.00  0.00     0.169 HD
HETATM   19  O   UNL     1      37.571 -14.487   1.156  1.00  0.00    -0.273 OA
BRANCH  17  20
HETATM   20  C   UNL     1      40.304 -16.583   2.230  1.00  0.00     0.034 A 
HETATM   21  C   UNL     1      40.843 -16.405   3.503  1.00  0.00     0.030 A 
HETATM   22  C   UNL     1      42.040 -17.038   3.868  1.00  0.00     0.009 A 
HETATM   23  C   UNL     1      42.719 -17.862   2.967  1.00  0.00    -0.062 A 
HETATM   24  C   UNL     1      43.985 -18.553   3.377  1.00  0.00     0.048 C 
HETATM   25  C   UNL     1      42.162 -18.075   1.705  1.00  0.00     0.009 A 
HETATM   26  C   UNL     1      40.968 -17.443   1.344  1.00  0.00     0.030 A 
ENDBRANCH  17  20
ENDBRANCH  15  16
ENDBRANCH   1  15
TORSDOF 3
ENDMDL
MODEL 3
REMARK VINA RESULT:      -7.7      3.073      4.403
REMARK  3 active torsions:
REMARK  status: ('A' for Active; 'I' for Inactive)
REMARK    1  A    between atoms: C_5  and  N_6 
REMARK       I    between atoms: N_6  and  C_7 
REMARK    2  A    between atoms: C_7  and  C_8 
REMARK    3  A    between atoms: C_8  and  C_9 
ROOT
HETATM    1  C   UNL     1      43.564 -16.020   6.432  1.00  0.00     0.286 C 
HETATM    2  N   UNL     1      42.798 -16.250   5.136  1.00  0.00    -0.056 N 
HETATM    3  H   UNL     1      43.515 -16.232   4.379  1.00  0.00     0.278 HD
HETATM    4  H   UNL     1      42.390 -17.191   5.117  1.00  0.00     0.278 HD
HETATM    5  C   UNL     1      41.752 -15.190   4.901  1.00  0.00     0.209 C 
HETATM    6  C   UNL     1      42.439 -13.799   4.852  1.00  0.00     0.115 C 
HETATM    7  N   UNL     1      43.341 -13.586   5.986  1.00  0.00    -0.353 N 
HETATM    8  C   UNL     1      44.092 -14.576   6.573  1.00  0.00     0.249 C 
HETATM    9  O   UNL     1      45.064 -14.287   7.260  1.00  0.00    -0.271 OA
HETATM   10  C   UNL     1      40.972 -15.519   3.630  1.00  0.00     0.035 C 
HETATM   11  C   UNL     1      41.768 -15.271   2.351  1.00  0.00     0.002 C 
HETATM   12  C   UNL     1      42.331 -13.856   2.316  1.00  0.00     0.002 C 
HETATM   13  C   UNL     1      43.197 -13.567   3.537  1.00  0.00     0.027 C 
HETATM   14  H   UNL     1      43.726 -12.652   6.121  1.00  0.00     0.163 HD
ENDROOT
BRANCH   1  15
HETATM   15  C   UNL     1      44.680 -17.055   6.618  1.00  0.00     0.146 C 
BRANCH  15  16
HETATM   16  C   UNL     1      44.203 -18.225   7.439  1.00  0.00     0.224 C 
HETATM   17  N   UNL     1      43.935 -19.438   6.892  1.00  0.00    -0.327 N 
HETATM   18  H   UNL     1      43.509 -20.069   7.566  1.00  0.00     0.169 HD
HETATM   19  O   UNL     1      44.085 -18.073   8.663  1.00  0.00    -0.273 OA
BRANCH  17  20
HETATM   20  C   UNL     1      44.097 -19.979   5.600  1.00  0.00     0.034 A 
HETATM   21  C   UNL     1      43.902 -19.292   4.403  1.00  0.00     0.030 A 
HETATM   22  C   UNL     1      44.096 -19.932   3.171  1.00  0.00     0.009 A 
HETATM   23  C   UNL     1      44.491 -21.271   3.113  1.00  0.00    -0.062 A 
HETATM   24  C   UNL     1      44.719 -21.938   1.789  1.00  0.00     0.048 C 
HETATM   25  C   UNL     1      44.726 -21.952   4.309  1.00  0.00     0.009 A 
HETATM   26  C   UNL     1      44.532 -21.310   5.537  1.00  0.00     0.030 A 
ENDBRANCH  17  20
ENDBRANCH  15  16
ENDBRANCH   1  15
TORSDOF 3
ENDMDL
MODEL 4
REMARK VINA RESULT:      -7.7      1.541      2.639
REMARK  3 active torsions:
REMARK  status: ('A' for Active; 'I' for Inactive)
REMARK    1  A    between atoms: C_5  and  N_6 
REMARK       I    between atoms: N_6  and  C_7 
REMARK    2  A    between atoms: C_7  and  C_8 
REMARK    3  A    between atoms: C_8  and  C_9 
ROOT
HETATM    1  C   UNL     1      41.166 -15.401   2.673  1.00  0.00     0.286 C 
HETATM    2  N   UNL     1      40.533 -14.028   2.861  1.00  0.00    -0.056 N 
HETATM    3  H   UNL     1      39.597 -14.205   3.284  1.00  0.00     0.278 HD
HETATM    4  H   UNL     1      41.057 -13.479   3.551  1.00  0.00     0.278 HD
HETATM    5  C   UNL     1      40.394 -13.285   1.556  1.00  0.00     0.209 C 
HETATM    6  C   UNL     1      39.521 -14.123   0.584  1.00  0.00     0.115 C 
HETATM    7  N   UNL     1      39.967 -15.515   0.498  1.00  0.00    -0.353 N 
HETATM    8  C   UNL     1      40.496 -16.223   1.551  1.00  0.00     0.249 C 
HETATM    9  O   UNL     1      40.519 -17.449   1.519  1.00  0.00    -0.271 OA
HETATM   10  C   UNL     1      39.827 -11.892   1.823  1.00  0.00     0.035 C 
HETATM   11  C   UNL     1      38.343 -11.903   2.182  1.00  0.00     0.002 C 
HETATM   12  C   UNL     1      37.527 -12.653   1.138  1.00  0.00     0.002 C 
HETATM   13  C   UNL     1      38.031 -14.080   0.952  1.00  0.00     0.027 C 
HETATM   14  H   UNL     1      39.551 -16.106  -0.219  1.00  0.00     0.163 HD
ENDROOT
BRANCH   1  15
HETATM   15  C   UNL     1      41.225 -16.179   3.992  1.00  0.00     0.146 C 
BRANCH  15  16
HETATM   16  C   UNL     1      42.537 -15.951   4.697  1.00  0.00     0.224 C 
HETATM   17  N   UNL     1      43.560 -16.840   4.637  1.00  0.00    -0.327 N 
HETATM   18  H   UNL     1      44.317 -16.586   5.267  1.00  0.00     0.169 HD
HETATM   19  O   UNL     1      42.688 -14.894   5.326  1.00  0.00    -0.273 OA
BRANCH  17  20
HETATM   20  C   UNL     1      43.770 -18.033   3.916  1.00  0.00     0.034 A 
HETATM   21  C   UNL     1      43.635 -18.182   2.537  1.00  0.00     0.030 A 
HETATM   22  C   UNL     1      43.872 -19.421   1.924  1.00  0.00     0.009 A 
HETATM   23  C   UNL     1      44.252 -20.534   2.680  1.00  0.00    -0.062 A 
HETATM   24  C   UNL     1      44.527 -21.846   2.010  1.00  0.00     0.048 C 
HETATM   25  C   UNL     1      44.427 -20.380   4.056  1.00  0.00     0.009 A 
HETATM   26  C   UNL     1      44.190 -19.143   4.664  1.00  0.00     0.030 A 
ENDBRANCH  17  20
ENDBRANCH  15  16
ENDBRANCH   1  15
TORSDOF 3
ENDMDL
MODEL 5
REMARK VINA RESULT:      -7.6      2.443      3.611
REMARK  3 active torsions:
REMARK  status: ('A' for Active; 'I' for Inactive)
REMARK    1  A    between atoms: C_5  and  N_6 
REMARK       I    between atoms: N_6  and  C_7 
REMARK    2  A    between atoms: C_7  and  C_8 
REMARK    3  A    between atoms: C_8  and  C_9 
ROOT
HETATM    1  C   UNL     1      40.805 -14.803   1.025  1.00  0.00     0.286 C 
HETATM    2  N   UNL     1      41.696 -13.942   0.139  1.00  0.00    -0.056 N 
HETATM    3  H   UNL     1      41.578 -12.965   0.485  1.00  0.00     0.278 HD
HETATM    4  H   UNL     1      42.685 -14.176   0.282  1.00  0.00     0.278 HD
HETATM    5  C   UNL     1      41.312 -14.040  -1.316  1.00  0.00     0.209 C 
HETATM    6  C   UNL     1      39.836 -13.591  -1.483  1.00  0.00     0.115 C 
HETATM    7  N   UNL     1      38.944 -14.250  -0.527  1.00  0.00    -0.353 N 
HETATM    8  C   UNL     1      39.300 -14.585   0.758  1.00  0.00     0.249 C 
HETATM    9  O   UNL     1      38.436 -14.802   1.600  1.00  0.00    -0.271 OA
HETATM   10  C   UNL     1      42.288 -13.217  -2.155  1.00  0.00     0.035 C 
HETATM   11  C   UNL     1      42.083 -11.711  -2.017  1.00  0.00     0.002 C 
HETATM   12  C   UNL     1      40.636 -11.322  -2.292  1.00  0.00     0.002 C 
HETATM   13  C   UNL     1      39.671 -12.068  -1.377  1.00  0.00     0.027 C 
HETATM   14  H   UNL     1      37.940 -14.133  -0.651  1.00  0.00     0.163 HD
ENDROOT
BRANCH   1  15
HETATM   15  C   UNL     1      41.151 -14.630   2.508  1.00  0.00     0.146 C 
BRANCH  15  16
HETATM   16  C   UNL     1      42.603 -14.267   2.687  1.00  0.00     0.224 C 
HETATM   17  N   UNL     1      43.578 -15.204   2.806  1.00  0.00    -0.327 N 
HETATM   18  H   UNL     1      44.474 -14.786   3.042  1.00  0.00     0.169 HD
HETATM   19  O   UNL     1      42.911 -13.067   2.692  1.00  0.00    -0.273 OA
BRANCH  17  20
HETATM   20  C   UNL     1      43.594 -16.610   2.700  1.00  0.00     0.034 A 
HETATM   21  C   UNL     1      43.430 -17.504   3.757  1.00  0.00     0.030 A 
HETATM   22  C   UNL     1      43.461 -18.888   3.534  1.00  0.00     0.009 A 
HETATM   23  C   UNL     1      43.654 -19.403   2.249  1.00  0.00    -0.062 A 
HETATM   24  C   UNL     1      43.660 -20.885   2.020  1.00  0.00     0.048 C 
HETATM   25  C   UNL     1      43.778 -18.512   1.183  1.00  0.00     0.009 A 
HETATM   26  C   UNL     1      43.747 -17.132   1.408  1.00  0.00     0.030 A 
ENDBRANCH  17  20
ENDBRANCH  15  16
ENDBRANCH   1  15
TORSDOF 3
ENDMDL
MODEL 6
REMARK VINA RESULT:      -7.6      2.470      3.593
REMARK  3 active torsions:
REMARK  status: ('A' for Active; 'I' for Inactive)
REMARK    1  A    between atoms: C_5  and  N_6 
REMARK       I    between atoms: N_6  and  C_7 
REMARK    2  A    between atoms: C_7  and  C_8 
REMARK    3  A    between atoms: C_8  and  C_9 
ROOT
HETATM    1  C   UNL     1      41.121 -16.309   4.062  1.00  0.00     0.286 C 
HETATM    2  N   UNL     1      42.136 -15.187   4.239  1.00  0.00    -0.056 N 
HETATM    3  H   UNL     1      43.070 -15.628   4.102  1.00  0.00     0.278 HD
HETATM    4  H   UNL     1      42.039 -14.490   3.492  1.00  0.00     0.278 HD
HETATM    5  C   UNL     1      42.044 -14.550   5.603  1.00  0.00     0.209 C 
HETATM    6  C   UNL     1      42.284 -15.634   6.687  1.00  0.00     0.115 C 
HETATM    7  N   UNL     1      41.466 -16.829   6.468  1.00  0.00    -0.353 N 
HETATM    8  C   UNL     1      41.133 -17.320   5.228  1.00  0.00     0.249 C 
HETATM    9  O   UNL     1      40.760 -18.482   5.106  1.00  0.00    -0.271 OA
HETATM   10  C   UNL     1      43.031 -13.387   5.687  1.00  0.00     0.035 C 
HETATM   11  C   UNL     1      44.486 -13.837   5.797  1.00  0.00     0.002 C 
HETATM   12  C   UNL     1      44.676 -14.822   6.943  1.00  0.00     0.002 C 
HETATM   13  C   UNL     1      43.763 -16.034   6.797  1.00  0.00     0.027 C 
HETATM   14  H   UNL     1      41.444 -17.534   7.202  1.00  0.00     0.163 HD
ENDROOT
BRANCH   1  15
HETATM   15  C   UNL     1      41.280 -17.003   2.704  1.00  0.00     0.146 C 
BRANCH  15  16
HETATM   16  C   UNL     1      42.579 -16.615   2.046  1.00  0.00     0.224 C 
HETATM   17  N   UNL     1      43.718 -17.335   2.204  1.00  0.00    -0.327 N 
HETATM   18  H   UNL     1      44.521 -16.865   1.794  1.00  0.00     0.169 HD
HETATM   19  O   UNL     1      42.589 -15.618   1.311  1.00  0.00    -0.273 OA
BRANCH  17  20
HETATM   20  C   UNL     1      44.014 -18.562   2.833  1.00  0.00     0.034 A 
HETATM   21  C   UNL     1      44.050 -19.807   2.207  1.00  0.00     0.030 A 
HETATM   22  C   UNL     1      44.360 -20.965   2.934  1.00  0.00     0.009 A 
HETATM   23  C   UNL     1      44.641 -20.899   4.301  1.00  0.00    -0.062 A 
HETATM   24  C   UNL     1      44.995 -22.142   5.063  1.00  0.00     0.048 C 
HETATM   25  C   UNL     1      44.645 -19.651   4.925  1.00  0.00     0.009 A 
HETATM   26  C   UNL     1      44.335 -18.497   4.197  1.00  0.00     0.030 A 
ENDBRANCH  17  20
ENDBRANCH  15  16
ENDBRANCH   1  15
TORSDOF 3
ENDMDL
MODEL 7
REMARK VINA RESULT:      -7.5      1.405      2.146
REMARK  3 active torsions:
REMARK  status: ('A' for Active; 'I' for Inactive)
REMARK    1  A    between atoms: C_5  and  N_6 
REMARK       I    between atoms: N_6  and  C_7 
REMARK    2  A    between atoms: C_7  and  C_8 
REMARK    3  A    between atoms: C_8  and  C_9 
ROOT
HETATM    1  C   UNL     1      40.582 -16.682   3.052  1.00  0.00     0.286 C 
HETATM    2  N   UNL     1      40.731 -15.192   2.771  1.00  0.00    -0.056 N 
HETATM    3  H   UNL     1      41.755 -15.000   2.806  1.00  0.00     0.278 HD
HETATM    4  H   UNL     1      40.434 -14.972   1.814  1.00  0.00     0.278 HD
HETATM    5  C   UNL     1      39.997 -14.349   3.783  1.00  0.00     0.209 C 
HETATM    6  C   UNL     1      40.548 -14.661   5.200  1.00  0.00     0.115 C 
HETATM    7  N   UNL     1      40.606 -16.100   5.468  1.00  0.00    -0.353 N 
HETATM    8  C   UNL     1      40.892 -17.052   4.519  1.00  0.00     0.249 C 
HETATM    9  O   UNL     1      41.267 -18.168   4.858  1.00  0.00    -0.271 OA
HETATM   10  C   UNL     1      40.121 -12.875   3.402  1.00  0.00     0.035 C 
HETATM   11  C   UNL     1      41.510 -12.299   3.663  1.00  0.00     0.002 C 
HETATM   12  C   UNL     1      41.953 -12.549   5.099  1.00  0.00     0.002 C 
HETATM   13  C   UNL     1      41.929 -14.034   5.442  1.00  0.00     0.027 C 
HETATM   14  H   UNL     1      40.816 -16.400   6.418  1.00  0.00     0.163 HD
ENDROOT
BRANCH   1  15
HETATM   15  C   UNL     1      41.401 -17.525   2.067  1.00  0.00     0.146 C 
BRANCH  15  16
HETATM   16  C   UNL     1      42.750 -16.903   1.813  1.00  0.00     0.224 C 
HETATM   17  N   UNL     1      43.893 -17.399   2.351  1.00  0.00    -0.327 N 
HETATM   18  H   UNL     1      44.687 -16.788   2.177  1.00  0.00     0.169 HD
HETATM   19  O   UNL     1      42.811 -15.923   1.057  1.00  0.00    -0.273 OA
BRANCH  17  20
HETATM   20  C   UNL     1      44.190 -18.548   3.111  1.00  0.00     0.034 A 
HETATM   21  C   UNL     1      44.407 -18.576   4.488  1.00  0.00     0.030 A 
HETATM   22  C   UNL     1      44.694 -19.783   5.142  1.00  0.00     0.009 A 
HETATM   23  C   UNL     1      44.768 -20.984   4.433  1.00  0.00    -0.062 A 
HETATM   24  C   UNL     1      45.051 -22.271   5.148  1.00  0.00     0.048 C 
HETATM   25  C   UNL     1      44.512 -20.967   3.061  1.00  0.00     0.009 A 
HETATM   26  C   UNL     1      44.226 -19.763   2.410  1.00  0.00     0.030 A 
ENDBRANCH  17  20
ENDBRANCH  15  16
ENDBRANCH   1  15
TORSDOF 3
ENDMDL
MODEL 8
REMARK VINA RESULT:      -7.3      2.099      2.918
REMARK  3 active torsions:
REMARK  status: ('A' for Active; 'I' for Inactive)
REMARK    1  A    between atoms: C_5  and  N_6 
REMARK       I    between atoms: N_6  and  C_7 
REMARK    2  A    between atoms: C_7  and  C_8 
REMARK    3  A    between atoms: C_8  and  C_9 
ROOT
HETATM    1  C   UNL     1      40.881 -16.916   4.923  1.00  0.00     0.286 C 
HETATM    2  N   UNL     1      41.372 -17.130   3.497  1.00  0.00    -0.056 N 
HETATM    3  H   UNL     1      42.279 -16.620   3.431  1.00  0.00     0.278 HD
HETATM    4  H   UNL     1      41.590 -18.119   3.333  1.00  0.00     0.278 HD
HETATM    5  C   UNL     1      40.393 -16.606   2.476  1.00  0.00     0.209 C 
HETATM    6  C   UNL     1      40.169 -15.090   2.719  1.00  0.00     0.115 C 
HETATM    7  N   UNL     1      39.873 -14.790   4.122  1.00  0.00    -0.353 N 
HETATM    8  C   UNL     1      40.414 -15.468   5.188  1.00  0.00     0.249 C 
HETATM    9  O   UNL     1      40.412 -14.964   6.305  1.00  0.00    -0.271 OA
HETATM   10  C   UNL     1      40.906 -16.920   1.072  1.00  0.00     0.035 C 
HETATM   11  C   UNL     1      42.086 -16.048   0.652  1.00  0.00     0.002 C 
HETATM   12  C   UNL     1      41.768 -14.568   0.818  1.00  0.00     0.002 C 
HETATM   13  C   UNL     1      41.358 -14.240   2.249  1.00  0.00     0.027 C 
HETATM   14  H   UNL     1      39.568 -13.847   4.354  1.00  0.00     0.163 HD
ENDROOT
BRANCH   1  15
HETATM   15  C   UNL     1      41.921 -17.376   5.951  1.00  0.00     0.146 C 
BRANCH  15  16
HETATM   16  C   UNL     1      43.260 -16.735   5.691  1.00  0.00     0.224 C 
HETATM   17  N   UNL     1      44.212 -17.323   4.923  1.00  0.00    -0.327 N 
HETATM   18  H   UNL     1      45.091 -16.813   4.956  1.00  0.00     0.169 HD
HETATM   19  O   UNL     1      43.478 -15.615   6.174  1.00  0.00    -0.273 OA
BRANCH  17  20
HETATM   20  C   UNL     1      44.238 -18.488   4.129  1.00  0.00     0.034 A 
HETATM   21  C   UNL     1      43.915 -18.555   2.775  1.00  0.00     0.030 A 
HETATM   22  C   UNL     1      43.980 -19.773   2.083  1.00  0.00     0.009 A 
HETATM   23  C   UNL     1      44.370 -20.947   2.733  1.00  0.00    -0.062 A 
HETATM   24  C   UNL     1      44.459 -22.238   1.976  1.00  0.00     0.048 C 
HETATM   25  C   UNL     1      44.732 -20.878   4.079  1.00  0.00     0.009 A 
HETATM   26  C   UNL     1      44.667 -19.662   4.767  1.00  0.00     0.030 A 
ENDBRANCH  17  20
ENDBRANCH  15  16
ENDBRANCH   1  15
TORSDOF 3
ENDMDL
MODEL 9
REMARK VINA RESULT:      -7.3      2.258      6.944
REMARK  3 active torsions:
REMARK  status: ('A' for Active; 'I' for Inactive)
REMARK    1  A    between atoms: C_5  and  N_6 
REMARK       I    between atoms: N_6  and  C_7 
REMARK    2  A    between atoms: C_7  and  C_8 
REMARK    3  A    between atoms: C_8  and  C_9 
ROOT
HETATM    1  C   UNL     1      42.825 -18.198   4.689  1.00  0.00     0.286 C 
HETATM    2  N   UNL     1      42.902 -19.037   3.420  1.00  0.00    -0.056 N 
HETATM    3  H   UNL     1      42.320 -19.882   3.606  1.00  0.00     0.278 HD
HETATM    4  H   UNL     1      42.454 -18.550   2.636  1.00  0.00     0.278 HD
HETATM    5  C   UNL     1      44.319 -19.431   3.087  1.00  0.00     0.209 C 
HETATM    6  C   UNL     1      44.914 -20.238   4.272  1.00  0.00     0.115 C 
HETATM    7  N   UNL     1      44.708 -19.568   5.558  1.00  0.00    -0.353 N 
HETATM    8  C   UNL     1      43.596 -18.822   5.872  1.00  0.00     0.249 C 
HETATM    9  O   UNL     1      43.320 -18.590   7.043  1.00  0.00    -0.271 OA
HETATM   10  C   UNL     1      44.335 -20.202   1.769  1.00  0.00     0.035 C 
HETATM   11  C   UNL     1      43.779 -21.618   1.890  1.00  0.00     0.002 C 
HETATM   12  C   UNL     1      44.473 -22.392   3.004  1.00  0.00     0.002 C 
HETATM   13  C   UNL     1      44.363 -21.669   4.342  1.00  0.00     0.027 C 
HETATM   14  H   UNL     1      45.187 -19.944   6.375  1.00  0.00     0.163 HD
ENDROOT
BRANCH   1  15
HETATM   15  C   UNL     1      41.373 -17.874   5.063  1.00  0.00     0.146 C 
BRANCH  15  16
HETATM   16  C   UNL     1      41.225 -16.427   5.455  1.00  0.00     0.224 C 
HETATM   17  N   UNL     1      41.121 -15.431   4.539  1.00  0.00    -0.327 N 
HETATM   18  H   UNL     1      41.153 -14.513   4.974  1.00  0.00     0.169 HD
HETATM   19  O   UNL     1      41.165 -16.149   6.661  1.00  0.00    -0.273 OA
BRANCH  17  20
HETATM   20  C   UNL     1      41.011 -15.412   3.133  1.00  0.00     0.034 A 
HETATM   21  C   UNL     1      39.831 -15.225   2.415  1.00  0.00     0.030 A 
HETATM   22  C   UNL     1      39.841 -15.221   1.012  1.00  0.00     0.009 A 
HETATM   23  C   UNL     1      41.031 -15.401   0.303  1.00  0.00    -0.062 A 
HETATM   24  C   UNL     1      41.031 -15.370  -1.197  1.00  0.00     0.048 C 
HETATM   25  C   UNL     1      42.220 -15.548   1.017  1.00  0.00     0.009 A 
HETATM   26  C   UNL     1      42.208 -15.552   2.416  1.00  0.00     0.030 A 
ENDBRANCH  17  20
ENDBRANCH  15  16
ENDBRANCH   1  15
TORSDOF 3
ENDMDL
MODEL 10
REMARK VINA RESULT:      -7.3      2.481      3.430
REMARK  3 active torsions:
REMARK  status: ('A' for Active; 'I' for Inactive)
REMARK    1  A    between atoms: C_5  and  N_6 
REMARK       I    between atoms: N_6  and  C_7 
REMARK    2  A    between atoms: C_7  and  C_8 
REMARK    3  A    between atoms: C_8  and  C_9 
ROOT
HETATM    1  C   UNL     1      40.119 -14.281   3.374  1.00  0.00     0.286 C 
HETATM    2  N   UNL     1      40.053 -12.760   3.420  1.00  0.00    -0.056 N 
HETATM    3  H   UNL     1      41.029 -12.442   3.608  1.00  0.00     0.278 HD
HETATM    4  H   UNL     1      39.803 -12.380   2.501  1.00  0.00     0.278 HD
HETATM    5  C   UNL     1      39.118 -12.266   4.495  1.00  0.00     0.209 C 
HETATM    6  C   UNL     1      39.597 -12.801   5.871  1.00  0.00     0.115 C 
HETATM    7  N   UNL     1      39.859 -14.241   5.846  1.00  0.00    -0.353 N 
HETATM    8  C   UNL     1      40.365 -14.915   4.760  1.00  0.00     0.249 C 
HETATM    9  O   UNL     1      40.883 -16.017   4.905  1.00  0.00    -0.271 OA
HETATM   10  C   UNL     1      39.039 -10.741   4.438  1.00  0.00     0.035 C 
HETATM   11  C   UNL     1      40.295 -10.052   4.963  1.00  0.00     0.002 C 
HETATM   12  C   UNL     1      40.656 -10.545   6.359  1.00  0.00     0.002 C 
HETATM   13  C   UNL     1      40.839 -12.059   6.388  1.00  0.00     0.027 C 
HETATM   14  H   UNL     1      40.037 -14.710   6.732  1.00  0.00     0.163 HD
ENDROOT
BRANCH   1  15
HETATM   15  C   UNL     1      41.135 -14.769   2.335  1.00  0.00     0.146 C 
BRANCH  15  16
HETATM   16  C   UNL     1      42.535 -14.354   2.710  1.00  0.00     0.224 C 
HETATM   17  N   UNL     1      43.524 -15.254   2.940  1.00  0.00    -0.327 N 
HETATM   18  H   UNL     1      44.364 -14.806   3.299  1.00  0.00     0.169 HD
HETATM   19  O   UNL     1      42.789 -13.143   2.775  1.00  0.00    -0.273 OA
BRANCH  17  20
HETATM   20  C   UNL     1      43.613 -16.655   2.814  1.00  0.00     0.034 A 
HETATM   21  C   UNL     1      43.592 -17.567   3.868  1.00  0.00     0.030 A 
HETATM   22  C   UNL     1      43.684 -18.945   3.623  1.00  0.00     0.009 A 
HETATM   23  C   UNL     1      43.796 -19.436   2.320  1.00  0.00    -0.062 A 
HETATM   24  C   UNL     1      43.869 -20.913   2.070  1.00  0.00     0.048 C 
HETATM   25  C   UNL     1      43.777 -18.529   1.259  1.00  0.00     0.009 A 
HETATM   26  C   UNL     1      43.685 -17.156   1.506  1.00  0.00     0.030 A 
ENDBRANCH  17  20
ENDBRANCH  15  16
ENDBRANCH   1  15
TORSDOF 3
ENDMDL
