MODEL 1
REMARK VINA RESULT:      -9.3      0.000      0.000
REMARK  4 active torsions:
REMARK  status: ('A' for Active; 'I' for Inactive)
REMARK    1  A    between atoms: N_4  and  C_5 
REMARK    2  A    between atoms: C_14  and  C_15 
REMARK       I    between atoms: C_15  and  N_16 
REMARK    3  A    between atoms: N_16  and  N_17 
REMARK       I    between atoms: N_17  and  C_18 
REMARK       I    between atoms: C_18  and  N_19 
REMARK    4  A    between atoms: N_19  and  C_20 
ROOT
HETATM    1  C   UNL     1      44.523 -12.929   8.073  1.00  0.00     0.277 C 
HETATM    2  N   UNL     1      43.661 -12.008   8.633  1.00  0.00    -0.261 N 
HETATM    3  O   UNL     1      45.673 -13.063   8.490  1.00  0.00    -0.265 OA
HETATM    4  H   UNL     1      42.742 -11.815   8.235  1.00  0.00     0.190 HD
ENDROOT
BRANCH   1   5
HETATM    5  C   UNL     1      43.968 -13.711   6.976  1.00  0.00     0.077 A 
HETATM    6  S   UNL     1      44.615 -15.284   6.571  1.00  0.00    -0.064 SA
HETATM    7  C   UNL     1      43.490 -15.468   5.358  1.00  0.00     0.113 A 
HETATM    8  N   UNL     1      43.099 -16.381   4.411  1.00  0.00    -0.226 N 
HETATM    9  C   UNL     1      42.681 -14.409   5.249  1.00  0.00     0.027 A 
HETATM   10  N   UNL     1      42.043 -15.856   3.681  1.00  0.00    -0.171 NA
HETATM   11  C   UNL     1      41.797 -14.643   4.212  1.00  0.00     0.064 A 
HETATM   12  C   UNL     1      40.722 -13.781   3.673  1.00  0.00     0.073 C 
HETATM   13  C   UNL     1      42.894 -13.372   6.151  1.00  0.00     0.041 A 
BRANCH   8  14
HETATM   14  C   UNL     1      43.588 -17.689   4.119  1.00  0.00     0.059 A 
HETATM   15  C   UNL     1      43.559 -18.145   2.790  1.00  0.00     0.031 A 
HETATM   16  C   UNL     1      44.014 -19.427   2.466  1.00  0.00     0.002 A 
HETATM   17  C   UNL     1      44.503 -20.266   3.463  1.00  0.00     0.000 A 
HETATM   18  C   UNL     1      44.539 -19.823   4.783  1.00  0.00     0.002 A 
HETATM   19  C   UNL     1      44.084 -18.542   5.113  1.00  0.00     0.031 A 
ENDBRANCH   8  14
ENDBRANCH   1   5
BRANCH   2  20
HETATM   20  N   UNL     1      44.131 -11.082   9.580  1.00  0.00    -0.249 N 
HETATM   21  C   UNL     1      43.216 -10.704  10.553  1.00  0.00     0.339 C 
HETATM   22  N   UNL     1      43.711  -9.715  11.371  1.00  0.00    -0.308 N 
HETATM   23  O   UNL     1      42.122 -11.256  10.633  1.00  0.00    -0.245 OA
HETATM   24  H   UNL     1      44.656  -9.416  11.182  1.00  0.00     0.170 HD
HETATM   25  H   UNL     1      44.811 -10.416   9.224  1.00  0.00     0.192 HD
BRANCH  22  26
HETATM   26  C   UNL     1      43.074  -9.128  12.485  1.00  0.00     0.036 A 
HETATM   27  C   UNL     1      42.372  -7.921  12.435  1.00  0.00     0.031 A 
HETATM   28  C   UNL     1      41.751  -7.409  13.580  1.00  0.00     0.026 A 
HETATM   29  C   UNL     1      41.833  -8.103  14.782  1.00  0.00     0.034 A 
HETATM   30 CL   UNL     1      41.066  -7.476  16.188  1.00  0.00    -0.084 Cl
HETATM   31  C   UNL     1      42.533  -9.304  14.851  1.00  0.00     0.026 A 
HETATM   32  C   UNL     1      43.152  -9.814  13.704  1.00  0.00     0.031 A 
ENDBRANCH  22  26
ENDBRANCH   2  20
TORSDOF 4
ENDMDL
MODEL 2
REMARK VINA RESULT:      -8.9      7.897     11.965
REMARK  4 active torsions:
REMARK  status: ('A' for Active; 'I' for Inactive)
REMARK    1  A    between atoms: N_4  and  C_5 
REMARK    2  A    between atoms: C_14  and  C_15 
REMARK       I    between atoms: C_15  and  N_16 
REMARK    3  A    between atoms: N_16  and  N_17 
REMARK       I    between atoms: N_17  and  C_18 
REMARK       I    between atoms: C_18  and  N_19 
REMARK    4  A    between atoms: N_19  and  C_20 
ROOT
HETATM    1  C   UNL     1      41.469 -14.628  -0.260  1.00  0.00     0.277 C 
HETATM    2  N   UNL     1      40.549 -15.296  -1.044  1.00  0.00    -0.261 N 
HETATM    3  O   UNL     1      41.814 -13.477  -0.524  1.00  0.00    -0.265 OA
HETATM    4  H   UNL     1      40.328 -16.281  -0.898  1.00  0.00     0.190 HD
ENDROOT
BRANCH   1   5
HETATM    5  C   UNL     1      41.981 -15.383   0.876  1.00  0.00     0.077 A 
HETATM    6  S   UNL     1      42.335 -17.089   0.740  1.00  0.00    -0.064 SA
HETATM    7  C   UNL     1      42.859 -17.136   2.320  1.00  0.00     0.113 A 
HETATM    8  N   UNL     1      43.382 -18.018   3.232  1.00  0.00    -0.226 N 
HETATM    9  C   UNL     1      42.764 -15.948   2.924  1.00  0.00     0.027 A 
HETATM   10  N   UNL     1      43.585 -17.361   4.436  1.00  0.00    -0.171 NA
HETATM   11  C   UNL     1      43.202 -16.086   4.228  1.00  0.00     0.064 A 
HETATM   12  C   UNL     1      43.277 -15.083   5.312  1.00  0.00     0.073 C 
HETATM   13  C   UNL     1      42.279 -14.898   2.151  1.00  0.00     0.041 A 
BRANCH   8  14
HETATM   14  C   UNL     1      43.727 -19.396   3.105  1.00  0.00     0.059 A 
HETATM   15  C   UNL     1      44.408 -20.027   4.160  1.00  0.00     0.031 A 
HETATM   16  C   UNL     1      44.777 -21.372   4.067  1.00  0.00     0.002 A 
HETATM   17  C   UNL     1      44.471 -22.102   2.922  1.00  0.00     0.000 A 
HETATM   18  C   UNL     1      43.794 -21.488   1.872  1.00  0.00     0.002 A 
HETATM   19  C   UNL     1      43.423 -20.142   1.960  1.00  0.00     0.031 A 
ENDBRANCH   8  14
ENDBRANCH   1   5
BRANCH   2  20
HETATM   20  N   UNL     1      40.113 -14.738  -2.257  1.00  0.00    -0.249 N 
HETATM   21  C   UNL     1      38.791 -14.314  -2.282  1.00  0.00     0.339 C 
HETATM   22  N   UNL     1      38.409 -13.887  -3.533  1.00  0.00    -0.308 N 
HETATM   23  O   UNL     1      38.113 -14.318  -1.258  1.00  0.00    -0.245 OA
HETATM   24  H   UNL     1      39.122 -13.913  -4.246  1.00  0.00     0.170 HD
HETATM   25  H   UNL     1      40.543 -15.136  -3.089  1.00  0.00     0.192 HD
BRANCH  22  26
HETATM   26  C   UNL     1      37.159 -13.353  -3.908  1.00  0.00     0.036 A 
HETATM   27  C   UNL     1      36.755 -12.044  -3.631  1.00  0.00     0.031 A 
HETATM   28  C   UNL     1      35.503 -11.579  -4.051  1.00  0.00     0.026 A 
HETATM   29  C   UNL     1      34.648 -12.425  -4.748  1.00  0.00     0.034 A 
HETATM   30 CL   UNL     1      33.112 -11.853  -5.269  1.00  0.00    -0.084 Cl
HETATM   31  C   UNL     1      35.031 -13.733  -5.028  1.00  0.00     0.026 A 
HETATM   32  C   UNL     1      36.284 -14.195  -4.608  1.00  0.00     0.031 A 
ENDBRANCH  22  26
ENDBRANCH   2  20
TORSDOF 4
ENDMDL
MODEL 3
REMARK VINA RESULT:      -8.6      1.403      3.023
REMARK  4 active torsions:
REMARK  status: ('A' for Active; 'I' for Inactive)
REMARK    1  A    between atoms: N_4  and  C_5 
REMARK    2  A    between atoms: C_14  and  C_15 
REMARK       I    between atoms: C_15  and  N_16 
REMARK    3  A    between atoms: N_16  and  N_17 
REMARK       I    between atoms: N_17  and  C_18 
REMARK       I    between atoms: C_18  and  N_19 
REMARK    4  A    between atoms: N_19  and  C_20 
ROOT
HETATM    1  C   UNL     1      44.627 -12.974   8.196  1.00  0.00     0.277 C 
HETATM    2  N   UNL     1      43.684 -12.035   8.561  1.00  0.00    -0.261 N 
HETATM    3  O   UNL     1      45.761 -12.958   8.673  1.00  0.00    -0.265 OA
HETATM    4  H   UNL     1      42.775 -11.974   8.101  1.00  0.00     0.190 HD
ENDROOT
BRANCH   1   5
HETATM    5  C   UNL     1      44.177 -13.962   7.224  1.00  0.00     0.077 A 
HETATM    6  S   UNL     1      43.142 -13.508   5.890  1.00  0.00    -0.064 SA
HETATM    7  C   UNL     1      43.151 -15.070   5.314  1.00  0.00     0.113 A 
HETATM    8  N   UNL     1      42.652 -15.814   4.273  1.00  0.00    -0.226 N 
HETATM    9  C   UNL     1      43.874 -15.892   6.080  1.00  0.00     0.027 A 
HETATM   10  N   UNL     1      43.056 -17.132   4.422  1.00  0.00    -0.171 NA
HETATM   11  C   UNL     1      43.810 -17.162   5.538  1.00  0.00     0.064 A 
HETATM   12  C   UNL     1      44.414 -18.426   6.013  1.00  0.00     0.073 C 
HETATM   13  C   UNL     1      44.498 -15.320   7.185  1.00  0.00     0.041 A 
BRANCH   8  14
HETATM   14  C   UNL     1      41.857 -15.433   3.152  1.00  0.00     0.059 A 
HETATM   15  C   UNL     1      42.302 -14.387   2.327  1.00  0.00     0.031 A 
HETATM   16  C   UNL     1      41.544 -13.973   1.227  1.00  0.00     0.002 A 
HETATM   17  C   UNL     1      40.336 -14.600   0.939  1.00  0.00     0.000 A 
HETATM   18  C   UNL     1      39.886 -15.641   1.748  1.00  0.00     0.002 A 
HETATM   19  C   UNL     1      40.641 -16.057   2.850  1.00  0.00     0.031 A 
ENDBRANCH   8  14
ENDBRANCH   1   5
BRANCH   2  20
HETATM   20  N   UNL     1      44.048 -10.936   9.357  1.00  0.00    -0.249 N 
HETATM   21  C   UNL     1      43.229 -10.692  10.451  1.00  0.00     0.339 C 
HETATM   22  N   UNL     1      43.582  -9.538  11.113  1.00  0.00    -0.308 N 
HETATM   23  O   UNL     1      42.333 -11.476  10.752  1.00  0.00    -0.245 OA
HETATM   24  H   UNL     1      44.381  -9.044  10.746  1.00  0.00     0.170 HD
HETATM   25  H   UNL     1      44.477 -10.166   8.851  1.00  0.00     0.192 HD
BRANCH  22  26
HETATM   26  C   UNL     1      42.998  -9.012  12.285  1.00  0.00     0.036 A 
HETATM   27  C   UNL     1      42.153  -7.899  12.303  1.00  0.00     0.031 A 
HETATM   28  C   UNL     1      41.598  -7.445  13.505  1.00  0.00     0.026 A 
HETATM   29  C   UNL     1      41.889  -8.102  14.696  1.00  0.00     0.034 A 
HETATM   30 CL   UNL     1      41.203  -7.547  16.172  1.00  0.00    -0.084 Cl
HETATM   31  C   UNL     1      42.734  -9.208  14.696  1.00  0.00     0.026 A 
HETATM   32  C   UNL     1      43.286  -9.661  13.493  1.00  0.00     0.031 A 
ENDBRANCH  22  26
ENDBRANCH   2  20
TORSDOF 4
ENDMDL
MODEL 4
REMARK VINA RESULT:      -8.4      7.508     10.838
REMARK  4 active torsions:
REMARK  status: ('A' for Active; 'I' for Inactive)
REMARK    1  A    between atoms: N_4  and  C_5 
REMARK    2  A    between atoms: C_14  and  C_15 
REMARK       I    between atoms: C_15  and  N_16 
REMARK    3  A    between atoms: N_16  and  N_17 
REMARK       I    between atoms: N_17  and  C_18 
REMARK       I    between atoms: C_18  and  N_19 
REMARK    4  A    between atoms: N_19  and  C_20 
ROOT
HETATM    1  C   UNL     1      40.673 -15.263   1.569  1.00  0.00     0.277 C 
HETATM    2  N   UNL     1      40.839 -15.569   0.233  1.00  0.00    -0.261 N 
HETATM    3  O   UNL     1      39.862 -14.412   1.932  1.00  0.00    -0.265 OA
HETATM    4  H   UNL     1      41.575 -16.196  -0.091  1.00  0.00     0.190 HD
ENDROOT
BRANCH   1   5
HETATM    5  C   UNL     1      41.517 -16.016   2.487  1.00  0.00     0.077 A 
HETATM    6  S   UNL     1      41.927 -17.686   2.173  1.00  0.00    -0.064 SA
HETATM    7  C   UNL     1      42.857 -17.748   3.553  1.00  0.00     0.113 A 
HETATM    8  N   UNL     1      43.659 -18.620   4.247  1.00  0.00    -0.226 N 
HETATM    9  C   UNL     1      42.854 -16.591   4.222  1.00  0.00     0.027 A 
HETATM   10  N   UNL     1      44.136 -17.990   5.387  1.00  0.00    -0.171 NA
HETATM   11  C   UNL     1      43.633 -16.741   5.355  1.00  0.00     0.064 A 
HETATM   12  C   UNL     1      43.933 -15.772   6.431  1.00  0.00     0.073 C 
HETATM   13  C   UNL     1      42.115 -15.554   3.661  1.00  0.00     0.041 A 
BRANCH   8  14
HETATM   14  C   UNL     1      44.042 -19.964   3.961  1.00  0.00     0.059 A 
HETATM   15  C   UNL     1      44.503 -20.777   5.009  1.00  0.00     0.031 A 
HETATM   16  C   UNL     1      44.902 -22.095   4.767  1.00  0.00     0.002 A 
HETATM   17  C   UNL     1      44.845 -22.615   3.477  1.00  0.00     0.000 A 
HETATM   18  C   UNL     1      44.386 -21.818   2.431  1.00  0.00     0.002 A 
HETATM   19  C   UNL     1      43.986 -20.499   2.668  1.00  0.00     0.031 A 
ENDBRANCH   8  14
ENDBRANCH   1   5
BRANCH   2  20
HETATM   20  N   UNL     1      40.208 -14.795  -0.755  1.00  0.00    -0.249 N 
HETATM   21  C   UNL     1      40.976 -13.774  -1.299  1.00  0.00     0.339 C 
HETATM   22  N   UNL     1      40.255 -12.993  -2.172  1.00  0.00    -0.308 N 
HETATM   23  O   UNL     1      42.165 -13.662  -1.010  1.00  0.00    -0.245 OA
HETATM   24  H   UNL     1      39.296 -13.267  -2.321  1.00  0.00     0.170 HD
HETATM   25  H   UNL     1      39.206 -14.676  -0.629  1.00  0.00     0.192 HD
BRANCH  22  26
HETATM   26  C   UNL     1      40.726 -11.903  -2.933  1.00  0.00     0.036 A 
HETATM   27  C   UNL     1      40.262 -10.592  -2.788  1.00  0.00     0.031 A 
HETATM   28  C   UNL     1      40.791  -9.558  -3.570  1.00  0.00     0.026 A 
HETATM   29  C   UNL     1      41.785  -9.832  -4.502  1.00  0.00     0.034 A 
HETATM   30 CL   UNL     1      42.438  -8.561  -5.458  1.00  0.00    -0.084 Cl
HETATM   31  C   UNL     1      42.255 -11.132  -4.663  1.00  0.00     0.026 A 
HETATM   32  C   UNL     1      41.726 -12.164  -3.880  1.00  0.00     0.031 A 
ENDBRANCH  22  26
ENDBRANCH   2  20
TORSDOF 4
ENDMDL
MODEL 5
REMARK VINA RESULT:      -8.4      7.279     10.159
REMARK  4 active torsions:
REMARK  status: ('A' for Active; 'I' for Inactive)
REMARK    1  A    between atoms: N_4  and  C_5 
REMARK    2  A    between atoms: C_14  and  C_15 
REMARK       I    between atoms: C_15  and  N_16 
REMARK    3  A    between atoms: N_16  and  N_17 
REMARK       I    between atoms: N_17  and  C_18 
REMARK       I    between atoms: C_18  and  N_19 
REMARK    4  A    between atoms: N_19  and  C_20 
ROOT
HETATM    1  C   UNL     1      42.503 -13.505   3.536  1.00  0.00     0.277 C 
HETATM    2  N   UNL     1      42.279 -13.493   2.174  1.00  0.00    -0.261 N 
HETATM    3  O   UNL     1      42.469 -12.467   4.197  1.00  0.00    -0.265 OA
HETATM    4  H   UNL     1      42.403 -14.326   1.598  1.00  0.00     0.190 HD
ENDROOT
BRANCH   1   5
HETATM    5  C   UNL     1      42.774 -14.816   4.110  1.00  0.00     0.077 A 
HETATM    6  S   UNL     1      43.016 -16.215   3.090  1.00  0.00    -0.064 SA
HETATM    7  C   UNL     1      43.283 -17.177   4.422  1.00  0.00     0.113 A 
HETATM    8  N   UNL     1      43.590 -18.477   4.741  1.00  0.00    -0.226 N 
HETATM    9  C   UNL     1      43.185 -16.498   5.569  1.00  0.00     0.027 A 
HETATM   10  N   UNL     1      43.652 -18.604   6.120  1.00  0.00    -0.171 NA
HETATM   11  C   UNL     1      43.403 -17.376   6.615  1.00  0.00     0.064 A 
HETATM   12  C   UNL     1      43.385 -17.133   8.074  1.00  0.00     0.073 C 
HETATM   13  C   UNL     1      42.906 -15.139   5.462  1.00  0.00     0.041 A 
BRANCH   8  14
HETATM   14  C   UNL     1      43.846 -19.606   3.907  1.00  0.00     0.059 A 
HETATM   15  C   UNL     1      44.552 -20.697   4.440  1.00  0.00     0.031 A 
HETATM   16  C   UNL     1      44.836 -21.816   3.651  1.00  0.00     0.002 A 
HETATM   17  C   UNL     1      44.419 -21.858   2.324  1.00  0.00     0.000 A 
HETATM   18  C   UNL     1      43.715 -20.782   1.787  1.00  0.00     0.002 A 
HETATM   19  C   UNL     1      43.429 -19.660   2.572  1.00  0.00     0.031 A 
ENDBRANCH   8  14
ENDBRANCH   1   5
BRANCH   2  20
HETATM   20  N   UNL     1      42.176 -12.275   1.483  1.00  0.00    -0.249 N 
HETATM   21  C   UNL     1      41.964 -12.377   0.115  1.00  0.00     0.339 C 
HETATM   22  N   UNL     1      41.988 -11.150  -0.506  1.00  0.00    -0.308 N 
HETATM   23  O   UNL     1      41.755 -13.469  -0.406  1.00  0.00    -0.245 OA
HETATM   24  H   UNL     1      42.128 -10.352   0.097  1.00  0.00     0.170 HD
HETATM   25  H   UNL     1      42.741 -11.519   1.863  1.00  0.00     0.192 HD
BRANCH  22  26
HETATM   26  C   UNL     1      41.768 -10.878  -1.872  1.00  0.00     0.036 A 
HETATM   27  C   UNL     1      42.777 -10.514  -2.768  1.00  0.00     0.031 A 
HETATM   28  C   UNL     1      42.483 -10.276  -4.115  1.00  0.00     0.026 A 
HETATM   29  C   UNL     1      41.175 -10.399  -4.572  1.00  0.00     0.034 A 
HETATM   30 CL   UNL     1      40.815 -10.111  -6.229  1.00  0.00    -0.084 Cl
HETATM   31  C   UNL     1      40.157 -10.755  -3.693  1.00  0.00     0.026 A 
HETATM   32  C   UNL     1      40.454 -10.994  -2.346  1.00  0.00     0.031 A 
ENDBRANCH  22  26
ENDBRANCH   2  20
TORSDOF 4
ENDMDL
MODEL 6
REMARK VINA RESULT:      -8.4      2.544      3.536
REMARK  4 active torsions:
REMARK  status: ('A' for Active; 'I' for Inactive)
REMARK    1  A    between atoms: N_4  and  C_5 
REMARK    2  A    between atoms: C_14  and  C_15 
REMARK       I    between atoms: C_15  and  N_16 
REMARK    3  A    between atoms: N_16  and  N_17 
REMARK       I    between atoms: N_17  and  C_18 
REMARK       I    between atoms: C_18  and  N_19 
REMARK    4  A    between atoms: N_19  and  C_20 
ROOT
HETATM    1  C   UNL     1      40.739 -13.245   4.921  1.00  0.00     0.277 C 
HETATM    2  N   UNL     1      41.575 -12.158   5.077  1.00  0.00    -0.261 N 
HETATM    3  O   UNL     1      39.664 -13.313   5.515  1.00  0.00    -0.265 OA
HETATM    4  H   UNL     1      42.511 -12.132   4.673  1.00  0.00     0.190 HD
ENDROOT
BRANCH   1   5
HETATM    5  C   UNL     1      41.225 -14.277   4.015  1.00  0.00     0.077 A 
HETATM    6  S   UNL     1      42.165 -15.628   4.607  1.00  0.00    -0.064 SA
HETATM    7  C   UNL     1      42.256 -16.274   3.075  1.00  0.00     0.113 A 
HETATM    8  N   UNL     1      42.769 -17.365   2.419  1.00  0.00    -0.226 N 
HETATM    9  C   UNL     1      41.632 -15.519   2.166  1.00  0.00     0.027 A 
HETATM   10  N   UNL     1      42.476 -17.261   1.067  1.00  0.00    -0.171 NA
HETATM   11  C   UNL     1      41.774 -16.120   0.929  1.00  0.00     0.064 A 
HETATM   12  C   UNL     1      41.290 -15.681  -0.398  1.00  0.00     0.073 C 
HETATM   13  C   UNL     1      41.011 -14.367   2.639  1.00  0.00     0.041 A 
BRANCH   8  14
HETATM   14  C   UNL     1      43.484 -18.497   2.909  1.00  0.00     0.059 A 
HETATM   15  C   UNL     1      43.628 -19.622   2.080  1.00  0.00     0.031 A 
HETATM   16  C   UNL     1      44.309 -20.757   2.530  1.00  0.00     0.002 A 
HETATM   17  C   UNL     1      44.854 -20.781   3.810  1.00  0.00     0.000 A 
HETATM   18  C   UNL     1      44.721 -19.670   4.639  1.00  0.00     0.002 A 
HETATM   19  C   UNL     1      44.040 -18.532   4.194  1.00  0.00     0.031 A 
ENDBRANCH   8  14
ENDBRANCH   1   5
BRANCH   2  20
HETATM   20  N   UNL     1      41.296 -11.183   6.049  1.00  0.00    -0.249 N 
HETATM   21  C   UNL     1      42.007 -11.299   7.236  1.00  0.00     0.339 C 
HETATM   22  N   UNL     1      41.597 -10.381   8.176  1.00  0.00    -0.308 N 
HETATM   23  O   UNL     1      42.905 -12.128   7.350  1.00  0.00    -0.245 OA
HETATM   24  H   UNL     1      40.872  -9.743   7.884  1.00  0.00     0.170 HD
HETATM   25  H   UNL     1      40.336 -10.846   6.053  1.00  0.00     0.192 HD
BRANCH  22  26
HETATM   26  C   UNL     1      42.127 -10.187   9.469  1.00  0.00     0.036 A 
HETATM   27  C   UNL     1      43.426 -10.541   9.841  1.00  0.00     0.031 A 
HETATM   28  C   UNL     1      43.887 -10.302  11.141  1.00  0.00     0.026 A 
HETATM   29  C   UNL     1      43.046  -9.708  12.076  1.00  0.00     0.034 A 
HETATM   30 CL   UNL     1      43.614  -9.408  13.671  1.00  0.00    -0.084 Cl
HETATM   31  C   UNL     1      41.747  -9.353  11.724  1.00  0.00     0.026 A 
HETATM   32  C   UNL     1      41.290  -9.592  10.423  1.00  0.00     0.031 A 
ENDBRANCH  22  26
ENDBRANCH   2  20
TORSDOF 4
ENDMDL
MODEL 7
REMARK VINA RESULT:      -8.4      1.739      2.411
REMARK  4 active torsions:
REMARK  status: ('A' for Active; 'I' for Inactive)
REMARK    1  A    between atoms: N_4  and  C_5 
REMARK    2  A    between atoms: C_14  and  C_15 
REMARK       I    between atoms: C_15  and  N_16 
REMARK    3  A    between atoms: N_16  and  N_17 
REMARK       I    between atoms: N_17  and  C_18 
REMARK       I    between atoms: C_18  and  N_19 
REMARK    4  A    between atoms: N_19  and  C_20 
ROOT
HETATM    1  C   UNL     1      41.548 -11.368   6.237  1.00  0.00     0.277 C 
HETATM    2  N   UNL     1      42.104 -11.389   7.501  1.00  0.00    -0.261 N 
HETATM    3  O   UNL     1      41.083 -10.333   5.762  1.00  0.00    -0.265 OA
HETATM    4  H   UNL     1      42.401 -12.257   7.947  1.00  0.00     0.190 HD
ENDROOT
BRANCH   1   5
HETATM    5  C   UNL     1      41.560 -12.643   5.532  1.00  0.00     0.077 A 
HETATM    6  S   UNL     1      42.737 -13.877   5.919  1.00  0.00    -0.064 SA
HETATM    7  C   UNL     1      42.073 -14.906   4.791  1.00  0.00     0.113 A 
HETATM    8  N   UNL     1      42.237 -16.175   4.294  1.00  0.00    -0.226 N 
HETATM    9  C   UNL     1      41.037 -14.357   4.148  1.00  0.00     0.027 A 
HETATM   10  N   UNL     1      41.297 -16.399   3.300  1.00  0.00    -0.171 NA
HETATM   11  C   UNL     1      40.565 -15.271   3.225  1.00  0.00     0.064 A 
HETATM   12  C   UNL     1      39.455 -15.148   2.254  1.00  0.00     0.073 C 
HETATM   13  C   UNL     1      40.684 -13.067   4.531  1.00  0.00     0.041 A 
BRANCH   8  14
HETATM   14  C   UNL     1      43.159 -17.204   4.650  1.00  0.00     0.059 A 
HETATM   15  C   UNL     1      43.860 -17.098   5.863  1.00  0.00     0.031 A 
HETATM   16  C   UNL     1      44.783 -18.078   6.241  1.00  0.00     0.002 A 
HETATM   17  C   UNL     1      45.016 -19.172   5.413  1.00  0.00     0.000 A 
HETATM   18  C   UNL     1      44.324 -19.289   4.210  1.00  0.00     0.002 A 
HETATM   19  C   UNL     1      43.400 -18.311   3.828  1.00  0.00     0.031 A 
ENDBRANCH   8  14
ENDBRANCH   1   5
BRANCH   2  20
HETATM   20  N   UNL     1      41.998 -10.268   8.340  1.00  0.00    -0.249 N 
HETATM   21  C   UNL     1      42.163 -10.517   9.696  1.00  0.00     0.339 C 
HETATM   22  N   UNL     1      41.932  -9.395  10.459  1.00  0.00    -0.308 N 
HETATM   23  O   UNL     1      42.507 -11.627  10.092  1.00  0.00    -0.245 OA
HETATM   24  H   UNL     1      41.704  -8.554   9.951  1.00  0.00     0.170 HD
HETATM   25  H   UNL     1      41.345  -9.556   8.021  1.00  0.00     0.192 HD
BRANCH  22  26
HETATM   26  C   UNL     1      42.052  -9.275  11.859  1.00  0.00     0.036 A 
HETATM   27  C   UNL     1      43.251  -9.443  12.558  1.00  0.00     0.031 A 
HETATM   28  C   UNL     1      43.293  -9.291  13.948  1.00  0.00     0.026 A 
HETATM   29  C   UNL     1      42.134  -8.973  14.647  1.00  0.00     0.034 A 
HETATM   30 CL   UNL     1      42.188  -8.781  16.356  1.00  0.00    -0.084 Cl
HETATM   31  C   UNL     1      40.931  -8.807  13.969  1.00  0.00     0.026 A 
HETATM   32  C   UNL     1      40.891  -8.958  12.578  1.00  0.00     0.031 A 
ENDBRANCH  22  26
ENDBRANCH   2  20
TORSDOF 4
ENDMDL
MODEL 8
REMARK VINA RESULT:      -8.3      3.167      3.937
REMARK  4 active torsions:
REMARK  status: ('A' for Active; 'I' for Inactive)
REMARK    1  A    between atoms: N_4  and  C_5 
REMARK    2  A    between atoms: C_14  and  C_15 
REMARK       I    between atoms: C_15  and  N_16 
REMARK    3  A    between atoms: N_16  and  N_17 
REMARK       I    between atoms: N_17  and  C_18 
REMARK       I    between atoms: C_18  and  N_19 
REMARK    4  A    between atoms: N_19  and  C_20 
ROOT
HETATM    1  C   UNL     1      39.683 -13.293   4.951  1.00  0.00     0.277 C 
HETATM    2  N   UNL     1      39.875 -13.621   6.278  1.00  0.00    -0.261 N 
HETATM    3  O   UNL     1      38.994 -12.326   4.626  1.00  0.00    -0.265 OA
HETATM    4  H   UNL     1      40.358 -14.474   6.560  1.00  0.00     0.190 HD
ENDROOT
BRANCH   1   5
HETATM    5  C   UNL     1      40.348 -14.165   3.993  1.00  0.00     0.077 A 
HETATM    6  S   UNL     1      41.318 -15.519   4.526  1.00  0.00    -0.064 SA
HETATM    7  C   UNL     1      41.633 -15.953   2.950  1.00  0.00     0.113 A 
HETATM    8  N   UNL     1      42.301 -16.915   2.234  1.00  0.00    -0.226 N 
HETATM    9  C   UNL     1      41.059 -15.127   2.070  1.00  0.00     0.027 A 
HETATM   10  N   UNL     1      42.157 -16.655   0.879  1.00  0.00    -0.171 NA
HETATM   11  C   UNL     1      41.387 -15.553   0.796  1.00  0.00     0.064 A 
HETATM   12  C   UNL     1      41.025 -14.976  -0.517  1.00  0.00     0.073 C 
HETATM   13  C   UNL     1      40.300 -14.088   2.600  1.00  0.00     0.041 A 
BRANCH   8  14
HETATM   14  C   UNL     1      43.043 -18.053   2.668  1.00  0.00     0.059 A 
HETATM   15  C   UNL     1      43.152 -19.161   1.810  1.00  0.00     0.031 A 
HETATM   16  C   UNL     1      43.857 -20.302   2.204  1.00  0.00     0.002 A 
HETATM   17  C   UNL     1      44.462 -20.349   3.457  1.00  0.00     0.000 A 
HETATM   18  C   UNL     1      44.363 -19.255   4.314  1.00  0.00     0.002 A 
HETATM   19  C   UNL     1      43.658 -18.112   3.924  1.00  0.00     0.031 A 
ENDBRANCH   8  14
ENDBRANCH   1   5
BRANCH   2  20
HETATM   20  N   UNL     1      39.151 -12.960   7.284  1.00  0.00    -0.249 N 
HETATM   21  C   UNL     1      39.846 -11.978   7.977  1.00  0.00     0.339 C 
HETATM   22  N   UNL     1      39.109 -11.459   9.016  1.00  0.00    -0.308 N 
HETATM   23  O   UNL     1      40.973 -11.642   7.625  1.00  0.00    -0.245 OA
HETATM   24  H   UNL     1      38.176 -11.828   9.125  1.00  0.00     0.170 HD
HETATM   25  H   UNL     1      38.457 -13.534   7.757  1.00  0.00     0.192 HD
BRANCH  22  26
HETATM   26  C   UNL     1      39.484 -10.422   9.895  1.00  0.00     0.036 A 
HETATM   27  C   UNL     1      39.408  -9.063   9.577  1.00  0.00     0.031 A 
HETATM   28  C   UNL     1      39.784  -8.090  10.510  1.00  0.00     0.026 A 
HETATM   29  C   UNL     1      40.240  -8.473  11.766  1.00  0.00     0.034 A 
HETATM   30 CL   UNL     1      40.696  -7.276  12.914  1.00  0.00    -0.084 Cl
HETATM   31  C   UNL     1      40.327  -9.821  12.098  1.00  0.00     0.026 A 
HETATM   32  C   UNL     1      39.950 -10.793  11.164  1.00  0.00     0.031 A 
ENDBRANCH  22  26
ENDBRANCH   2  20
TORSDOF 4
ENDMDL
MODEL 9
REMARK VINA RESULT:      -8.1      9.317     12.632
REMARK  4 active torsions:
REMARK  status: ('A' for Active; 'I' for Inactive)
REMARK    1  A    between atoms: N_4  and  C_5 
REMARK    2  A    between atoms: C_14  and  C_15 
REMARK       I    between atoms: C_15  and  N_16 
REMARK    3  A    between atoms: N_16  and  N_17 
REMARK       I    between atoms: N_17  and  C_18 
REMARK       I    between atoms: C_18  and  N_19 
REMARK    4  A    between atoms: N_19  and  C_20 
ROOT
HETATM    1  C   UNL     1      41.157 -14.856  -1.519  1.00  0.00     0.277 C 
HETATM    2  N   UNL     1      41.093 -14.936  -0.143  1.00  0.00    -0.261 N 
HETATM    3  O   UNL     1      40.897 -15.828  -2.227  1.00  0.00    -0.265 OA
HETATM    4  H   UNL     1      41.403 -14.172   0.459  1.00  0.00     0.190 HD
ENDROOT
BRANCH   1   5
HETATM    5  C   UNL     1      41.548 -13.556  -2.048  1.00  0.00     0.077 A 
HETATM    6  S   UNL     1      41.049 -13.044  -3.644  1.00  0.00    -0.064 SA
HETATM    7  C   UNL     1      41.815 -11.579  -3.445  1.00  0.00     0.113 A 
HETATM    8  N   UNL     1      42.026 -10.400  -4.115  1.00  0.00    -0.226 N 
HETATM    9  C   UNL     1      42.423 -11.479  -2.259  1.00  0.00     0.027 A 
HETATM   10  N   UNL     1      42.810  -9.566  -3.331  1.00  0.00    -0.171 NA
HETATM   11  C   UNL     1      43.043 -10.244  -2.191  1.00  0.00     0.064 A 
HETATM   12  C   UNL     1      43.860  -9.655  -1.109  1.00  0.00     0.073 C 
HETATM   13  C   UNL     1      42.301 -12.571  -1.407  1.00  0.00     0.041 A 
BRANCH   8  14
HETATM   14  C   UNL     1      41.570  -9.958  -5.392  1.00  0.00     0.059 A 
HETATM   15  C   UNL     1      40.264 -10.283  -5.797  1.00  0.00     0.031 A 
HETATM   16  C   UNL     1      39.784  -9.881  -7.047  1.00  0.00     0.002 A 
HETATM   17  C   UNL     1      40.601  -9.152  -7.906  1.00  0.00     0.000 A 
HETATM   18  C   UNL     1      41.896  -8.822  -7.513  1.00  0.00     0.002 A 
HETATM   19  C   UNL     1      42.381  -9.222  -6.264  1.00  0.00     0.031 A 
ENDBRANCH   8  14
ENDBRANCH   1   5
BRANCH   2  20
HETATM   20  N   UNL     1      40.894 -16.176   0.487  1.00  0.00    -0.249 N 
HETATM   21  C   UNL     1      42.009 -16.716   1.114  1.00  0.00     0.339 C 
HETATM   22  N   UNL     1      41.765 -17.977   1.607  1.00  0.00    -0.308 N 
HETATM   23  O   UNL     1      43.049 -16.070   1.208  1.00  0.00    -0.245 OA
HETATM   24  H   UNL     1      40.828 -18.330   1.475  1.00  0.00     0.170 HD
HETATM   25  H   UNL     1      40.213 -16.781   0.034  1.00  0.00     0.192 HD
BRANCH  22  26
HETATM   26  C   UNL     1      42.652 -18.797   2.334  1.00  0.00     0.036 A 
HETATM   27  C   UNL     1      43.311 -19.906   1.795  1.00  0.00     0.031 A 
HETATM   28  C   UNL     1      44.191 -20.663   2.576  1.00  0.00     0.026 A 
HETATM   29  C   UNL     1      44.413 -20.315   3.904  1.00  0.00     0.034 A 
HETATM   30 CL   UNL     1      45.499 -21.243   4.863  1.00  0.00    -0.084 Cl
HETATM   31  C   UNL     1      43.762 -19.218   4.459  1.00  0.00     0.026 A 
HETATM   32  C   UNL     1      42.883 -18.462   3.675  1.00  0.00     0.031 A 
ENDBRANCH  22  26
ENDBRANCH   2  20
TORSDOF 4
ENDMDL
MODEL 10
REMARK VINA RESULT:      -7.9      5.111     10.949
REMARK  4 active torsions:
REMARK  status: ('A' for Active; 'I' for Inactive)
REMARK    1  A    between atoms: N_4  and  C_5 
REMARK    2  A    between atoms: C_14  and  C_15 
REMARK       I    between atoms: C_15  and  N_16 
REMARK    3  A    between atoms: N_16  and  N_17 
REMARK       I    between atoms: N_17  and  C_18 
REMARK       I    between atoms: C_18  and  N_19 
REMARK    4  A    between atoms: N_19  and  C_20 
ROOT
HETATM    1  C   UNL     1      42.658 -13.408   3.554  1.00  0.00     0.277 C 
HETATM    2  N   UNL     1      42.085 -14.358   2.733  1.00  0.00    -0.261 N 
HETATM    3  O   UNL     1      43.879 -13.321   3.673  1.00  0.00    -0.265 OA
HETATM    4  H   UNL     1      41.076 -14.509   2.701  1.00  0.00     0.190 HD
ENDROOT
BRANCH   1   5
HETATM    5  C   UNL     1      41.717 -12.539   4.249  1.00  0.00     0.077 A 
HETATM    6  S   UNL     1      41.877 -12.221   5.961  1.00  0.00    -0.064 SA
HETATM    7  C   UNL     1      40.557 -11.208   5.926  1.00  0.00     0.113 A 
HETATM    8  N   UNL     1      39.825 -10.400   6.760  1.00  0.00    -0.226 N 
HETATM    9  C   UNL     1      40.015 -11.118   4.708  1.00  0.00     0.027 A 
HETATM   10  N   UNL     1      38.788  -9.824   6.041  1.00  0.00    -0.171 NA
HETATM   11  C   UNL     1      38.921 -10.275   4.779  1.00  0.00     0.064 A 
HETATM   12  C   UNL     1      37.973  -9.864   3.720  1.00  0.00     0.073 C 
HETATM   13  C   UNL     1      40.636 -11.847   3.699  1.00  0.00     0.041 A 
BRANCH   8  14
HETATM   14  C   UNL     1      39.990 -10.094   8.144  1.00  0.00     0.059 A 
HETATM   15  C   UNL     1      38.848  -9.956   8.951  1.00  0.00     0.031 A 
HETATM   16  C   UNL     1      38.967  -9.641  10.307  1.00  0.00     0.002 A 
HETATM   17  C   UNL     1      40.226  -9.461  10.873  1.00  0.00     0.000 A 
HETATM   18  C   UNL     1      41.365  -9.599  10.083  1.00  0.00     0.002 A 
HETATM   19  C   UNL     1      41.251  -9.913   8.725  1.00  0.00     0.031 A 
ENDBRANCH   8  14
ENDBRANCH   1   5
BRANCH   2  20
HETATM   20  N   UNL     1      42.878 -15.358   2.145  1.00  0.00    -0.249 N 
HETATM   21  C   UNL     1      42.862 -16.589   2.785  1.00  0.00     0.339 C 
HETATM   22  N   UNL     1      43.747 -17.478   2.219  1.00  0.00    -0.308 N 
HETATM   23  O   UNL     1      42.097 -16.798   3.722  1.00  0.00    -0.245 OA
HETATM   24  H   UNL     1      44.261 -17.140   1.419  1.00  0.00     0.170 HD
HETATM   25  H   UNL     1      43.725 -15.021   1.694  1.00  0.00     0.192 HD
BRANCH  22  26
HETATM   26  C   UNL     1      43.959 -18.823   2.585  1.00  0.00     0.036 A 
HETATM   27  C   UNL     1      43.691 -19.911   1.749  1.00  0.00     0.031 A 
HETATM   28  C   UNL     1      43.944 -21.219   2.177  1.00  0.00     0.026 A 
HETATM   29  C   UNL     1      44.463 -21.445   3.447  1.00  0.00     0.034 A 
HETATM   30 CL   UNL     1      44.779 -23.052   3.971  1.00  0.00    -0.084 Cl
HETATM   31  C   UNL     1      44.731 -20.374   4.295  1.00  0.00     0.026 A 
HETATM   32  C   UNL     1      44.479 -19.067   3.863  1.00  0.00     0.031 A 
ENDBRANCH  22  26
ENDBRANCH   2  20
TORSDOF 4
ENDMDL
