MODEL 1
REMARK VINA RESULT:      -9.3      0.000      0.000
REMARK  2 active torsions:
REMARK  status: ('A' for Active; 'I' for Inactive)
REMARK    1  A    between atoms: C_5  and  C_6 
REMARK    2  A    between atoms: C_17  and  O_18 
ROOT
HETATM    1  C   UNL     1      43.695 -17.902   6.160  1.00  0.00     0.200 C 
HETATM    2  N   UNL     1      44.533 -16.837   6.631  1.00  0.00    -0.336 N 
HETATM    3  C   UNL     1      44.222 -15.511   6.482  1.00  0.00     0.255 C 
HETATM    4  O   UNL     1      45.069 -14.632   6.609  1.00  0.00    -0.268 OA
HETATM    5  C   UNL     1      42.821 -15.194   6.163  1.00  0.00     0.053 A 
HETATM    6  C   UNL     1      41.910 -16.251   6.131  1.00  0.00     0.026 A 
HETATM    7  N   UNL     1      42.302 -17.560   6.449  1.00  0.00    -0.267 NA
HETATM    8  C   UNL     1      42.419 -13.877   5.916  1.00  0.00     0.019 A 
HETATM    9  C   UNL     1      41.077 -13.604   5.663  1.00  0.00     0.001 A 
HETATM   10  C   UNL     1      40.146 -14.641   5.675  1.00  0.00     0.002 A 
HETATM   11  C   UNL     1      40.558 -15.954   5.924  1.00  0.00     0.024 A 
HETATM   12  H   UNL     1      45.527 -17.003   6.627  1.00  0.00     0.164 HD
HETATM   13  H   UNL     1      41.647 -18.226   6.057  1.00  0.00     0.130 HD
ENDROOT
BRANCH   1  14
HETATM   14  C   UNL     1      43.875 -18.386   4.715  1.00  0.00     0.023 A 
HETATM   15  C   UNL     1      44.192 -19.771   4.465  1.00  0.00    -0.014 A 
HETATM   16  C   UNL     1      44.208 -20.250   3.127  1.00  0.00    -0.025 A 
HETATM   17  C   UNL     1      44.508 -20.724   5.471  1.00  0.00     0.013 A 
HETATM   18  C   UNL     1      44.455 -21.605   2.850  1.00  0.00     0.012 A 
HETATM   19  C   UNL     1      43.987 -19.370   2.064  1.00  0.00     0.015 A 
HETATM   20  C   UNL     1      44.720 -22.512   3.871  1.00  0.00     0.001 A 
HETATM   21  C   UNL     1      44.758 -22.068   5.183  1.00  0.00     0.001 A 
HETATM   22  C   UNL     1      43.776 -18.018   2.296  1.00  0.00     0.038 A 
HETATM   23  C   UNL     1      43.730 -17.535   3.602  1.00  0.00     0.076 A 
BRANCH  23  24
HETATM   24  O   UNL     1      43.583 -16.189   3.768  1.00  0.00    -0.360 OA
HETATM   25  H   UNL     1      44.331 -15.824   4.269  1.00  0.00     0.217 HD
ENDBRANCH  23  24
ENDBRANCH   1  14
TORSDOF 2
ENDMDL
MODEL 2
REMARK VINA RESULT:      -9.1      2.216      3.984
REMARK  2 active torsions:
REMARK  status: ('A' for Active; 'I' for Inactive)
REMARK    1  A    between atoms: C_5  and  C_6 
REMARK    2  A    between atoms: C_17  and  O_18 
ROOT
HETATM    1  C   UNL     1      42.033 -18.051   5.036  1.00  0.00     0.200 C 
HETATM    2  N   UNL     1      42.906 -18.510   6.080  1.00  0.00    -0.336 N 
HETATM    3  C   UNL     1      43.834 -17.711   6.691  1.00  0.00     0.255 C 
HETATM    4  O   UNL     1      44.759 -18.182   7.347  1.00  0.00    -0.268 OA
HETATM    5  C   UNL     1      43.666 -16.258   6.524  1.00  0.00     0.053 A 
HETATM    6  C   UNL     1      42.533 -15.812   5.842  1.00  0.00     0.026 A 
HETATM    7  N   UNL     1      41.558 -16.711   5.383  1.00  0.00    -0.267 NA
HETATM    8  C   UNL     1      44.604 -15.361   7.045  1.00  0.00     0.019 A 
HETATM    9  C   UNL     1      44.393 -13.990   6.911  1.00  0.00     0.001 A 
HETATM   10  C   UNL     1      43.242 -13.527   6.275  1.00  0.00     0.002 A 
HETATM   11  C   UNL     1      42.310 -14.433   5.759  1.00  0.00     0.024 A 
HETATM   12  H   UNL     1      43.192 -19.476   6.042  1.00  0.00     0.164 HD
HETATM   13  H   UNL     1      41.012 -16.288   4.643  1.00  0.00     0.130 HD
ENDROOT
BRANCH   1  14
HETATM   14  C   UNL     1      42.531 -18.123   3.587  1.00  0.00     0.023 A 
HETATM   15  C   UNL     1      41.885 -17.322   2.575  1.00  0.00    -0.014 A 
HETATM   16  C   UNL     1      42.441 -17.272   1.268  1.00  0.00    -0.025 A 
HETATM   17  C   UNL     1      40.699 -16.564   2.777  1.00  0.00     0.013 A 
HETATM   18  C   UNL     1      41.873 -16.458   0.274  1.00  0.00     0.012 A 
HETATM   19  C   UNL     1      43.561 -18.046   0.952  1.00  0.00     0.015 A 
HETATM   20  C   UNL     1      40.735 -15.700   0.528  1.00  0.00     0.001 A 
HETATM   21  C   UNL     1      40.140 -15.762   1.778  1.00  0.00     0.001 A 
HETATM   22  C   UNL     1      44.128 -18.891   1.897  1.00  0.00     0.038 A 
HETATM   23  C   UNL     1      43.613 -18.932   3.190  1.00  0.00     0.076 A 
BRANCH  23  24
HETATM   24  O   UNL     1      44.169 -19.826   4.058  1.00  0.00    -0.360 OA
HETATM   25  H   UNL     1      45.088 -19.581   4.259  1.00  0.00     0.217 HD
ENDBRANCH  23  24
ENDBRANCH   1  14
TORSDOF 2
ENDMDL
MODEL 3
REMARK VINA RESULT:      -8.8      2.666      4.737
REMARK  2 active torsions:
REMARK  status: ('A' for Active; 'I' for Inactive)
REMARK    1  A    between atoms: C_5  and  C_6 
REMARK    2  A    between atoms: C_17  and  O_18 
ROOT
HETATM    1  C   UNL     1      40.597 -15.927   5.204  1.00  0.00     0.200 C 
HETATM    2  N   UNL     1      39.847 -14.795   4.738  1.00  0.00    -0.336 N 
HETATM    3  C   UNL     1      39.947 -14.297   3.467  1.00  0.00     0.255 C 
HETATM    4  O   UNL     1      39.544 -13.173   3.181  1.00  0.00    -0.268 OA
HETATM    5  C   UNL     1      40.559 -15.178   2.460  1.00  0.00     0.053 A 
HETATM    6  C   UNL     1      40.900 -16.473   2.854  1.00  0.00     0.026 A 
HETATM    7  N   UNL     1      40.617 -16.939   4.147  1.00  0.00    -0.267 NA
HETATM    8  C   UNL     1      40.775 -14.734   1.150  1.00  0.00     0.019 A 
HETATM    9  C   UNL     1      41.313 -15.608   0.208  1.00  0.00     0.001 A 
HETATM   10  C   UNL     1      41.615 -16.919   0.573  1.00  0.00     0.002 A 
HETATM   11  C   UNL     1      41.394 -17.353   1.884  1.00  0.00     0.024 A 
HETATM   12  H   UNL     1      39.631 -14.081   5.417  1.00  0.00     0.164 HD
HETATM   13  H   UNL     1      41.211 -17.727   4.373  1.00  0.00     0.130 HD
ENDROOT
BRANCH   1  14
HETATM   14  C   UNL     1      41.995 -15.684   5.787  1.00  0.00     0.023 A 
HETATM   15  C   UNL     1      42.894 -16.799   5.962  1.00  0.00    -0.014 A 
HETATM   16  C   UNL     1      44.237 -16.554   6.357  1.00  0.00    -0.025 A 
HETATM   17  C   UNL     1      42.538 -18.163   5.778  1.00  0.00     0.013 A 
HETATM   18  C   UNL     1      45.156 -17.610   6.481  1.00  0.00     0.012 A 
HETATM   19  C   UNL     1      44.660 -15.252   6.638  1.00  0.00     0.015 A 
HETATM   20  C   UNL     1      44.773 -18.927   6.250  1.00  0.00     0.001 A 
HETATM   21  C   UNL     1      43.460 -19.206   5.910  1.00  0.00     0.001 A 
HETATM   22  C   UNL     1      43.772 -14.187   6.563  1.00  0.00     0.038 A 
HETATM   23  C   UNL     1      42.459 -14.405   6.152  1.00  0.00     0.076 A 
BRANCH  23  24
HETATM   24  O   UNL     1      41.615 -13.333   6.157  1.00  0.00    -0.360 OA
HETATM   25  H   UNL     1      41.074 -13.329   6.964  1.00  0.00     0.217 HD
ENDBRANCH  23  24
ENDBRANCH   1  14
TORSDOF 2
ENDMDL
MODEL 4
REMARK VINA RESULT:      -8.7      4.007      5.372
REMARK  2 active torsions:
REMARK  status: ('A' for Active; 'I' for Inactive)
REMARK    1  A    between atoms: C_5  and  C_6 
REMARK    2  A    between atoms: C_17  and  O_18 
ROOT
HETATM    1  C   UNL     1      40.166 -16.960   1.806  1.00  0.00     0.200 C 
HETATM    2  N   UNL     1      39.009 -16.123   1.953  1.00  0.00    -0.336 N 
HETATM    3  C   UNL     1      38.973 -14.811   1.561  1.00  0.00     0.255 C 
HETATM    4  O   UNL     1      38.105 -14.042   1.963  1.00  0.00    -0.268 OA
HETATM    5  C   UNL     1      40.026 -14.372   0.631  1.00  0.00     0.053 A 
HETATM    6  C   UNL     1      40.913 -15.338   0.154  1.00  0.00     0.026 A 
HETATM    7  N   UNL     1      40.771 -16.691   0.500  1.00  0.00    -0.267 NA
HETATM    8  C   UNL     1      40.121 -13.034   0.231  1.00  0.00     0.019 A 
HETATM    9  C   UNL     1      41.100 -12.659  -0.686  1.00  0.00     0.001 A 
HETATM   10  C   UNL     1      41.963 -13.620  -1.209  1.00  0.00     0.002 A 
HETATM   11  C   UNL     1      41.859 -14.955  -0.804  1.00  0.00     0.024 A 
HETATM   12  H   UNL     1      38.412 -16.306   2.744  1.00  0.00     0.164 HD
HETATM   13  H   UNL     1      41.649 -17.179   0.369  1.00  0.00     0.130 HD
ENDROOT
BRANCH   1  14
HETATM   14  C   UNL     1      41.211 -16.962   2.929  1.00  0.00     0.023 A 
HETATM   15  C   UNL     1      42.272 -17.939   2.908  1.00  0.00    -0.014 A 
HETATM   16  C   UNL     1      43.323 -17.844   3.861  1.00  0.00    -0.025 A 
HETATM   17  C   UNL     1      42.355 -19.026   1.996  1.00  0.00     0.013 A 
HETATM   18  C   UNL     1      44.402 -18.744   3.835  1.00  0.00     0.012 A 
HETATM   19  C   UNL     1      43.288 -16.857   4.849  1.00  0.00     0.015 A 
HETATM   20  C   UNL     1      44.463 -19.768   2.896  1.00  0.00     0.001 A 
HETATM   21  C   UNL     1      43.432 -19.917   1.983  1.00  0.00     0.001 A 
HETATM   22  C   UNL     1      42.220 -15.973   4.930  1.00  0.00     0.038 A 
HETATM   23  C   UNL     1      41.195 -16.034   3.989  1.00  0.00     0.076 A 
BRANCH  23  24
HETATM   24  O   UNL     1      40.140 -15.184   4.155  1.00  0.00    -0.360 OA
HETATM   25  H   UNL     1      39.748 -15.296   5.036  1.00  0.00     0.217 HD
ENDBRANCH  23  24
ENDBRANCH   1  14
TORSDOF 2
ENDMDL
MODEL 5
REMARK VINA RESULT:      -8.7      1.591      2.170
REMARK  2 active torsions:
REMARK  status: ('A' for Active; 'I' for Inactive)
REMARK    1  A    between atoms: C_5  and  C_6 
REMARK    2  A    between atoms: C_17  and  O_18 
ROOT
HETATM    1  C   UNL     1      41.585 -17.567   5.311  1.00  0.00     0.200 C 
HETATM    2  N   UNL     1      42.156 -17.984   6.561  1.00  0.00    -0.336 N 
HETATM    3  C   UNL     1      43.110 -17.265   7.231  1.00  0.00     0.255 C 
HETATM    4  O   UNL     1      43.794 -17.770   8.116  1.00  0.00    -0.268 OA
HETATM    5  C   UNL     1      43.272 -15.857   6.837  1.00  0.00     0.053 A 
HETATM    6  C   UNL     1      42.386 -15.345   5.887  1.00  0.00     0.026 A 
HETATM    7  N   UNL     1      41.342 -16.125   5.370  1.00  0.00    -0.267 NA
HETATM    8  C   UNL     1      44.270 -15.060   7.407  1.00  0.00     0.019 A 
HETATM    9  C   UNL     1      44.368 -13.718   7.048  1.00  0.00     0.001 A 
HETATM   10  C   UNL     1      43.461 -13.178   6.137  1.00  0.00     0.002 A 
HETATM   11  C   UNL     1      42.466 -13.983   5.573  1.00  0.00     0.024 A 
HETATM   12  H   UNL     1      42.242 -18.977   6.714  1.00  0.00     0.164 HD
HETATM   13  H   UNL     1      41.027 -15.747   4.485  1.00  0.00     0.130 HD
ENDROOT
BRANCH   1  14
HETATM   14  C   UNL     1      42.297 -17.973   4.014  1.00  0.00     0.023 A 
HETATM   15  C   UNL     1      43.287 -19.022   4.047  1.00  0.00    -0.014 A 
HETATM   16  C   UNL     1      43.833 -19.500   2.825  1.00  0.00    -0.025 A 
HETATM   17  C   UNL     1      43.783 -19.631   5.232  1.00  0.00     0.013 A 
HETATM   18  C   UNL     1      44.756 -20.560   2.814  1.00  0.00     0.012 A 
HETATM   19  C   UNL     1      43.466 -18.911   1.613  1.00  0.00     0.015 A 
HETATM   20  C   UNL     1      45.183 -21.154   3.998  1.00  0.00     0.001 A 
HETATM   21  C   UNL     1      44.705 -20.681   5.209  1.00  0.00     0.001 A 
HETATM   22  C   UNL     1      42.586 -17.837   1.586  1.00  0.00     0.038 A 
HETATM   23  C   UNL     1      42.019 -17.372   2.771  1.00  0.00     0.076 A 
BRANCH  23  24
HETATM   24  O   UNL     1      41.212 -16.275   2.692  1.00  0.00    -0.360 OA
HETATM   25  H   UNL     1      40.283 -16.542   2.593  1.00  0.00     0.217 HD
ENDBRANCH  23  24
ENDBRANCH   1  14
TORSDOF 2
ENDMDL
MODEL 6
REMARK VINA RESULT:      -8.6      2.428      3.473
REMARK  2 active torsions:
REMARK  status: ('A' for Active; 'I' for Inactive)
REMARK    1  A    between atoms: C_5  and  C_6 
REMARK    2  A    between atoms: C_17  and  O_18 
ROOT
HETATM    1  C   UNL     1      40.948 -17.193   4.804  1.00  0.00     0.200 C 
HETATM    2  N   UNL     1      40.388 -16.123   5.579  1.00  0.00    -0.336 N 
HETATM    3  C   UNL     1      40.640 -14.800   5.330  1.00  0.00     0.255 C 
HETATM    4  O   UNL     1      40.409 -13.932   6.167  1.00  0.00    -0.268 OA
HETATM    5  C   UNL     1      41.201 -14.473   4.010  1.00  0.00     0.053 A 
HETATM    6  C   UNL     1      41.341 -15.513   3.090  1.00  0.00     0.026 A 
HETATM    7  N   UNL     1      40.909 -16.814   3.391  1.00  0.00    -0.267 NA
HETATM    8  C   UNL     1      41.564 -13.161   3.687  1.00  0.00     0.019 A 
HETATM    9  C   UNL     1      42.048 -12.875   2.413  1.00  0.00     0.001 A 
HETATM   10  C   UNL     1      42.149 -13.893   1.466  1.00  0.00     0.002 A 
HETATM   11  C   UNL     1      41.782 -15.201   1.799  1.00  0.00     0.024 A 
HETATM   12  H   UNL     1      40.220 -16.308   6.556  1.00  0.00     0.164 HD
HETATM   13  H   UNL     1      41.377 -17.485   2.794  1.00  0.00     0.130 HD
ENDROOT
BRANCH   1  14
HETATM   14  C   UNL     1      42.322 -17.743   5.208  1.00  0.00     0.023 A 
HETATM   15  C   UNL     1      43.050 -18.583   4.288  1.00  0.00    -0.014 A 
HETATM   16  C   UNL     1      44.382 -18.965   4.599  1.00  0.00    -0.025 A 
HETATM   17  C   UNL     1      42.528 -19.083   3.063  1.00  0.00     0.013 A 
HETATM   18  C   UNL     1      45.141 -19.733   3.700  1.00  0.00     0.012 A 
HETATM   19  C   UNL     1      44.954 -18.588   5.817  1.00  0.00     0.015 A 
HETATM   20  C   UNL     1      44.603 -20.166   2.492  1.00  0.00     0.001 A 
HETATM   21  C   UNL     1      43.291 -19.851   2.179  1.00  0.00     0.001 A 
HETATM   22  C   UNL     1      44.224 -17.860   6.747  1.00  0.00     0.038 A 
HETATM   23  C   UNL     1      42.926 -17.454   6.448  1.00  0.00     0.076 A 
BRANCH  23  24
HETATM   24  O   UNL     1      42.234 -16.797   7.423  1.00  0.00    -0.360 OA
HETATM   25  H   UNL     1      41.642 -16.133   7.033  1.00  0.00     0.217 HD
ENDBRANCH  23  24
ENDBRANCH   1  14
TORSDOF 2
ENDMDL
MODEL 7
REMARK VINA RESULT:      -8.6      3.580      4.739
REMARK  2 active torsions:
REMARK  status: ('A' for Active; 'I' for Inactive)
REMARK    1  A    between atoms: C_5  and  C_6 
REMARK    2  A    between atoms: C_17  and  O_18 
ROOT
HETATM    1  C   UNL     1      40.181 -16.252   1.903  1.00  0.00     0.200 C 
HETATM    2  N   UNL     1      39.680 -15.643   3.102  1.00  0.00    -0.336 N 
HETATM    3  C   UNL     1      39.923 -14.340   3.444  1.00  0.00     0.255 C 
HETATM    4  O   UNL     1      39.753 -13.931   4.589  1.00  0.00    -0.268 OA
HETATM    5  C   UNL     1      40.394 -13.453   2.369  1.00  0.00     0.053 A 
HETATM    6  C   UNL     1      40.467 -13.982   1.079  1.00  0.00     0.026 A 
HETATM    7  N   UNL     1      40.049 -15.293   0.805  1.00  0.00    -0.267 NA
HETATM    8  C   UNL     1      40.742 -12.124   2.633  1.00  0.00     0.019 A 
HETATM    9  C   UNL     1      41.141 -11.296   1.585  1.00  0.00     0.001 A 
HETATM   10  C   UNL     1      41.172 -11.795   0.284  1.00  0.00     0.002 A 
HETATM   11  C   UNL     1      40.821 -13.125   0.031  1.00  0.00     0.024 A 
HETATM   12  H   UNL     1      39.577 -16.241   3.908  1.00  0.00     0.164 HD
HETATM   13  H   UNL     1      40.472 -15.623  -0.054  1.00  0.00     0.130 HD
ENDROOT
BRANCH   1  14
HETATM   14  C   UNL     1      41.576 -16.889   1.937  1.00  0.00     0.023 A 
HETATM   15  C   UNL     1      42.074 -17.439   3.175  1.00  0.00    -0.014 A 
HETATM   16  C   UNL     1      43.298 -18.163   3.171  1.00  0.00    -0.025 A 
HETATM   17  C   UNL     1      41.432 -17.308   4.436  1.00  0.00     0.013 A 
HETATM   18  C   UNL     1      43.783 -18.762   4.346  1.00  0.00     0.012 A 
HETATM   19  C   UNL     1      44.042 -18.278   1.995  1.00  0.00     0.015 A 
HETATM   20  C   UNL     1      43.099 -18.642   5.551  1.00  0.00     0.001 A 
HETATM   21  C   UNL     1      41.928 -17.904   5.599  1.00  0.00     0.001 A 
HETATM   22  C   UNL     1      43.613 -17.669   0.823  1.00  0.00     0.038 A 
HETATM   23  C   UNL     1      42.404 -16.979   0.800  1.00  0.00     0.076 A 
BRANCH  23  24
HETATM   24  O   UNL     1      42.064 -16.347  -0.360  1.00  0.00    -0.360 OA
HETATM   25  H   UNL     1      41.724 -15.456  -0.176  1.00  0.00     0.217 HD
ENDBRANCH  23  24
ENDBRANCH   1  14
TORSDOF 2
ENDMDL
MODEL 8
REMARK VINA RESULT:      -8.5      2.330      3.609
REMARK  2 active torsions:
REMARK  status: ('A' for Active; 'I' for Inactive)
REMARK    1  A    between atoms: C_5  and  C_6 
REMARK    2  A    between atoms: C_17  and  O_18 
ROOT
HETATM    1  C   UNL     1      43.316 -17.577   2.018  1.00  0.00     0.200 C 
HETATM    2  N   UNL     1      41.938 -17.519   1.620  1.00  0.00    -0.336 N 
HETATM    3  C   UNL     1      41.052 -16.593   2.104  1.00  0.00     0.255 C 
HETATM    4  O   UNL     1      39.839 -16.743   1.994  1.00  0.00    -0.268 OA
HETATM    5  C   UNL     1      41.629 -15.409   2.760  1.00  0.00     0.053 A 
HETATM    6  C   UNL     1      43.019 -15.278   2.755  1.00  0.00     0.026 A 
HETATM    7  N   UNL     1      43.835 -16.211   2.096  1.00  0.00    -0.267 NA
HETATM    8  C   UNL     1      40.808 -14.444   3.354  1.00  0.00     0.019 A 
HETATM    9  C   UNL     1      41.382 -13.311   3.926  1.00  0.00     0.001 A 
HETATM   10  C   UNL     1      42.765 -13.141   3.887  1.00  0.00     0.002 A 
HETATM   11  C   UNL     1      43.577 -14.112   3.289  1.00  0.00     0.024 A 
HETATM   12  H   UNL     1      41.494 -18.394   1.387  1.00  0.00     0.164 HD
HETATM   13  H   UNL     1      44.777 -16.172   2.464  1.00  0.00     0.130 HD
ENDROOT
BRANCH   1  14
HETATM   14  C   UNL     1      43.681 -18.397   3.262  1.00  0.00     0.023 A 
HETATM   15  C   UNL     1      43.969 -19.804   3.124  1.00  0.00    -0.014 A 
HETATM   16  C   UNL     1      44.454 -20.527   4.247  1.00  0.00    -0.025 A 
HETATM   17  C   UNL     1      43.796 -20.553   1.928  1.00  0.00     0.013 A 
HETATM   18  C   UNL     1      44.800 -21.885   4.135  1.00  0.00     0.012 A 
HETATM   19  C   UNL     1      44.583 -19.896   5.487  1.00  0.00     0.015 A 
HETATM   20  C   UNL     1      44.652 -22.568   2.933  1.00  0.00     0.001 A 
HETATM   21  C   UNL     1      44.138 -21.905   1.831  1.00  0.00     0.001 A 
HETATM   22  C   UNL     1      44.216 -18.566   5.646  1.00  0.00     0.038 A 
HETATM   23  C   UNL     1      43.765 -17.834   4.551  1.00  0.00     0.076 A 
BRANCH  23  24
HETATM   24  O   UNL     1      43.358 -16.551   4.778  1.00  0.00    -0.360 OA
HETATM   25  H   UNL     1      42.404 -16.523   4.959  1.00  0.00     0.217 HD
ENDBRANCH  23  24
ENDBRANCH   1  14
TORSDOF 2
ENDMDL
MODEL 9
REMARK VINA RESULT:      -8.4      2.409      3.951
REMARK  2 active torsions:
REMARK  status: ('A' for Active; 'I' for Inactive)
REMARK    1  A    between atoms: C_5  and  C_6 
REMARK    2  A    between atoms: C_17  and  O_18 
ROOT
HETATM    1  C   UNL     1      43.627 -14.396   4.726  1.00  0.00     0.200 C 
HETATM    2  N   UNL     1      43.651 -13.800   3.420  1.00  0.00    -0.336 N 
HETATM    3  C   UNL     1      42.551 -13.243   2.825  1.00  0.00     0.255 C 
HETATM    4  O   UNL     1      42.514 -13.021   1.619  1.00  0.00    -0.268 OA
HETATM    5  C   UNL     1      41.417 -12.923   3.706  1.00  0.00     0.053 A 
HETATM    6  C   UNL     1      41.585 -13.122   5.077  1.00  0.00     0.026 A 
HETATM    7  N   UNL     1      42.811 -13.556   5.604  1.00  0.00    -0.267 NA
HETATM    8  C   UNL     1      40.219 -12.422   3.184  1.00  0.00     0.019 A 
HETATM    9  C   UNL     1      39.180 -12.084   4.048  1.00  0.00     0.001 A 
HETATM   10  C   UNL     1      39.350 -12.231   5.424  1.00  0.00     0.002 A 
HETATM   11  C   UNL     1      40.551 -12.732   5.936  1.00  0.00     0.024 A 
HETATM   12  H   UNL     1      44.294 -14.196   2.751  1.00  0.00     0.164 HD
HETATM   13  H   UNL     1      42.672 -13.968   6.519  1.00  0.00     0.130 HD
ENDROOT
BRANCH   1  14
HETATM   14  C   UNL     1      43.250 -15.878   4.844  1.00  0.00     0.023 A 
HETATM   15  C   UNL     1      43.366 -16.733   3.688  1.00  0.00    -0.014 A 
HETATM   16  C   UNL     1      43.164 -18.132   3.834  1.00  0.00    -0.025 A 
HETATM   17  C   UNL     1      43.665 -16.282   2.373  1.00  0.00     0.013 A 
HETATM   18  C   UNL     1      43.325 -19.002   2.742  1.00  0.00     0.012 A 
HETATM   19  C   UNL     1      42.789 -18.662   5.072  1.00  0.00     0.015 A 
HETATM   20  C   UNL     1      43.660 -18.520   1.481  1.00  0.00     0.001 A 
HETATM   21  C   UNL     1      43.818 -17.156   1.293  1.00  0.00     0.001 A 
HETATM   22  C   UNL     1      42.583 -17.830   6.165  1.00  0.00     0.038 A 
HETATM   23  C   UNL     1      42.803 -16.460   6.047  1.00  0.00     0.076 A 
BRANCH  23  24
HETATM   24  O   UNL     1      42.524 -15.684   7.134  1.00  0.00    -0.360 OA
HETATM   25  H   UNL     1      43.342 -15.436   7.594  1.00  0.00     0.217 HD
ENDBRANCH  23  24
ENDBRANCH   1  14
TORSDOF 2
ENDMDL
MODEL 10
REMARK VINA RESULT:      -8.4      2.552      3.070
REMARK  2 active torsions:
REMARK  status: ('A' for Active; 'I' for Inactive)
REMARK    1  A    between atoms: C_5  and  C_6 
REMARK    2  A    between atoms: C_17  and  O_18 
ROOT
HETATM    1  C   UNL     1      41.889 -16.367   4.362  1.00  0.00     0.200 C 
HETATM    2  N   UNL     1      42.337 -15.036   4.663  1.00  0.00    -0.336 N 
HETATM    3  C   UNL     1      42.045 -13.949   3.883  1.00  0.00     0.255 C 
HETATM    4  O   UNL     1      42.674 -12.899   3.981  1.00  0.00    -0.268 OA
HETATM    5  C   UNL     1      40.939 -14.102   2.925  1.00  0.00     0.053 A 
HETATM    6  C   UNL     1      40.221 -15.298   2.952  1.00  0.00     0.026 A 
HETATM    7  N   UNL     1      40.503 -16.296   3.897  1.00  0.00    -0.267 NA
HETATM    8  C   UNL     1      40.613 -13.075   2.032  1.00  0.00     0.019 A 
HETATM    9  C   UNL     1      39.531 -13.233   1.169  1.00  0.00     0.001 A 
HETATM   10  C   UNL     1      38.773 -14.401   1.216  1.00  0.00     0.002 A 
HETATM   11  C   UNL     1      39.106 -15.421   2.114  1.00  0.00     0.024 A 
HETATM   12  H   UNL     1      43.226 -14.950   5.131  1.00  0.00     0.164 HD
HETATM   13  H   UNL     1      40.154 -17.191   3.576  1.00  0.00     0.130 HD
ENDROOT
BRANCH   1  14
HETATM   14  C   UNL     1      42.755 -17.236   3.443  1.00  0.00     0.023 A 
HETATM   15  C   UNL     1      43.428 -18.391   3.985  1.00  0.00    -0.014 A 
HETATM   16  C   UNL     1      44.104 -19.279   3.105  1.00  0.00    -0.025 A 
HETATM   17  C   UNL     1      43.482 -18.722   5.367  1.00  0.00     0.013 A 
HETATM   18  C   UNL     1      44.721 -20.445   3.592  1.00  0.00     0.012 A 
HETATM   19  C   UNL     1      44.173 -18.996   1.739  1.00  0.00     0.015 A 
HETATM   20  C   UNL     1      44.713 -20.750   4.949  1.00  0.00     0.001 A 
HETATM   21  C   UNL     1      44.104 -19.881   5.839  1.00  0.00     0.001 A 
HETATM   22  C   UNL     1      43.608 -17.836   1.226  1.00  0.00     0.038 A 
HETATM   23  C   UNL     1      42.919 -16.968   2.069  1.00  0.00     0.076 A 
BRANCH  23  24
HETATM   24  O   UNL     1      42.440 -15.812   1.523  1.00  0.00    -0.360 OA
HETATM   25  H   UNL     1      41.609 -15.551   1.954  1.00  0.00     0.217 HD
ENDBRANCH  23  24
ENDBRANCH   1  14
TORSDOF 2
ENDMDL
