MODEL 1
REMARK VINA RESULT:      -7.8      0.000      0.000
REMARK  1 active torsions:
REMARK  status: ('A' for Active; 'I' for Inactive)
REMARK    1  A    between atoms: C_8  and  C_9 
ROOT
HETATM    1  C   UNL     1      40.590 -15.767   6.020  1.00  0.00     0.073 C 
HETATM    2  C   UNL     1      41.568 -16.830   5.655  1.00  0.00     0.062 A 
HETATM    3  N   UNL     1      42.259 -17.432   6.624  1.00  0.00    -0.178 NA
HETATM    4  N   UNL     1      42.977 -18.351   5.979  1.00  0.00    -0.262 N 
HETATM    5  H   UNL     1      43.569 -18.960   6.530  1.00  0.00     0.191 HD
HETATM    6  C   UNL     1      42.822 -18.341   4.616  1.00  0.00     0.134 A 
HETATM    7  C   UNL     1      41.903 -17.339   4.347  1.00  0.00     0.032 A 
HETATM    8  C   UNL     1      41.230 -16.907   3.077  1.00  0.00     0.120 C 
HETATM    9  S   UNL     1      41.451 -17.955   1.619  1.00  0.00    -0.141 SA
HETATM   10  C   UNL     1      43.233 -18.289   1.571  1.00  0.00     0.136 C 
HETATM   11  C   UNL     1      44.188 -17.110   1.641  1.00  0.00     0.031 C 
HETATM   12  C   UNL     1      43.635 -19.393   2.529  1.00  0.00     0.236 C 
HETATM   13  O   UNL     1      44.204 -20.408   2.107  1.00  0.00    -0.272 OA
HETATM   14  N   UNL     1      43.511 -19.276   3.878  1.00  0.00    -0.311 N 
HETATM   15  H   UNL     1      43.966 -20.043   4.362  1.00  0.00     0.170 HD
ENDROOT
BRANCH   8  16
HETATM   16  C   UNL     1      41.423 -15.406   2.816  1.00  0.00    -0.029 A 
HETATM   17  C   UNL     1      40.365 -14.625   2.228  1.00  0.00    -0.018 A 
HETATM   18  C   UNL     1      40.569 -13.234   2.018  1.00  0.00    -0.025 A 
HETATM   19  C   UNL     1      39.101 -15.140   1.839  1.00  0.00     0.013 A 
HETATM   20  C   UNL     1      39.554 -12.437   1.459  1.00  0.00     0.012 A 
HETATM   21  C   UNL     1      41.783 -12.638   2.369  1.00  0.00     0.012 A 
HETATM   22  C   UNL     1      38.327 -12.983   1.095  1.00  0.00     0.001 A 
HETATM   23  C   UNL     1      38.100 -14.336   1.284  1.00  0.00     0.001 A 
HETATM   24  C   UNL     1      42.805 -13.386   2.935  1.00  0.00     0.002 A 
HETATM   25  C   UNL     1      42.626 -14.748   3.156  1.00  0.00     0.009 A 
ENDBRANCH   8  16
TORSDOF 1
ENDMDL
MODEL 2
REMARK VINA RESULT:      -7.5      2.112      3.899
REMARK  1 active torsions:
REMARK  status: ('A' for Active; 'I' for Inactive)
REMARK    1  A    between atoms: C_8  and  C_9 
ROOT
HETATM    1  C   UNL     1      43.906 -17.726   1.342  1.00  0.00     0.073 C 
HETATM    2  C   UNL     1      43.937 -18.183   2.759  1.00  0.00     0.062 A 
HETATM    3  N   UNL     1      44.375 -19.414   3.031  1.00  0.00    -0.178 NA
HETATM    4  N   UNL     1      44.334 -19.479   4.362  1.00  0.00    -0.262 N 
HETATM    5  H   UNL     1      44.656 -20.332   4.803  1.00  0.00     0.191 HD
HETATM    6  C   UNL     1      43.839 -18.355   4.972  1.00  0.00     0.134 A 
HETATM    7  C   UNL     1      43.549 -17.465   3.949  1.00  0.00     0.032 A 
HETATM    8  C   UNL     1      43.094 -16.036   3.959  1.00  0.00     0.120 C 
HETATM    9  S   UNL     1      43.084 -15.175   5.551  1.00  0.00    -0.141 SA
HETATM   10  C   UNL     1      42.277 -16.337   6.686  1.00  0.00     0.136 C 
HETATM   11  C   UNL     1      40.933 -16.918   6.285  1.00  0.00     0.031 C 
HETATM   12  C   UNL     1      43.228 -17.412   7.177  1.00  0.00     0.236 C 
HETATM   13  O   UNL     1      43.435 -17.554   8.389  1.00  0.00    -0.272 OA
HETATM   14  N   UNL     1      43.788 -18.332   6.347  1.00  0.00    -0.311 N 
HETATM   15  H   UNL     1      44.271 -19.058   6.867  1.00  0.00     0.170 HD
ENDROOT
BRANCH   8  16
HETATM   16  C   UNL     1      41.818 -15.841   3.125  1.00  0.00    -0.029 A 
HETATM   17  C   UNL     1      41.579 -14.599   2.436  1.00  0.00    -0.018 A 
HETATM   18  C   UNL     1      40.399 -14.459   1.656  1.00  0.00    -0.025 A 
HETATM   19  C   UNL     1      42.450 -13.479   2.465  1.00  0.00     0.013 A 
HETATM   20  C   UNL     1      40.138 -13.266   0.958  1.00  0.00     0.012 A 
HETATM   21  C   UNL     1      39.481 -15.510   1.569  1.00  0.00     0.012 A 
HETATM   22  C   UNL     1      41.022 -12.193   1.011  1.00  0.00     0.001 A 
HETATM   23  C   UNL     1      42.178 -12.298   1.765  1.00  0.00     0.001 A 
HETATM   24  C   UNL     1      39.708 -16.707   2.232  1.00  0.00     0.002 A 
HETATM   25  C   UNL     1      40.859 -16.870   2.996  1.00  0.00     0.009 A 
ENDBRANCH   8  16
TORSDOF 1
ENDMDL
MODEL 3
REMARK VINA RESULT:      -7.4      3.526      6.237
REMARK  1 active torsions:
REMARK  status: ('A' for Active; 'I' for Inactive)
REMARK    1  A    between atoms: C_8  and  C_9 
ROOT
HETATM    1  C   UNL     1      39.774 -17.270   2.037  1.00  0.00     0.073 C 
HETATM    2  C   UNL     1      39.960 -15.839   2.406  1.00  0.00     0.062 A 
HETATM    3  N   UNL     1      39.261 -14.907   1.754  1.00  0.00    -0.178 NA
HETATM    4  N   UNL     1      39.608 -13.770   2.357  1.00  0.00    -0.262 N 
HETATM    5  H   UNL     1      39.169 -12.915   2.039  1.00  0.00     0.191 HD
HETATM    6  C   UNL     1      40.545 -13.913   3.348  1.00  0.00     0.134 A 
HETATM    7  C   UNL     1      40.823 -15.270   3.414  1.00  0.00     0.032 A 
HETATM    8  C   UNL     1      41.665 -16.079   4.355  1.00  0.00     0.120 C 
HETATM    9  S   UNL     1      42.318 -15.240   5.820  1.00  0.00    -0.141 SA
HETATM   10  C   UNL     1      43.002 -13.687   5.181  1.00  0.00     0.136 C 
HETATM   11  C   UNL     1      43.974 -13.754   4.016  1.00  0.00     0.031 C 
HETATM   12  C   UNL     1      41.930 -12.639   4.955  1.00  0.00     0.236 C 
HETATM   13  O   UNL     1      41.995 -11.546   5.532  1.00  0.00    -0.272 OA
HETATM   14  N   UNL     1      40.937 -12.789   4.037  1.00  0.00    -0.311 N 
HETATM   15  H   UNL     1      40.407 -11.932   3.918  1.00  0.00     0.170 HD
ENDROOT
BRANCH   8  16
HETATM   16  C   UNL     1      42.694 -16.935   3.602  1.00  0.00    -0.029 A 
HETATM   17  C   UNL     1      43.265 -18.103   4.221  1.00  0.00    -0.018 A 
HETATM   18  C   UNL     1      44.200 -18.885   3.489  1.00  0.00    -0.025 A 
HETATM   19  C   UNL     1      42.959 -18.555   5.531  1.00  0.00     0.013 A 
HETATM   20  C   UNL     1      44.769 -20.040   4.055  1.00  0.00     0.012 A 
HETATM   21  C   UNL     1      44.564 -18.517   2.191  1.00  0.00     0.012 A 
HETATM   22  C   UNL     1      44.436 -20.449   5.343  1.00  0.00     0.001 A 
HETATM   23  C   UNL     1      43.532 -19.706   6.082  1.00  0.00     0.001 A 
HETATM   24  C   UNL     1      44.017 -17.392   1.591  1.00  0.00     0.002 A 
HETATM   25  C   UNL     1      43.096 -16.615   2.286  1.00  0.00     0.009 A 
ENDBRANCH   8  16
TORSDOF 1
ENDMDL
MODEL 4
REMARK VINA RESULT:      -7.4      2.434      3.460
REMARK  1 active torsions:
REMARK  status: ('A' for Active; 'I' for Inactive)
REMARK    1  A    between atoms: C_8  and  C_9 
ROOT
HETATM    1  C   UNL     1      42.925 -13.388   4.359  1.00  0.00     0.073 C 
HETATM    2  C   UNL     1      43.523 -14.353   5.322  1.00  0.00     0.062 A 
HETATM    3  N   UNL     1      44.499 -13.937   6.132  1.00  0.00    -0.178 NA
HETATM    4  N   UNL     1      44.759 -15.002   6.890  1.00  0.00    -0.262 N 
HETATM    5  H   UNL     1      45.463 -14.907   7.612  1.00  0.00     0.191 HD
HETATM    6  C   UNL     1      44.024 -16.118   6.577  1.00  0.00     0.134 A 
HETATM    7  C   UNL     1      43.194 -15.743   5.532  1.00  0.00     0.032 A 
HETATM    8  C   UNL     1      42.084 -16.462   4.823  1.00  0.00     0.120 C 
HETATM    9  S   UNL     1      41.530 -18.036   5.522  1.00  0.00    -0.141 SA
HETATM   10  C   UNL     1      43.063 -18.946   5.853  1.00  0.00     0.136 C 
HETATM   11  C   UNL     1      44.074 -19.086   4.728  1.00  0.00     0.031 C 
HETATM   12  C   UNL     1      43.723 -18.507   7.146  1.00  0.00     0.236 C 
HETATM   13  O   UNL     1      43.937 -19.329   8.047  1.00  0.00    -0.272 OA
HETATM   14  N   UNL     1      44.215 -17.252   7.330  1.00  0.00    -0.311 N 
HETATM   15  H   UNL     1      44.751 -17.185   8.190  1.00  0.00     0.170 HD
ENDROOT
BRANCH   8  16
HETATM   16  C   UNL     1      42.304 -16.485   3.303  1.00  0.00    -0.029 A 
HETATM   17  C   UNL     1      41.355 -15.859   2.418  1.00  0.00    -0.018 A 
HETATM   18  C   UNL     1      41.599 -15.881   1.018  1.00  0.00    -0.025 A 
HETATM   19  C   UNL     1      40.172 -15.199   2.839  1.00  0.00     0.013 A 
HETATM   20  C   UNL     1      40.703 -15.269   0.124  1.00  0.00     0.012 A 
HETATM   21  C   UNL     1      42.740 -16.509   0.509  1.00  0.00     0.012 A 
HETATM   22  C   UNL     1      39.555 -14.628   0.581  1.00  0.00     0.001 A 
HETATM   23  C   UNL     1      39.288 -14.594   1.939  1.00  0.00     0.001 A 
HETATM   24  C   UNL     1      43.656 -17.114   1.358  1.00  0.00     0.002 A 
HETATM   25  C   UNL     1      43.441 -17.100   2.733  1.00  0.00     0.009 A 
ENDBRANCH   8  16
TORSDOF 1
ENDMDL
MODEL 5
REMARK VINA RESULT:      -7.2      3.434      5.997
REMARK  1 active torsions:
REMARK  status: ('A' for Active; 'I' for Inactive)
REMARK    1  A    between atoms: C_8  and  C_9 
ROOT
HETATM    1  C   UNL     1      43.611 -13.598   4.960  1.00  0.00     0.073 C 
HETATM    2  C   UNL     1      42.507 -12.943   4.205  1.00  0.00     0.062 A 
HETATM    3  N   UNL     1      42.058 -11.756   4.616  1.00  0.00    -0.178 NA
HETATM    4  N   UNL     1      41.138 -11.431   3.708  1.00  0.00    -0.262 N 
HETATM    5  H   UNL     1      40.675 -10.536   3.804  1.00  0.00     0.191 HD
HETATM    6  C   UNL     1      40.930 -12.383   2.743  1.00  0.00     0.134 A 
HETATM    7  C   UNL     1      41.808 -13.416   3.034  1.00  0.00     0.032 A 
HETATM    8  C   UNL     1      42.150 -14.681   2.303  1.00  0.00     0.120 C 
HETATM    9  S   UNL     1      41.487 -14.883   0.632  1.00  0.00    -0.141 SA
HETATM   10  C   UNL     1      39.738 -14.429   0.784  1.00  0.00     0.136 C 
HETATM   11  C   UNL     1      38.911 -15.101   1.866  1.00  0.00     0.031 C 
HETATM   12  C   UNL     1      39.532 -12.927   0.775  1.00  0.00     0.236 C 
HETATM   13  O   UNL     1      38.809 -12.402  -0.082  1.00  0.00    -0.272 OA
HETATM   14  N   UNL     1      40.014 -12.114   1.753  1.00  0.00    -0.311 N 
HETATM   15  H   UNL     1      39.654 -11.169   1.662  1.00  0.00     0.170 HD
ENDROOT
BRANCH   8  16
HETATM   16  C   UNL     1      41.990 -15.916   3.203  1.00  0.00    -0.029 A 
HETATM   17  C   UNL     1      42.745 -17.114   2.939  1.00  0.00    -0.018 A 
HETATM   18  C   UNL     1      42.589 -18.232   3.803  1.00  0.00    -0.025 A 
HETATM   19  C   UNL     1      43.662 -17.271   1.867  1.00  0.00     0.013 A 
HETATM   20  C   UNL     1      43.319 -19.414   3.585  1.00  0.00     0.012 A 
HETATM   21  C   UNL     1      41.708 -18.170   4.886  1.00  0.00     0.012 A 
HETATM   22  C   UNL     1      44.212 -19.524   2.523  1.00  0.00     0.001 A 
HETATM   23  C   UNL     1      44.382 -18.453   1.662  1.00  0.00     0.001 A 
HETATM   24  C   UNL     1      40.977 -17.018   5.143  1.00  0.00     0.002 A 
HETATM   25  C   UNL     1      41.119 -15.909   4.315  1.00  0.00     0.009 A 
ENDBRANCH   8  16
TORSDOF 1
ENDMDL
MODEL 6
REMARK VINA RESULT:      -7.2      2.318      2.540
REMARK  1 active torsions:
REMARK  status: ('A' for Active; 'I' for Inactive)
REMARK    1  A    between atoms: C_8  and  C_9 
ROOT
HETATM    1  C   UNL     1      43.601 -16.305   7.265  1.00  0.00     0.073 C 
HETATM    2  C   UNL     1      44.053 -17.364   6.318  1.00  0.00     0.062 A 
HETATM    3  N   UNL     1      45.119 -18.101   6.635  1.00  0.00    -0.178 NA
HETATM    4  N   UNL     1      45.212 -18.973   5.631  1.00  0.00    -0.262 N 
HETATM    5  H   UNL     1      45.949 -19.666   5.674  1.00  0.00     0.191 HD
HETATM    6  C   UNL     1      44.276 -18.805   4.642  1.00  0.00     0.134 A 
HETATM    7  C   UNL     1      43.487 -17.739   5.045  1.00  0.00     0.032 A 
HETATM    8  C   UNL     1      42.238 -17.139   4.469  1.00  0.00     0.120 C 
HETATM    9  S   UNL     1      41.437 -18.026   3.111  1.00  0.00    -0.141 SA
HETATM   10  C   UNL     1      42.792 -18.432   1.977  1.00  0.00     0.136 C 
HETATM   11  C   UNL     1      43.715 -17.313   1.529  1.00  0.00     0.031 C 
HETATM   12  C   UNL     1      43.570 -19.653   2.427  1.00  0.00     0.236 C 
HETATM   13  O   UNL     1      43.667 -20.639   1.685  1.00  0.00    -0.272 OA
HETATM   14  N   UNL     1      44.288 -19.682   3.582  1.00  0.00    -0.311 N 
HETATM   15  H   UNL     1      44.860 -20.518   3.645  1.00  0.00     0.170 HD
ENDROOT
BRANCH   8  16
HETATM   16  C   UNL     1      42.390 -15.628   4.237  1.00  0.00    -0.029 A 
HETATM   17  C   UNL     1      41.440 -14.704   4.801  1.00  0.00    -0.018 A 
HETATM   18  C   UNL     1      41.622 -13.310   4.585  1.00  0.00    -0.025 A 
HETATM   19  C   UNL     1      40.315 -15.077   5.581  1.00  0.00     0.013 A 
HETATM   20  C   UNL     1      40.723 -12.376   5.130  1.00  0.00     0.012 A 
HETATM   21  C   UNL     1      42.702 -12.848   3.828  1.00  0.00     0.012 A 
HETATM   22  C   UNL     1      39.634 -12.786   5.893  1.00  0.00     0.001 A 
HETATM   23  C   UNL     1      39.428 -14.137   6.118  1.00  0.00     0.001 A 
HETATM   24  C   UNL     1      43.619 -13.735   3.282  1.00  0.00     0.002 A 
HETATM   25  C   UNL     1      43.466 -15.103   3.486  1.00  0.00     0.009 A 
ENDBRANCH   8  16
TORSDOF 1
ENDMDL
MODEL 7
REMARK VINA RESULT:      -7.2      4.465      6.857
REMARK  1 active torsions:
REMARK  status: ('A' for Active; 'I' for Inactive)
REMARK    1  A    between atoms: C_8  and  C_9 
ROOT
HETATM    1  C   UNL     1      43.203 -14.839   2.303  1.00  0.00     0.073 C 
HETATM    2  C   UNL     1      42.404 -13.598   2.504  1.00  0.00     0.062 A 
HETATM    3  N   UNL     1      42.478 -12.627   1.591  1.00  0.00    -0.178 NA
HETATM    4  N   UNL     1      41.616 -11.711   2.031  1.00  0.00    -0.262 N 
HETATM    5  H   UNL     1      41.483 -10.880   1.468  1.00  0.00     0.191 HD
HETATM    6  C   UNL     1      41.015 -12.020   3.224  1.00  0.00     0.134 A 
HETATM    7  C   UNL     1      41.514 -13.262   3.589  1.00  0.00     0.032 A 
HETATM    8  C   UNL     1      41.172 -14.190   4.716  1.00  0.00     0.120 C 
HETATM    9  S   UNL     1      39.721 -13.785   5.719  1.00  0.00    -0.141 SA
HETATM   10  C   UNL     1      39.911 -12.021   6.093  1.00  0.00     0.136 C 
HETATM   11  C   UNL     1      41.227 -11.548   6.683  1.00  0.00     0.031 C 
HETATM   12  C   UNL     1      39.465 -11.141   4.941  1.00  0.00     0.236 C 
HETATM   13  O   UNL     1      38.570 -10.302   5.108  1.00  0.00    -0.272 OA
HETATM   14  N   UNL     1      40.092 -11.137   3.734  1.00  0.00    -0.311 N 
HETATM   15  H   UNL     1      39.756 -10.384   3.142  1.00  0.00     0.170 HD
ENDROOT
BRANCH   8  16
HETATM   16  C   UNL     1      42.417 -14.577   5.529  1.00  0.00    -0.029 A 
HETATM   17  C   UNL     1      42.779 -15.962   5.696  1.00  0.00    -0.018 A 
HETATM   18  C   UNL     1      43.949 -16.285   6.436  1.00  0.00    -0.025 A 
HETATM   19  C   UNL     1      42.051 -17.057   5.162  1.00  0.00     0.013 A 
HETATM   20  C   UNL     1      44.341 -17.624   6.609  1.00  0.00     0.012 A 
HETATM   21  C   UNL     1      44.729 -15.272   7.000  1.00  0.00     0.012 A 
HETATM   22  C   UNL     1      43.599 -18.668   6.064  1.00  0.00     0.001 A 
HETATM   23  C   UNL     1      42.453 -18.385   5.342  1.00  0.00     0.001 A 
HETATM   24  C   UNL     1      44.384 -13.937   6.843  1.00  0.00     0.002 A 
HETATM   25  C   UNL     1      43.247 -13.596   6.117  1.00  0.00     0.009 A 
ENDBRANCH   8  16
TORSDOF 1
ENDMDL
MODEL 8
REMARK VINA RESULT:      -6.9      2.984      5.408
REMARK  1 active torsions:
REMARK  status: ('A' for Active; 'I' for Inactive)
REMARK    1  A    between atoms: C_8  and  C_9 
ROOT
HETATM    1  C   UNL     1      43.990 -18.387   3.535  1.00  0.00     0.073 C 
HETATM    2  C   UNL     1      43.501 -17.723   2.294  1.00  0.00     0.062 A 
HETATM    3  N   UNL     1      44.003 -18.102   1.117  1.00  0.00    -0.178 NA
HETATM    4  N   UNL     1      43.323 -17.375   0.232  1.00  0.00    -0.262 N 
HETATM    5  H   UNL     1      43.521 -17.519  -0.750  1.00  0.00     0.191 HD
HETATM    6  C   UNL     1      42.426 -16.496   0.785  1.00  0.00     0.134 A 
HETATM    7  C   UNL     1      42.513 -16.680   2.157  1.00  0.00     0.032 A 
HETATM    8  C   UNL     1      41.723 -16.113   3.299  1.00  0.00     0.120 C 
HETATM    9  S   UNL     1      40.240 -15.158   2.893  1.00  0.00    -0.141 SA
HETATM   10  C   UNL     1      40.778 -14.027   1.582  1.00  0.00     0.136 C 
HETATM   11  C   UNL     1      42.016 -13.181   1.824  1.00  0.00     0.031 C 
HETATM   12  C   UNL     1      40.817 -14.702   0.224  1.00  0.00     0.236 C 
HETATM   13  O   UNL     1      40.144 -14.254  -0.713  1.00  0.00    -0.272 OA
HETATM   14  N   UNL     1      41.665 -15.726  -0.063  1.00  0.00    -0.311 N 
HETATM   15  H   UNL     1      41.659 -15.948  -1.053  1.00  0.00     0.170 HD
ENDROOT
BRANCH   8  16
HETATM   16  C   UNL     1      42.633 -15.457   4.348  1.00  0.00    -0.029 A 
HETATM   17  C   UNL     1      42.810 -16.063   5.642  1.00  0.00    -0.018 A 
HETATM   18  C   UNL     1      43.676 -15.441   6.583  1.00  0.00    -0.025 A 
HETATM   19  C   UNL     1      42.183 -17.264   6.065  1.00  0.00     0.013 A 
HETATM   20  C   UNL     1      43.884 -16.010   7.852  1.00  0.00     0.012 A 
HETATM   21  C   UNL     1      44.337 -14.253   6.256  1.00  0.00     0.012 A 
HETATM   22  C   UNL     1      43.252 -17.192   8.224  1.00  0.00     0.001 A 
HETATM   23  C   UNL     1      42.400 -17.819   7.330  1.00  0.00     0.001 A 
HETATM   24  C   UNL     1      44.168 -13.666   5.011  1.00  0.00     0.002 A 
HETATM   25  C   UNL     1      43.331 -14.260   4.071  1.00  0.00     0.009 A 
ENDBRANCH   8  16
TORSDOF 1
ENDMDL
MODEL 9
REMARK VINA RESULT:      -6.7      3.357      4.941
REMARK  1 active torsions:
REMARK  status: ('A' for Active; 'I' for Inactive)
REMARK    1  A    between atoms: C_8  and  C_9 
ROOT
HETATM    1  C   UNL     1      40.985 -17.358   1.010  1.00  0.00     0.073 C 
HETATM    2  C   UNL     1      41.143 -16.749   2.360  1.00  0.00     0.062 A 
HETATM    3  N   UNL     1      41.145 -17.545   3.431  1.00  0.00    -0.178 NA
HETATM    4  N   UNL     1      41.365 -16.710   4.447  1.00  0.00    -0.262 N 
HETATM    5  H   UNL     1      41.437 -17.106   5.376  1.00  0.00     0.191 HD
HETATM    6  C   UNL     1      41.459 -15.389   4.089  1.00  0.00     0.134 A 
HETATM    7  C   UNL     1      41.306 -15.359   2.711  1.00  0.00     0.032 A 
HETATM    8  C   UNL     1      41.422 -14.246   1.712  1.00  0.00     0.120 C 
HETATM    9  S   UNL     1      42.065 -12.660   2.300  1.00  0.00    -0.141 SA
HETATM   10  C   UNL     1      41.146 -12.342   3.831  1.00  0.00     0.136 C 
HETATM   11  C   UNL     1      39.630 -12.423   3.791  1.00  0.00     0.031 C 
HETATM   12  C   UNL     1      41.716 -13.107   5.010  1.00  0.00     0.236 C 
HETATM   13  O   UNL     1      42.106 -12.501   6.016  1.00  0.00    -0.272 OA
HETATM   14  N   UNL     1      41.710 -14.466   5.077  1.00  0.00    -0.311 N 
HETATM   15  H   UNL     1      41.990 -14.795   5.995  1.00  0.00     0.170 HD
ENDROOT
BRANCH   8  16
HETATM   16  C   UNL     1      40.162 -14.135   0.839  1.00  0.00    -0.029 A 
HETATM   17  C   UNL     1      40.274 -14.025  -0.593  1.00  0.00    -0.018 A 
HETATM   18  C   UNL     1      39.088 -13.945  -1.373  1.00  0.00    -0.025 A 
HETATM   19  C   UNL     1      41.499 -13.997  -1.308  1.00  0.00     0.013 A 
HETATM   20  C   UNL     1      39.156 -13.850  -2.774  1.00  0.00     0.012 A 
HETATM   21  C   UNL     1      37.834 -13.964  -0.756  1.00  0.00     0.012 A 
HETATM   22  C   UNL     1      40.380 -13.830  -3.436  1.00  0.00     0.001 A 
HETATM   23  C   UNL     1      41.553 -13.903  -2.703  1.00  0.00     0.001 A 
HETATM   24  C   UNL     1      37.722 -14.069   0.623  1.00  0.00     0.002 A 
HETATM   25  C   UNL     1      38.869 -14.156   1.407  1.00  0.00     0.009 A 
ENDBRANCH   8  16
TORSDOF 1
ENDMDL
MODEL 10
REMARK VINA RESULT:      -6.5      4.338      6.393
REMARK  1 active torsions:
REMARK  status: ('A' for Active; 'I' for Inactive)
REMARK    1  A    between atoms: C_8  and  C_9 
ROOT
HETATM    1  C   UNL     1      40.322 -11.753   6.457  1.00  0.00     0.073 C 
HETATM    2  C   UNL     1      39.598 -11.780   5.155  1.00  0.00     0.062 A 
HETATM    3  N   UNL     1      38.448 -11.114   5.042  1.00  0.00    -0.178 NA
HETATM    4  N   UNL     1      38.104 -11.287   3.765  1.00  0.00    -0.262 N 
HETATM    5  H   UNL     1      37.259 -10.836   3.439  1.00  0.00     0.191 HD
HETATM    6  C   UNL     1      38.961 -12.083   3.048  1.00  0.00     0.134 A 
HETATM    7  C   UNL     1      39.967 -12.448   3.930  1.00  0.00     0.032 A 
HETATM    8  C   UNL     1      41.247 -13.206   3.736  1.00  0.00     0.120 C 
HETATM    9  S   UNL     1      41.743 -13.582   2.037  1.00  0.00    -0.141 SA
HETATM   10  C   UNL     1      40.239 -14.233   1.262  1.00  0.00     0.136 C 
HETATM   11  C   UNL     1      39.501 -15.363   1.960  1.00  0.00     0.031 C 
HETATM   12  C   UNL     1      39.293 -13.129   0.830  1.00  0.00     0.236 C 
HETATM   13  O   UNL     1      38.948 -13.032  -0.354  1.00  0.00    -0.272 OA
HETATM   14  N   UNL     1      38.690 -12.291   1.716  1.00  0.00    -0.311 N 
HETATM   15  H   UNL     1      37.982 -11.720   1.265  1.00  0.00     0.170 HD
ENDROOT
BRANCH   8  16
HETATM   16  C   UNL     1      41.356 -14.392   4.707  1.00  0.00    -0.029 A 
HETATM   17  C   UNL     1      42.557 -14.598   5.474  1.00  0.00    -0.018 A 
HETATM   18  C   UNL     1      42.618 -15.694   6.378  1.00  0.00    -0.025 A 
HETATM   19  C   UNL     1      43.711 -13.775   5.406  1.00  0.00     0.013 A 
HETATM   20  C   UNL     1      43.768 -15.921   7.154  1.00  0.00     0.012 A 
HETATM   21  C   UNL     1      41.529 -16.560   6.512  1.00  0.00     0.012 A 
HETATM   22  C   UNL     1      44.877 -15.085   7.059  1.00  0.00     0.001 A 
HETATM   23  C   UNL     1      44.849 -14.012   6.184  1.00  0.00     0.001 A 
HETATM   24  C   UNL     1      40.370 -16.364   5.774  1.00  0.00     0.002 A 
HETATM   25  C   UNL     1      40.285 -15.295   4.887  1.00  0.00     0.009 A 
ENDBRANCH   8  16
TORSDOF 1
ENDMDL
