MODEL 1
REMARK VINA RESULT:      -8.5      0.000      0.000
REMARK  2 active torsions:
REMARK  status: ('A' for Active; 'I' for Inactive)
REMARK    1  A    between atoms: C_11  and  N_12 
REMARK    2  A    between atoms: N_12  and  C_13 
ROOT
HETATM    1  C   UNL     1      44.499 -22.107   5.901  1.00  0.00     0.045 A 
HETATM    2  C   UNL     1      43.936 -21.076   6.641  1.00  0.00     0.117 A 
HETATM    3  F   UNL     1      43.573 -21.297   7.910  1.00  0.00    -0.206 F 
HETATM    4  C   UNL     1      43.748 -19.810   6.089  1.00  0.00     0.054 A 
HETATM    5  C   UNL     1      44.127 -19.544   4.762  1.00  0.00     0.001 A 
HETATM    6  C   UNL     1      44.650 -20.613   4.016  1.00  0.00     0.077 A 
HETATM    7  O   UNL     1      45.008 -20.448   2.704  1.00  0.00    -0.351 OA
HETATM    8  C   UNL     1      43.846 -20.316   1.879  1.00  0.00     0.175 C 
HETATM    9  C   UNL     1      43.466 -18.853   1.697  1.00  0.00     0.029 C 
HETATM   10  C   UNL     1      42.973 -18.179   2.982  1.00  0.00     0.032 C 
HETATM   11  C   UNL     1      44.018 -18.172   4.118  1.00  0.00     0.118 C 
HETATM   12  C   UNL     1      44.863 -21.874   4.579  1.00  0.00     0.040 A 
ENDROOT
BRANCH  11  13
HETATM   13  N   UNL     1      43.632 -17.132   5.073  1.00  0.00    -0.378 N 
HETATM   14  H   UNL     1      44.431 -16.680   5.513  1.00  0.00     0.160 HD
BRANCH  13  15
HETATM   15  C   UNL     1      42.435 -16.419   5.178  1.00  0.00     0.075 A 
HETATM   16  C   UNL     1      41.982 -15.299   4.581  1.00  0.00     0.131 A 
HETATM   17 CL   UNL     1      42.883 -14.396   3.409  1.00  0.00    -0.076 Cl
HETATM   18  C   UNL     1      40.639 -14.724   4.904  1.00  0.00     0.285 A 
HETATM   19  O   UNL     1      40.197 -13.709   4.374  1.00  0.00    -0.265 OA
HETATM   20  N   UNL     1      39.908 -15.396   5.849  1.00  0.00    -0.242 N 
HETATM   21  N   UNL     1      40.287 -16.535   6.475  1.00  0.00    -0.182 NA
HETATM   22  H   UNL     1      38.995 -15.020   6.086  1.00  0.00     0.192 HD
HETATM   23  C   UNL     1      41.450 -16.997   6.151  1.00  0.00     0.169 A 
ENDBRANCH  13  15
ENDBRANCH  11  13
TORSDOF 2
ENDMDL
MODEL 2
REMARK VINA RESULT:      -8.2      3.179      6.068
REMARK  2 active torsions:
REMARK  status: ('A' for Active; 'I' for Inactive)
REMARK    1  A    between atoms: C_11  and  N_12 
REMARK    2  A    between atoms: N_12  and  C_13 
ROOT
HETATM    1  C   UNL     1      41.947 -15.292   5.615  1.00  0.00     0.045 A 
HETATM    2  C   UNL     1      43.197 -15.893   5.544  1.00  0.00     0.117 A 
HETATM    3  F   UNL     1      44.106 -15.638   6.493  1.00  0.00    -0.206 F 
HETATM    4  C   UNL     1      43.521 -16.766   4.508  1.00  0.00     0.054 A 
HETATM    5  C   UNL     1      42.586 -17.061   3.501  1.00  0.00     0.001 A 
HETATM    6  C   UNL     1      41.345 -16.406   3.564  1.00  0.00     0.077 A 
HETATM    7  O   UNL     1      40.392 -16.609   2.601  1.00  0.00    -0.351 OA
HETATM    8  C   UNL     1      40.772 -15.975   1.376  1.00  0.00     0.175 C 
HETATM    9  C   UNL     1      41.529 -16.938   0.471  1.00  0.00     0.029 C 
HETATM   10  C   UNL     1      42.904 -17.342   1.014  1.00  0.00     0.032 C 
HETATM   11  C   UNL     1      42.844 -18.056   2.382  1.00  0.00     0.118 C 
HETATM   12  C   UNL     1      41.012 -15.552   4.618  1.00  0.00     0.040 A 
ENDROOT
BRANCH  11  13
HETATM   13  N   UNL     1      44.101 -18.787   2.558  1.00  0.00    -0.378 N 
HETATM   14  H   UNL     1      44.913 -18.175   2.597  1.00  0.00     0.160 HD
BRANCH  13  15
HETATM   15  C   UNL     1      44.322 -20.073   3.056  1.00  0.00     0.075 A 
HETATM   16  C   UNL     1      44.647 -20.537   4.279  1.00  0.00     0.131 A 
HETATM   17 CL   UNL     1      44.880 -19.526   5.666  1.00  0.00    -0.076 Cl
HETATM   18  C   UNL     1      44.852 -21.996   4.536  1.00  0.00     0.285 A 
HETATM   19  O   UNL     1      45.144 -22.450   5.640  1.00  0.00    -0.265 OA
HETATM   20  N   UNL     1      44.704 -22.826   3.455  1.00  0.00    -0.242 N 
HETATM   21  N   UNL     1      44.360 -22.436   2.205  1.00  0.00    -0.182 NA
HETATM   22  H   UNL     1      44.844 -23.820   3.608  1.00  0.00     0.192 HD
HETATM   23  C   UNL     1      44.182 -21.167   2.039  1.00  0.00     0.169 A 
ENDBRANCH  13  15
ENDBRANCH  11  13
TORSDOF 2
ENDMDL
MODEL 3
REMARK VINA RESULT:      -8.0      2.465      3.382
REMARK  2 active torsions:
REMARK  status: ('A' for Active; 'I' for Inactive)
REMARK    1  A    between atoms: C_11  and  N_12 
REMARK    2  A    between atoms: N_12  and  C_13 
ROOT
HETATM    1  C   UNL     1      44.863 -21.587   4.675  1.00  0.00     0.045 A 
HETATM    2  C   UNL     1      44.796 -20.679   3.626  1.00  0.00     0.117 A 
HETATM    3  F   UNL     1      45.257 -21.031   2.419  1.00  0.00    -0.206 F 
HETATM    4  C   UNL     1      44.249 -19.410   3.803  1.00  0.00     0.054 A 
HETATM    5  C   UNL     1      43.749 -19.014   5.056  1.00  0.00     0.001 A 
HETATM    6  C   UNL     1      43.870 -19.929   6.115  1.00  0.00     0.077 A 
HETATM    7  O   UNL     1      43.442 -19.607   7.375  1.00  0.00    -0.351 OA
HETATM    8  C   UNL     1      44.321 -18.651   7.975  1.00  0.00     0.175 C 
HETATM    9  C   UNL     1      43.839 -17.228   7.723  1.00  0.00     0.029 C 
HETATM   10  C   UNL     1      43.923 -16.801   6.253  1.00  0.00     0.032 C 
HETATM   11  C   UNL     1      43.075 -17.675   5.304  1.00  0.00     0.118 C 
HETATM   12  C   UNL     1      44.393 -21.211   5.929  1.00  0.00     0.040 A 
ENDROOT
BRANCH  11  13
HETATM   13  N   UNL     1      42.861 -16.915   4.071  1.00  0.00    -0.378 N 
HETATM   14  H   UNL     1      43.519 -17.161   3.335  1.00  0.00     0.160 HD
BRANCH  13  15
HETATM   15  C   UNL     1      41.722 -16.241   3.627  1.00  0.00     0.075 A 
HETATM   16  C   UNL     1      41.148 -15.076   3.989  1.00  0.00     0.131 A 
HETATM   17 CL   UNL     1      41.773 -14.033   5.223  1.00  0.00    -0.076 Cl
HETATM   18  C   UNL     1      39.886 -14.590   3.350  1.00  0.00     0.285 A 
HETATM   19  O   UNL     1      39.342 -13.532   3.656  1.00  0.00    -0.265 OA
HETATM   20  N   UNL     1      39.345 -15.403   2.388  1.00  0.00    -0.242 N 
HETATM   21  N   UNL     1      39.874 -16.573   1.958  1.00  0.00    -0.182 NA
HETATM   22  H   UNL     1      38.486 -15.094   1.945  1.00  0.00     0.192 HD
HETATM   23  C   UNL     1      40.971 -16.942   2.533  1.00  0.00     0.169 A 
ENDBRANCH  13  15
ENDBRANCH  11  13
TORSDOF 2
ENDMDL
MODEL 4
REMARK VINA RESULT:      -7.9      2.503      3.383
REMARK  2 active torsions:
REMARK  status: ('A' for Active; 'I' for Inactive)
REMARK    1  A    between atoms: C_11  and  N_12 
REMARK    2  A    between atoms: N_12  and  C_13 
ROOT
HETATM    1  C   UNL     1      44.865 -21.655   4.634  1.00  0.00     0.045 A 
HETATM    2  C   UNL     1      44.735 -20.746   3.592  1.00  0.00     0.117 A 
HETATM    3  F   UNL     1      45.171 -21.077   2.370  1.00  0.00    -0.206 F 
HETATM    4  C   UNL     1      44.151 -19.497   3.793  1.00  0.00     0.054 A 
HETATM    5  C   UNL     1      43.676 -19.124   5.062  1.00  0.00     0.001 A 
HETATM    6  C   UNL     1      43.860 -20.039   6.112  1.00  0.00     0.077 A 
HETATM    7  O   UNL     1      43.460 -19.736   7.386  1.00  0.00    -0.351 OA
HETATM    8  C   UNL     1      44.324 -18.753   7.965  1.00  0.00     0.175 C 
HETATM    9  C   UNL     1      43.786 -17.347   7.734  1.00  0.00     0.029 C 
HETATM   10  C   UNL     1      43.812 -16.911   6.265  1.00  0.00     0.032 C 
HETATM   11  C   UNL     1      42.965 -17.809   5.338  1.00  0.00     0.118 C 
HETATM   12  C   UNL     1      44.421 -21.301   5.904  1.00  0.00     0.040 A 
ENDROOT
BRANCH  11  13
HETATM   13  N   UNL     1      42.688 -17.052   4.116  1.00  0.00    -0.378 N 
HETATM   14  H   UNL     1      43.251 -17.357   3.324  1.00  0.00     0.160 HD
BRANCH  13  15
HETATM   15  C   UNL     1      41.564 -16.300   3.769  1.00  0.00     0.075 A 
HETATM   16  C   UNL     1      40.819 -16.231   2.648  1.00  0.00     0.131 A 
HETATM   17 CL   UNL     1      41.120 -17.175   1.227  1.00  0.00    -0.076 Cl
HETATM   18  C   UNL     1      39.655 -15.298   2.534  1.00  0.00     0.285 A 
HETATM   19  O   UNL     1      38.955 -15.215   1.528  1.00  0.00    -0.265 OA
HETATM   20  N   UNL     1      39.403 -14.513   3.629  1.00  0.00    -0.242 N 
HETATM   21  N   UNL     1      40.092 -14.541   4.794  1.00  0.00    -0.182 NA
HETATM   22  H   UNL     1      38.619 -13.869   3.570  1.00  0.00     0.192 HD
HETATM   23  C   UNL     1      41.080 -15.373   4.845  1.00  0.00     0.169 A 
ENDBRANCH  13  15
ENDBRANCH  11  13
TORSDOF 2
ENDMDL
MODEL 5
REMARK VINA RESULT:      -7.8      2.416      2.636
REMARK  2 active torsions:
REMARK  status: ('A' for Active; 'I' for Inactive)
REMARK    1  A    between atoms: C_11  and  N_12 
REMARK    2  A    between atoms: N_12  and  C_13 
ROOT
HETATM    1  C   UNL     1      44.623 -21.036   5.443  1.00  0.00     0.045 A 
HETATM    2  C   UNL     1      43.814 -20.278   6.279  1.00  0.00     0.117 A 
HETATM    3  F   UNL     1      43.605 -20.681   7.538  1.00  0.00    -0.206 F 
HETATM    4  C   UNL     1      43.222 -19.098   5.834  1.00  0.00     0.054 A 
HETATM    5  C   UNL     1      43.428 -18.642   4.521  1.00  0.00     0.001 A 
HETATM    6  C   UNL     1      44.211 -19.449   3.677  1.00  0.00     0.077 A 
HETATM    7  O   UNL     1      44.430 -19.096   2.372  1.00  0.00    -0.351 OA
HETATM    8  C   UNL     1      43.241 -19.274   1.597  1.00  0.00     0.175 C 
HETATM    9  C   UNL     1      42.425 -17.990   1.541  1.00  0.00     0.029 C 
HETATM   10  C   UNL     1      41.820 -17.585   2.891  1.00  0.00     0.032 C 
HETATM   11  C   UNL     1      42.874 -17.331   3.990  1.00  0.00     0.118 C 
HETATM   12  C   UNL     1      44.827 -20.617   4.132  1.00  0.00     0.040 A 
ENDROOT
BRANCH  11  13
HETATM   13  N   UNL     1      42.241 -16.524   5.035  1.00  0.00    -0.378 N 
HETATM   14  H   UNL     1      41.487 -17.014   5.512  1.00  0.00     0.160 HD
BRANCH  13  15
HETATM   15  C   UNL     1      42.732 -15.411   5.721  1.00  0.00     0.075 A 
HETATM   16  C   UNL     1      43.790 -15.231   6.536  1.00  0.00     0.131 A 
HETATM   17 CL   UNL     1      44.912 -16.483   6.954  1.00  0.00    -0.076 Cl
HETATM   18  C   UNL     1      44.077 -13.908   7.171  1.00  0.00     0.285 A 
HETATM   19  O   UNL     1      45.035 -13.712   7.914  1.00  0.00    -0.265 OA
HETATM   20  N   UNL     1      43.194 -12.899   6.886  1.00  0.00    -0.242 N 
HETATM   21  N   UNL     1      42.124 -12.998   6.064  1.00  0.00    -0.182 NA
HETATM   22  H   UNL     1      43.369 -11.993   7.311  1.00  0.00     0.192 HD
HETATM   23  C   UNL     1      41.928 -14.159   5.530  1.00  0.00     0.169 A 
ENDBRANCH  13  15
ENDBRANCH  11  13
TORSDOF 2
ENDMDL
MODEL 6
REMARK VINA RESULT:      -7.8      2.617      3.167
REMARK  2 active torsions:
REMARK  status: ('A' for Active; 'I' for Inactive)
REMARK    1  A    between atoms: C_11  and  N_12 
REMARK    2  A    between atoms: N_12  and  C_13 
ROOT
HETATM    1  C   UNL     1      43.767 -19.482   7.089  1.00  0.00     0.045 A 
HETATM    2  C   UNL     1      43.147 -18.298   6.713  1.00  0.00     0.117 A 
HETATM    3  F   UNL     1      42.526 -17.556   7.639  1.00  0.00    -0.206 F 
HETATM    4  C   UNL     1      43.166 -17.861   5.390  1.00  0.00     0.054 A 
HETATM    5  C   UNL     1      43.817 -18.613   4.397  1.00  0.00     0.001 A 
HETATM    6  C   UNL     1      44.396 -19.831   4.789  1.00  0.00     0.077 A 
HETATM    7  O   UNL     1      45.017 -20.641   3.875  1.00  0.00    -0.351 OA
HETATM    8  C   UNL     1      44.053 -21.265   3.021  1.00  0.00     0.175 C 
HETATM    9  C   UNL     1      43.826 -20.443   1.759  1.00  0.00     0.029 C 
HETATM   10  C   UNL     1      43.140 -19.097   2.015  1.00  0.00     0.032 C 
HETATM   11  C   UNL     1      43.939 -18.164   2.950  1.00  0.00     0.118 C 
HETATM   12  C   UNL     1      44.400 -20.254   6.120  1.00  0.00     0.040 A 
ENDROOT
BRANCH  11  13
HETATM   13  N   UNL     1      43.450 -16.799   2.742  1.00  0.00    -0.378 N 
HETATM   14  H   UNL     1      44.188 -16.101   2.796  1.00  0.00     0.160 HD
BRANCH  13  15
HETATM   15  C   UNL     1      42.281 -16.358   2.119  1.00  0.00     0.075 A 
HETATM   16  C   UNL     1      41.093 -15.935   2.596  1.00  0.00     0.131 A 
HETATM   17 CL   UNL     1      40.712 -15.824   4.282  1.00  0.00    -0.076 Cl
HETATM   18  C   UNL     1      39.978 -15.535   1.683  1.00  0.00     0.285 A 
HETATM   19  O   UNL     1      38.887 -15.141   2.087  1.00  0.00    -0.265 OA
HETATM   20  N   UNL     1      40.232 -15.636   0.340  1.00  0.00    -0.242 N 
HETATM   21  N   UNL     1      41.403 -16.031  -0.212  1.00  0.00    -0.182 NA
HETATM   22  H   UNL     1      39.486 -15.373  -0.297  1.00  0.00     0.192 HD
HETATM   23  C   UNL     1      42.338 -16.354   0.620  1.00  0.00     0.169 A 
ENDBRANCH  13  15
ENDBRANCH  11  13
TORSDOF 2
ENDMDL
MODEL 7
REMARK VINA RESULT:      -7.7      2.502      3.449
REMARK  2 active torsions:
REMARK  status: ('A' for Active; 'I' for Inactive)
REMARK    1  A    between atoms: C_11  and  N_12 
REMARK    2  A    between atoms: N_12  and  C_13 
ROOT
HETATM    1  C   UNL     1      44.721 -20.930   3.386  1.00  0.00     0.045 A 
HETATM    2  C   UNL     1      43.908 -20.117   2.608  1.00  0.00     0.117 A 
HETATM    3  F   UNL     1      43.775 -20.376   1.302  1.00  0.00    -0.206 F 
HETATM    4  C   UNL     1      43.220 -19.040   3.164  1.00  0.00     0.054 A 
HETATM    5  C   UNL     1      43.333 -18.748   4.534  1.00  0.00     0.001 A 
HETATM    6  C   UNL     1      44.197 -19.553   5.294  1.00  0.00     0.077 A 
HETATM    7  O   UNL     1      44.393 -19.312   6.628  1.00  0.00    -0.351 OA
HETATM    8  C   UNL     1      45.176 -18.129   6.815  1.00  0.00     0.175 C 
HETATM    9  C   UNL     1      44.287 -16.904   6.983  1.00  0.00     0.029 C 
HETATM   10  C   UNL     1      43.512 -16.526   5.716  1.00  0.00     0.032 C 
HETATM   11  C   UNL     1      42.559 -17.635   5.220  1.00  0.00     0.118 C 
HETATM   12  C   UNL     1      44.865 -20.649   4.741  1.00  0.00     0.040 A 
ENDROOT
BRANCH  11  13
HETATM   13  N   UNL     1      41.570 -17.012   4.339  1.00  0.00    -0.378 N 
HETATM   14  H   UNL     1      40.683 -17.511   4.321  1.00  0.00     0.160 HD
BRANCH  13  15
HETATM   15  C   UNL     1      41.504 -15.702   3.860  1.00  0.00     0.075 A 
HETATM   16  C   UNL     1      42.271 -15.003   2.999  1.00  0.00     0.131 A 
HETATM   17 CL   UNL     1      43.662 -15.652   2.197  1.00  0.00    -0.076 Cl
HETATM   18  C   UNL     1      41.983 -13.572   2.674  1.00  0.00     0.285 A 
HETATM   19  O   UNL     1      42.660 -12.910   1.891  1.00  0.00    -0.265 OA
HETATM   20  N   UNL     1      40.905 -13.014   3.312  1.00  0.00    -0.242 N 
HETATM   21  N   UNL     1      40.079 -13.656   4.171  1.00  0.00    -0.182 NA
HETATM   22  H   UNL     1      40.695 -12.041   3.108  1.00  0.00     0.192 HD
HETATM   23  C   UNL     1      40.365 -14.895   4.408  1.00  0.00     0.169 A 
ENDBRANCH  13  15
ENDBRANCH  11  13
TORSDOF 2
ENDMDL
MODEL 8
REMARK VINA RESULT:      -7.6      3.310      4.244
REMARK  2 active torsions:
REMARK  status: ('A' for Active; 'I' for Inactive)
REMARK    1  A    between atoms: C_11  and  N_12 
REMARK    2  A    between atoms: N_12  and  C_13 
ROOT
HETATM    1  C   UNL     1      42.244 -17.463   7.037  1.00  0.00     0.045 A 
HETATM    2  C   UNL     1      41.239 -17.113   6.146  1.00  0.00     0.117 A 
HETATM    3  F   UNL     1      40.081 -16.629   6.614  1.00  0.00    -0.206 F 
HETATM    4  C   UNL     1      41.414 -17.247   4.770  1.00  0.00     0.054 A 
HETATM    5  C   UNL     1      42.620 -17.743   4.247  1.00  0.00     0.001 A 
HETATM    6  C   UNL     1      43.606 -18.136   5.167  1.00  0.00     0.077 A 
HETATM    7  O   UNL     1      44.796 -18.665   4.740  1.00  0.00    -0.351 OA
HETATM    8  C   UNL     1      44.604 -19.990   4.235  1.00  0.00     0.175 C 
HETATM    9  C   UNL     1      44.363 -19.973   2.731  1.00  0.00     0.029 C 
HETATM   10  C   UNL     1      43.033 -19.326   2.327  1.00  0.00     0.032 C 
HETATM   11  C   UNL     1      42.908 -17.849   2.759  1.00  0.00     0.118 C 
HETATM   12  C   UNL     1      43.439 -17.976   6.544  1.00  0.00     0.040 A 
ENDROOT
BRANCH  11  13
HETATM   13  N   UNL     1      41.864 -17.232   1.938  1.00  0.00    -0.378 N 
HETATM   14  H   UNL     1      40.938 -17.612   2.124  1.00  0.00     0.160 HD
BRANCH  13  15
HETATM   15  C   UNL     1      41.862 -16.004   1.274  1.00  0.00     0.075 A 
HETATM   16  C   UNL     1      42.221 -14.760   1.649  1.00  0.00     0.131 A 
HETATM   17 CL   UNL     1      42.847 -14.365   3.215  1.00  0.00    -0.076 Cl
HETATM   18  C   UNL     1      42.089 -13.592   0.724  1.00  0.00     0.285 A 
HETATM   19  O   UNL     1      42.413 -12.449   1.034  1.00  0.00    -0.265 OA
HETATM   20  N   UNL     1      41.571 -13.861  -0.516  1.00  0.00    -0.242 N 
HETATM   21  N   UNL     1      41.207 -15.083  -0.970  1.00  0.00    -0.182 NA
HETATM   22  H   UNL     1      41.469 -13.080  -1.158  1.00  0.00     0.192 HD
HETATM   23  C   UNL     1      41.353 -16.060  -0.136  1.00  0.00     0.169 A 
ENDBRANCH  13  15
ENDBRANCH  11  13
TORSDOF 2
ENDMDL
MODEL 9
REMARK VINA RESULT:      -7.3      3.700      6.926
REMARK  2 active torsions:
REMARK  status: ('A' for Active; 'I' for Inactive)
REMARK    1  A    between atoms: C_11  and  N_12 
REMARK    2  A    between atoms: N_12  and  C_13 
ROOT
HETATM    1  C   UNL     1      41.306 -13.843   1.356  1.00  0.00     0.045 A 
HETATM    2  C   UNL     1      41.763 -14.965   0.679  1.00  0.00     0.117 A 
HETATM    3  F   UNL     1      41.718 -14.992  -0.659  1.00  0.00    -0.206 F 
HETATM    4  C   UNL     1      42.276 -16.064   1.365  1.00  0.00     0.054 A 
HETATM    5  C   UNL     1      42.345 -16.064   2.769  1.00  0.00     0.001 A 
HETATM    6  C   UNL     1      41.833 -14.938   3.437  1.00  0.00     0.077 A 
HETATM    7  O   UNL     1      41.828 -14.875   4.805  1.00  0.00    -0.351 OA
HETATM    8  C   UNL     1      40.843 -15.761   5.345  1.00  0.00     0.175 C 
HETATM    9  C   UNL     1      41.447 -17.123   5.664  1.00  0.00     0.029 C 
HETATM   10  C   UNL     1      41.880 -17.911   4.423  1.00  0.00     0.032 C 
HETATM   11  C   UNL     1      42.956 -17.194   3.579  1.00  0.00     0.118 C 
HETATM   12  C   UNL     1      41.344 -13.827   2.746  1.00  0.00     0.040 A 
ENDROOT
BRANCH  11  13
HETATM   13  N   UNL     1      43.606 -18.201   2.738  1.00  0.00    -0.378 N 
HETATM   14  H   UNL     1      44.132 -17.794   1.967  1.00  0.00     0.160 HD
BRANCH  13  15
HETATM   15  C   UNL     1      43.940 -19.525   3.031  1.00  0.00     0.075 A 
HETATM   16  C   UNL     1      44.531 -20.106   4.094  1.00  0.00     0.131 A 
HETATM   17 CL   UNL     1      45.058 -19.243   5.500  1.00  0.00    -0.076 Cl
HETATM   18  C   UNL     1      44.798 -21.577   4.137  1.00  0.00     0.285 A 
HETATM   19  O   UNL     1      45.329 -22.137   5.092  1.00  0.00    -0.265 OA
HETATM   20  N   UNL     1      44.421 -22.291   3.029  1.00  0.00    -0.242 N 
HETATM   21  N   UNL     1      43.806 -21.782   1.936  1.00  0.00    -0.182 NA
HETATM   22  H   UNL     1      44.597 -23.291   3.036  1.00  0.00     0.192 HD
HETATM   23  C   UNL     1      43.587 -20.508   1.954  1.00  0.00     0.169 A 
ENDBRANCH  13  15
ENDBRANCH  11  13
TORSDOF 2
ENDMDL
MODEL 10
REMARK VINA RESULT:      -7.3      3.506      4.501
REMARK  2 active torsions:
REMARK  status: ('A' for Active; 'I' for Inactive)
REMARK    1  A    between atoms: C_11  and  N_12 
REMARK    2  A    between atoms: N_12  and  C_13 
ROOT
HETATM    1  C   UNL     1      44.674 -19.969   4.087  1.00  0.00     0.045 A 
HETATM    2  C   UNL     1      43.884 -19.790   2.960  1.00  0.00     0.117 A 
HETATM    3  F   UNL     1      44.083 -20.563   1.886  1.00  0.00    -0.206 F 
HETATM    4  C   UNL     1      42.879 -18.825   2.928  1.00  0.00     0.054 A 
HETATM    5  C   UNL     1      42.639 -18.003   4.042  1.00  0.00     0.001 A 
HETATM    6  C   UNL     1      43.481 -18.167   5.155  1.00  0.00     0.077 A 
HETATM    7  O   UNL     1      43.338 -17.380   6.267  1.00  0.00    -0.351 OA
HETATM    8  C   UNL     1      43.791 -16.049   6.002  1.00  0.00     0.175 C 
HETATM    9  C   UNL     1      42.642 -15.162   5.539  1.00  0.00     0.029 C 
HETATM   10  C   UNL     1      42.084 -15.545   4.164  1.00  0.00     0.032 C 
HETATM   11  C   UNL     1      41.517 -16.980   4.104  1.00  0.00     0.118 C 
HETATM   12  C   UNL     1      44.469 -19.153   5.196  1.00  0.00     0.040 A 
ENDROOT
BRANCH  11  13
HETATM   13  N   UNL     1      40.621 -17.057   2.948  1.00  0.00    -0.378 N 
HETATM   14  H   UNL     1      39.760 -17.562   3.147  1.00  0.00     0.160 HD
BRANCH  13  15
HETATM   15  C   UNL     1      40.571 -16.257   1.805  1.00  0.00     0.075 A 
HETATM   16  C   UNL     1      39.986 -15.072   1.542  1.00  0.00     0.131 A 
HETATM   17 CL   UNL     1      39.069 -14.169   2.701  1.00  0.00    -0.076 Cl
HETATM   18  C   UNL     1      40.072 -14.436   0.191  1.00  0.00     0.285 A 
HETATM   19  O   UNL     1      39.554 -13.355  -0.078  1.00  0.00    -0.265 OA
HETATM   20  N   UNL     1      40.766 -15.135  -0.762  1.00  0.00    -0.242 N 
HETATM   21  N   UNL     1      41.396 -16.318  -0.567  1.00  0.00    -0.182 NA
HETATM   22  H   UNL     1      40.833 -14.723  -1.687  1.00  0.00     0.192 HD
HETATM   23  C   UNL     1      41.302 -16.818   0.621  1.00  0.00     0.169 A 
ENDBRANCH  13  15
ENDBRANCH  11  13
TORSDOF 2
ENDMDL
