MODEL 1
REMARK VINA RESULT:      -8.1      0.000      0.000
REMARK  8 active torsions:
REMARK  status: ('A' for Active; 'I' for Inactive)
REMARK    1  A    between atoms: C_2  and  O_3 
REMARK    2  A    between atoms: O_3  and  C_4 
REMARK    3  A    between atoms: C_5  and  O_6 
REMARK    4  A    between atoms: O_6  and  C_7 
REMARK       I    between atoms: C_7  and  N_8 
REMARK    5  A    between atoms: C_18  and  C_19 
REMARK    6  A    between atoms: C_23  and  N_24 
REMARK    7  A    between atoms: C_31  and  C_32 
REMARK    8  A    between atoms: C_35  and  O_36 
ROOT
HETATM    1  C   UNL     1      42.290 -14.008   1.367  1.00  0.00     0.105 C 
HETATM    2  C   UNL     1      41.943 -13.212   0.104  1.00  0.00     0.067 C 
HETATM    3  C   UNL     1      42.232 -11.720   0.096  1.00  0.00     0.020 C 
HETATM    4  N   UNL     1      42.471 -10.482   0.090  1.00  0.00    -0.096 N 
HETATM    5  C   UNL     1      41.385 -13.774  -1.001  1.00  0.00     0.139 C 
HETATM    6  O   UNL     1      41.065 -15.138  -1.051  1.00  0.00    -0.279 OA
HETATM    7  C   UNL     1      41.206 -15.818   0.078  1.00  0.00     0.175 A 
HETATM    8  C   UNL     1      41.729 -15.399   1.279  1.00  0.00     0.040 A 
HETATM    9  N   UNL     1      40.797 -17.097   0.239  1.00  0.00    -0.256 N 
HETATM   10  H   UNL     1      40.362 -17.708  -0.443  1.00  0.00     0.191 HD
HETATM   11  N   UNL     1      40.980 -17.547   1.487  1.00  0.00    -0.172 NA
HETATM   12  C   UNL     1      41.550 -16.520   2.151  1.00  0.00     0.099 A 
ENDROOT
BRANCH   1  13
HETATM   13  C   UNL     1      41.874 -13.342   2.673  1.00  0.00    -0.040 C 
HETATM   14  C   UNL     1      40.686 -12.616   2.854  1.00  0.00     0.030 C 
HETATM   15  C   UNL     1      40.292 -12.219   4.136  1.00  0.00     0.048 C 
HETATM   16  C   UNL     1      41.126 -12.458   5.230  1.00  0.00     0.131 C 
HETATM   17 BR   UNL     1      38.596 -11.396   4.350  1.00  0.00    -0.048 Br
HETATM   18  C   UNL     1      42.402 -13.004   5.046  1.00  0.00     0.104 C 
HETATM   19  C   UNL     1      42.743 -13.484   3.782  1.00  0.00     0.048 C 
BRANCH  16  20
HETATM   20  O   UNL     1      40.689 -12.110   6.517  1.00  0.00    -0.257 OA
BRANCH  20  21
HETATM   21  C   UNL     1      40.842 -10.756   6.809  1.00  0.00     0.368 C 
HETATM   22  N   UNL     1      39.980 -10.326   7.806  1.00  0.00    -0.324 N 
HETATM   23  C   UNL     1      39.339 -11.228   8.759  1.00  0.00     0.154 C 
HETATM   24  C   UNL     1      40.025  -8.936   8.247  1.00  0.00     0.154 C 
HETATM   25  C   UNL     1      40.006 -11.073  10.135  1.00  0.00     0.187 C 
HETATM   26  O   UNL     1      39.986  -9.701  10.570  1.00  0.00    -0.388 OA
HETATM   27  C   UNL     1      40.674  -8.850   9.632  1.00  0.00     0.187 C 
HETATM   28  O   UNL     1      41.643 -10.004   6.259  1.00  0.00    -0.238 OA
ENDBRANCH  20  21
ENDBRANCH  16  20
BRANCH  18  29
HETATM   29  O   UNL     1      43.206 -13.073   6.152  1.00  0.00    -0.349 OA
BRANCH  29  30
HETATM   30  C   UNL     1      44.255 -14.039   6.182  1.00  0.00     0.171 C 
HETATM   31  C   UNL     1      45.312 -13.684   7.213  1.00  0.00     0.034 C 
ENDBRANCH  29  30
ENDBRANCH  18  29
ENDBRANCH   1  13
BRANCH   5  32
HETATM   32  N   UNL     1      41.071 -13.113  -2.166  1.00  0.00    -0.282 NA
HETATM   33  H   UNL     1      40.765 -12.148  -2.068  1.00  0.00     0.126 HD
HETATM   34  H   UNL     1      41.780 -13.238  -2.885  1.00  0.00     0.126 HD
ENDBRANCH   5  32
BRANCH  12  35
HETATM   35  C   UNL     1      41.798 -16.653   3.589  1.00  0.00    -0.005 A 
HETATM   36  C   UNL     1      40.840 -16.319   4.548  1.00  0.00     0.016 A 
HETATM   37  C   UNL     1      41.101 -16.541   5.906  1.00  0.00     0.037 A 
HETATM   38  C   UNL     1      42.319 -17.079   6.329  1.00  0.00     0.068 A 
HETATM   39  C   UNL     1      43.288 -17.390   5.379  1.00  0.00     0.037 A 
HETATM   40  C   UNL     1      43.028 -17.178   4.021  1.00  0.00     0.016 A 
BRANCH  38  41
HETATM   41  O   UNL     1      42.442 -17.246   7.681  1.00  0.00    -0.356 OA
HETATM   42  C   UNL     1      43.674 -17.780   8.152  1.00  0.00     0.210 C 
ENDBRANCH  38  41
ENDBRANCH  12  35
TORSDOF 8
ENDMDL
MODEL 2
REMARK VINA RESULT:      -8.0      2.905      6.616
REMARK  8 active torsions:
REMARK  status: ('A' for Active; 'I' for Inactive)
REMARK    1  A    between atoms: C_2  and  O_3 
REMARK    2  A    between atoms: O_3  and  C_4 
REMARK    3  A    between atoms: C_5  and  O_6 
REMARK    4  A    between atoms: O_6  and  C_7 
REMARK       I    between atoms: C_7  and  N_8 
REMARK    5  A    between atoms: C_18  and  C_19 
REMARK    6  A    between atoms: C_23  and  N_24 
REMARK    7  A    between atoms: C_31  and  C_32 
REMARK    8  A    between atoms: C_35  and  O_36 
ROOT
HETATM    1  C   UNL     1      41.068 -12.164   4.590  1.00  0.00     0.105 C 
HETATM    2  C   UNL     1      40.473 -11.093   5.510  1.00  0.00     0.067 C 
HETATM    3  C   UNL     1      41.219 -10.751   6.790  1.00  0.00     0.020 C 
HETATM    4  N   UNL     1      41.837 -10.469   7.851  1.00  0.00    -0.096 N 
HETATM    5  C   UNL     1      39.310 -10.442   5.240  1.00  0.00     0.139 C 
HETATM    6  O   UNL     1      38.556 -10.728   4.094  1.00  0.00    -0.279 OA
HETATM    7  C   UNL     1      38.961 -11.758   3.364  1.00  0.00     0.175 A 
HETATM    8  C   UNL     1      40.091 -12.529   3.510  1.00  0.00     0.040 A 
HETATM    9  N   UNL     1      38.261 -12.259   2.320  1.00  0.00    -0.256 N 
HETATM   10  H   UNL     1      37.379 -11.933   1.941  1.00  0.00     0.191 HD
HETATM   11  N   UNL     1      38.836 -13.342   1.783  1.00  0.00    -0.172 NA
HETATM   12  C   UNL     1      39.964 -13.534   2.499  1.00  0.00     0.099 A 
ENDROOT
BRANCH   1  13
HETATM   13  C   UNL     1      41.566 -13.413   5.308  1.00  0.00    -0.040 C 
HETATM   14  C   UNL     1      40.775 -14.537   5.592  1.00  0.00     0.030 C 
HETATM   15  C   UNL     1      41.367 -15.713   6.067  1.00  0.00     0.048 C 
HETATM   16  C   UNL     1      42.733 -15.743   6.351  1.00  0.00     0.131 C 
HETATM   17 BR   UNL     1      40.282 -17.257   6.268  1.00  0.00    -0.048 Br
HETATM   18  C   UNL     1      43.505 -14.579   6.263  1.00  0.00     0.104 C 
HETATM   19  C   UNL     1      42.927 -13.442   5.697  1.00  0.00     0.048 C 
BRANCH  16  20
HETATM   20  O   UNL     1      43.323 -16.947   6.766  1.00  0.00    -0.257 OA
BRANCH  20  21
HETATM   21  C   UNL     1      43.940 -17.648   5.732  1.00  0.00     0.368 C 
HETATM   22  N   UNL     1      44.583 -18.793   6.176  1.00  0.00    -0.324 N 
HETATM   23  C   UNL     1      44.273 -19.450   7.442  1.00  0.00     0.154 C 
HETATM   24  C   UNL     1      45.264 -19.655   5.215  1.00  0.00     0.154 C 
HETATM   25  C   UNL     1      43.497 -20.747   7.168  1.00  0.00     0.187 C 
HETATM   26  O   UNL     1      44.217 -21.603   6.261  1.00  0.00    -0.388 OA
HETATM   27  C   UNL     1      44.458 -20.940   5.004  1.00  0.00     0.187 C 
HETATM   28  O   UNL     1      43.933 -17.311   4.550  1.00  0.00    -0.238 OA
ENDBRANCH  20  21
ENDBRANCH  16  20
BRANCH  18  29
HETATM   29  O   UNL     1      44.800 -14.665   6.695  1.00  0.00    -0.349 OA
BRANCH  29  30
HETATM   30  C   UNL     1      45.528 -13.462   6.935  1.00  0.00     0.171 C 
HETATM   31  C   UNL     1      45.267 -12.921   8.331  1.00  0.00     0.034 C 
ENDBRANCH  29  30
ENDBRANCH  18  29
ENDBRANCH   1  13
BRANCH   5  32
HETATM   32  N   UNL     1      38.740  -9.461   6.018  1.00  0.00    -0.282 NA
HETATM   33  H   UNL     1      38.323  -9.766   6.894  1.00  0.00     0.126 HD
HETATM   34  H   UNL     1      39.345  -8.650   6.124  1.00  0.00     0.126 HD
ENDBRANCH   5  32
BRANCH  12  35
HETATM   35  C   UNL     1      40.789 -14.713   2.224  1.00  0.00    -0.005 A 
HETATM   36  C   UNL     1      40.262 -16.005   2.197  1.00  0.00     0.016 A 
HETATM   37  C   UNL     1      41.081 -17.088   1.851  1.00  0.00     0.037 A 
HETATM   38  C   UNL     1      42.432 -16.904   1.545  1.00  0.00     0.068 A 
HETATM   39  C   UNL     1      42.968 -15.620   1.594  1.00  0.00     0.037 A 
HETATM   40  C   UNL     1      42.152 -14.536   1.932  1.00  0.00     0.016 A 
BRANCH  38  41
HETATM   41  O   UNL     1      43.115 -18.044   1.221  1.00  0.00    -0.356 OA
HETATM   42  C   UNL     1      42.853 -19.195   2.015  1.00  0.00     0.210 C 
ENDBRANCH  38  41
ENDBRANCH  12  35
TORSDOF 8
ENDMDL
MODEL 3
REMARK VINA RESULT:      -7.7      2.448      4.973
REMARK  8 active torsions:
REMARK  status: ('A' for Active; 'I' for Inactive)
REMARK    1  A    between atoms: C_2  and  O_3 
REMARK    2  A    between atoms: O_3  and  C_4 
REMARK    3  A    between atoms: C_5  and  O_6 
REMARK    4  A    between atoms: O_6  and  C_7 
REMARK       I    between atoms: C_7  and  N_8 
REMARK    5  A    between atoms: C_18  and  C_19 
REMARK    6  A    between atoms: C_23  and  N_24 
REMARK    7  A    between atoms: C_31  and  C_32 
REMARK    8  A    between atoms: C_35  and  O_36 
ROOT
HETATM    1  C   UNL     1      42.185 -17.473   4.352  1.00  0.00     0.105 C 
HETATM    2  C   UNL     1      43.221 -18.311   5.110  1.00  0.00     0.067 C 
HETATM    3  C   UNL     1      43.249 -18.215   6.627  1.00  0.00     0.020 C 
HETATM    4  N   UNL     1      43.272 -18.135   7.885  1.00  0.00    -0.096 N 
HETATM    5  C   UNL     1      44.117 -19.125   4.492  1.00  0.00     0.139 C 
HETATM    6  O   UNL     1      44.167 -19.239   3.096  1.00  0.00    -0.279 OA
HETATM    7  C   UNL     1      43.393 -18.410   2.409  1.00  0.00     0.175 A 
HETATM    8  C   UNL     1      42.457 -17.516   2.876  1.00  0.00     0.040 A 
HETATM    9  N   UNL     1      43.437 -18.284   1.063  1.00  0.00    -0.256 N 
HETATM   10  H   UNL     1      44.020 -18.788   0.404  1.00  0.00     0.191 HD
HETATM   11  N   UNL     1      42.613 -17.333   0.604  1.00  0.00    -0.172 NA
HETATM   12  C   UNL     1      41.999 -16.841   1.699  1.00  0.00     0.099 A 
ENDROOT
BRANCH   1  13
HETATM   13  C   UNL     1      42.058 -16.033   4.833  1.00  0.00    -0.040 C 
HETATM   14  C   UNL     1      40.839 -15.367   5.041  1.00  0.00     0.030 C 
HETATM   15  C   UNL     1      40.817 -14.120   5.676  1.00  0.00     0.048 C 
HETATM   16  C   UNL     1      42.013 -13.489   6.021  1.00  0.00     0.131 C 
HETATM   17 BR   UNL     1      39.136 -13.344   6.092  1.00  0.00    -0.048 Br
HETATM   18  C   UNL     1      43.243 -14.043   5.647  1.00  0.00     0.104 C 
HETATM   19  C   UNL     1      43.255 -15.327   5.103  1.00  0.00     0.048 C 
BRANCH  16  20
HETATM   20  O   UNL     1      41.973 -12.270   6.715  1.00  0.00    -0.257 OA
BRANCH  20  21
HETATM   21  C   UNL     1      41.516 -11.205   5.940  1.00  0.00     0.368 C 
HETATM   22  N   UNL     1      40.730 -10.321   6.662  1.00  0.00    -0.324 N 
HETATM   23  C   UNL     1      40.756 -10.227   8.119  1.00  0.00     0.154 C 
HETATM   24  C   UNL     1      40.188  -9.137   6.005  1.00  0.00     0.154 C 
HETATM   25  C   UNL     1      41.487  -8.942   8.535  1.00  0.00     0.187 C 
HETATM   26  O   UNL     1      40.896  -7.784   7.916  1.00  0.00    -0.388 OA
HETATM   27  C   UNL     1      40.937  -7.888   6.479  1.00  0.00     0.187 C 
HETATM   28  O   UNL     1      41.765 -11.045   4.748  1.00  0.00    -0.238 OA
ENDBRANCH  20  21
ENDBRANCH  16  20
BRANCH  18  29
HETATM   29  O   UNL     1      44.358 -13.290   5.899  1.00  0.00    -0.349 OA
BRANCH  29  30
HETATM   30  C   UNL     1      45.295 -13.751   6.871  1.00  0.00     0.171 C 
HETATM   31  C   UNL     1      45.163 -12.988   8.178  1.00  0.00     0.034 C 
ENDBRANCH  29  30
ENDBRANCH  18  29
ENDBRANCH   1  13
BRANCH   5  32
HETATM   32  N   UNL     1      45.053 -19.913   5.121  1.00  0.00    -0.282 NA
HETATM   33  H   UNL     1      44.696 -20.591   5.789  1.00  0.00     0.126 HD
HETATM   34  H   UNL     1      45.727 -20.308   4.470  1.00  0.00     0.126 HD
ENDBRANCH   5  32
BRANCH  12  35
HETATM   35  C   UNL     1      41.089 -15.702   1.553  1.00  0.00    -0.005 A 
HETATM   36  C   UNL     1      39.707 -15.823   1.707  1.00  0.00     0.016 A 
HETATM   37  C   UNL     1      38.891 -14.686   1.635  1.00  0.00     0.037 A 
HETATM   38  C   UNL     1      39.435 -13.422   1.393  1.00  0.00     0.068 A 
HETATM   39  C   UNL     1      40.810 -13.299   1.214  1.00  0.00     0.037 A 
HETATM   40  C   UNL     1      41.628 -14.431   1.293  1.00  0.00     0.016 A 
BRANCH  38  41
HETATM   41  O   UNL     1      38.528 -12.398   1.350  1.00  0.00    -0.356 OA
HETATM   42  C   UNL     1      38.399 -11.605   2.523  1.00  0.00     0.210 C 
ENDBRANCH  38  41
ENDBRANCH  12  35
TORSDOF 8
ENDMDL
MODEL 4
REMARK VINA RESULT:      -7.6      1.393      2.356
REMARK  8 active torsions:
REMARK  status: ('A' for Active; 'I' for Inactive)
REMARK    1  A    between atoms: C_2  and  O_3 
REMARK    2  A    between atoms: O_3  and  C_4 
REMARK    3  A    between atoms: C_5  and  O_6 
REMARK    4  A    between atoms: O_6  and  C_7 
REMARK       I    between atoms: C_7  and  N_8 
REMARK    5  A    between atoms: C_18  and  C_19 
REMARK    6  A    between atoms: C_23  and  N_24 
REMARK    7  A    between atoms: C_31  and  C_32 
REMARK    8  A    between atoms: C_35  and  O_36 
ROOT
HETATM    1  C   UNL     1      42.218 -14.074   1.512  1.00  0.00     0.105 C 
HETATM    2  C   UNL     1      41.683 -13.111   0.447  1.00  0.00     0.067 C 
HETATM    3  C   UNL     1      41.842 -11.619   0.685  1.00  0.00     0.020 C 
HETATM    4  N   UNL     1      41.974 -10.381   0.883  1.00  0.00    -0.096 N 
HETATM    5  C   UNL     1      41.068 -13.528  -0.692  1.00  0.00     0.139 C 
HETATM    6  O   UNL     1      40.862 -14.888  -0.962  1.00  0.00    -0.279 OA
HETATM    7  C   UNL     1      41.169 -15.735   0.011  1.00  0.00     0.175 A 
HETATM    8  C   UNL     1      41.771 -15.478   1.221  1.00  0.00     0.040 A 
HETATM    9  N   UNL     1      40.888 -17.057  -0.029  1.00  0.00    -0.256 N 
HETATM   10  H   UNL     1      40.441 -17.582  -0.773  1.00  0.00     0.191 HD
HETATM   11  N   UNL     1      41.230 -17.694   1.098  1.00  0.00    -0.172 NA
HETATM   12  C   UNL     1      41.774 -16.745   1.888  1.00  0.00     0.099 A 
ENDROOT
BRANCH   1  13
HETATM   13  C   UNL     1      41.877 -13.689   2.946  1.00  0.00    -0.040 C 
HETATM   14  C   UNL     1      42.748 -13.831   4.039  1.00  0.00     0.030 C 
HETATM   15  C   UNL     1      42.427 -13.262   5.275  1.00  0.00     0.048 C 
HETATM   16  C   UNL     1      41.194 -12.632   5.456  1.00  0.00     0.131 C 
HETATM   17 BR   UNL     1      43.714 -13.330   6.668  1.00  0.00    -0.048 Br
HETATM   18  C   UNL     1      40.230 -12.650   4.441  1.00  0.00     0.104 C 
HETATM   19  C   UNL     1      40.598 -13.132   3.185  1.00  0.00     0.048 C 
BRANCH  16  20
HETATM   20  O   UNL     1      40.912 -12.011   6.682  1.00  0.00    -0.257 OA
BRANCH  20  21
HETATM   21  C   UNL     1      40.956 -10.619   6.623  1.00  0.00     0.368 C 
HETATM   22  N   UNL     1      40.067 -10.021   7.503  1.00  0.00    -0.324 N 
HETATM   23  C   UNL     1      39.507 -10.702   8.667  1.00  0.00     0.154 C 
HETATM   24  C   UNL     1      40.001  -8.566   7.582  1.00  0.00     0.154 C 
HETATM   25  C   UNL     1      40.166 -10.156   9.943  1.00  0.00     0.187 C 
HETATM   26  O   UNL     1      40.037  -8.724  10.023  1.00  0.00    -0.388 OA
HETATM   27  C   UNL     1      40.647  -8.085   8.884  1.00  0.00     0.187 C 
HETATM   28  O   UNL     1      41.690  -9.969   5.882  1.00  0.00    -0.238 OA
ENDBRANCH  20  21
ENDBRANCH  16  20
BRANCH  18  29
HETATM   29  O   UNL     1      39.000 -12.134   4.752  1.00  0.00    -0.349 OA
BRANCH  29  30
HETATM   30  C   UNL     1      38.361 -11.267   3.817  1.00  0.00     0.171 C 
HETATM   31  C   UNL     1      38.344  -9.830   4.311  1.00  0.00     0.034 C 
ENDBRANCH  29  30
ENDBRANCH  18  29
ENDBRANCH   1  13
BRANCH   5  32
HETATM   32  N   UNL     1      40.587 -12.711  -1.690  1.00  0.00    -0.282 NA
HETATM   33  H   UNL     1      39.575 -12.662  -1.782  1.00  0.00     0.126 HD
HETATM   34  H   UNL     1      41.034 -11.798  -1.692  1.00  0.00     0.126 HD
ENDBRANCH   5  32
BRANCH  12  35
HETATM   35  C   UNL     1      42.171 -17.098   3.253  1.00  0.00    -0.005 A 
HETATM   36  C   UNL     1      41.269 -17.104   4.318  1.00  0.00     0.016 A 
HETATM   37  C   UNL     1      41.686 -17.526   5.587  1.00  0.00     0.037 A 
HETATM   38  C   UNL     1      43.004 -17.931   5.817  1.00  0.00     0.068 A 
HETATM   39  C   UNL     1      43.914 -17.903   4.764  1.00  0.00     0.037 A 
HETATM   40  C   UNL     1      43.499 -17.489   3.494  1.00  0.00     0.016 A 
BRANCH  38  41
HETATM   41  O   UNL     1      43.276 -18.321   7.100  1.00  0.00    -0.356 OA
HETATM   42  C   UNL     1      43.222 -17.313   8.102  1.00  0.00     0.210 C 
ENDBRANCH  38  41
ENDBRANCH  12  35
TORSDOF 8
ENDMDL
MODEL 5
REMARK VINA RESULT:      -7.3      2.885      5.746
REMARK  8 active torsions:
REMARK  status: ('A' for Active; 'I' for Inactive)
REMARK    1  A    between atoms: C_2  and  O_3 
REMARK    2  A    between atoms: O_3  and  C_4 
REMARK    3  A    between atoms: C_5  and  O_6 
REMARK    4  A    between atoms: O_6  and  C_7 
REMARK       I    between atoms: C_7  and  N_8 
REMARK    5  A    between atoms: C_18  and  C_19 
REMARK    6  A    between atoms: C_23  and  N_24 
REMARK    7  A    between atoms: C_31  and  C_32 
REMARK    8  A    between atoms: C_35  and  O_36 
ROOT
HETATM    1  C   UNL     1      42.706 -18.344   4.417  1.00  0.00     0.105 C 
HETATM    2  C   UNL     1      43.680 -19.359   5.024  1.00  0.00     0.067 C 
HETATM    3  C   UNL     1      43.699 -19.517   6.536  1.00  0.00     0.020 C 
HETATM    4  N   UNL     1      43.715 -19.648   7.789  1.00  0.00    -0.096 N 
HETATM    5  C   UNL     1      44.529 -20.115   4.279  1.00  0.00     0.139 C 
HETATM    6  O   UNL     1      44.584 -19.999   2.883  1.00  0.00    -0.279 OA
HETATM    7  C   UNL     1      43.871 -19.020   2.344  1.00  0.00     0.175 A 
HETATM    8  C   UNL     1      42.988 -18.159   2.953  1.00  0.00     0.040 A 
HETATM    9  N   UNL     1      43.936 -18.676   1.037  1.00  0.00    -0.256 N 
HETATM   10  H   UNL     1      44.492 -19.100   0.303  1.00  0.00     0.191 HD
HETATM   11  N   UNL     1      43.177 -17.612   0.743  1.00  0.00    -0.172 NA
HETATM   12  C   UNL     1      42.584 -17.270   1.906  1.00  0.00     0.099 A 
ENDROOT
BRANCH   1  13
HETATM   13  C   UNL     1      42.664 -16.998   5.129  1.00  0.00    -0.040 C 
HETATM   14  C   UNL     1      43.796 -16.285   5.555  1.00  0.00     0.030 C 
HETATM   15  C   UNL     1      43.670 -14.969   6.013  1.00  0.00     0.048 C 
HETATM   16  C   UNL     1      42.406 -14.390   6.139  1.00  0.00     0.131 C 
HETATM   17 BR   UNL     1      45.247 -13.991   6.409  1.00  0.00    -0.048 Br
HETATM   18  C   UNL     1      41.251 -15.147   5.908  1.00  0.00     0.104 C 
HETATM   19  C   UNL     1      41.391 -16.421   5.360  1.00  0.00     0.048 C 
BRANCH  16  20
HETATM   20  O   UNL     1      42.301 -13.050   6.539  1.00  0.00    -0.257 OA
BRANCH  20  21
HETATM   21  C   UNL     1      42.148 -12.163   5.474  1.00  0.00     0.368 C 
HETATM   22  N   UNL     1      41.298 -11.111   5.776  1.00  0.00    -0.324 N 
HETATM   23  C   UNL     1      40.979 -10.701   7.141  1.00  0.00     0.154 C 
HETATM   24  C   UNL     1      41.045 -10.079   4.776  1.00  0.00     0.154 C 
HETATM   25  C   UNL     1      41.705  -9.386   7.462  1.00  0.00     0.187 C 
HETATM   26  O   UNL     1      41.394  -8.369   6.490  1.00  0.00    -0.388 OA
HETATM   27  C   UNL     1      41.771  -8.788   5.164  1.00  0.00     0.187 C 
HETATM   28  O   UNL     1      42.693 -12.278   4.379  1.00  0.00    -0.238 OA
ENDBRANCH  20  21
ENDBRANCH  16  20
BRANCH  18  29
HETATM   29  O   UNL     1      40.055 -14.544   6.192  1.00  0.00    -0.349 OA
BRANCH  29  30
HETATM   30  C   UNL     1      39.266 -14.038   5.116  1.00  0.00     0.171 C 
HETATM   31  C   UNL     1      38.522 -12.775   5.516  1.00  0.00     0.034 C 
ENDBRANCH  29  30
ENDBRANCH  18  29
ENDBRANCH   1  13
BRANCH   5  32
HETATM   32  N   UNL     1      45.408 -21.053   4.768  1.00  0.00    -0.282 NA
HETATM   33  H   UNL     1      45.621 -20.996   5.761  1.00  0.00     0.126 HD
HETATM   34  H   UNL     1      45.180 -21.995   4.460  1.00  0.00     0.126 HD
ENDBRANCH   5  32
BRANCH  12  35
HETATM   35  C   UNL     1      41.749 -16.068   1.951  1.00  0.00    -0.005 A 
HETATM   36  C   UNL     1      42.288 -14.784   2.044  1.00  0.00     0.016 A 
HETATM   37  C   UNL     1      41.447 -13.665   2.003  1.00  0.00     0.037 A 
HETATM   38  C   UNL     1      40.061 -13.808   1.887  1.00  0.00     0.068 A 
HETATM   39  C   UNL     1      39.515 -15.087   1.820  1.00  0.00     0.037 A 
HETATM   40  C   UNL     1      40.353 -16.206   1.852  1.00  0.00     0.016 A 
BRANCH  38  41
HETATM   41  O   UNL     1      39.357 -12.635   1.857  1.00  0.00    -0.356 OA
HETATM   42  C   UNL     1      39.626 -11.754   0.773  1.00  0.00     0.210 C 
ENDBRANCH  38  41
ENDBRANCH  12  35
TORSDOF 8
ENDMDL
MODEL 6
REMARK VINA RESULT:      -7.1      3.327      8.677
REMARK  8 active torsions:
REMARK  status: ('A' for Active; 'I' for Inactive)
REMARK    1  A    between atoms: C_2  and  O_3 
REMARK    2  A    between atoms: O_3  and  C_4 
REMARK    3  A    between atoms: C_5  and  O_6 
REMARK    4  A    between atoms: O_6  and  C_7 
REMARK       I    between atoms: C_7  and  N_8 
REMARK    5  A    between atoms: C_18  and  C_19 
REMARK    6  A    between atoms: C_23  and  N_24 
REMARK    7  A    between atoms: C_31  and  C_32 
REMARK    8  A    between atoms: C_35  and  O_36 
ROOT
HETATM    1  C   UNL     1      42.032 -14.134   3.740  1.00  0.00     0.105 C 
HETATM    2  C   UNL     1      42.433 -15.610   3.840  1.00  0.00     0.067 C 
HETATM    3  C   UNL     1      43.248 -16.210   2.706  1.00  0.00     0.020 C 
HETATM    4  N   UNL     1      43.923 -16.707   1.765  1.00  0.00    -0.096 N 
HETATM    5  C   UNL     1      42.088 -16.406   4.887  1.00  0.00     0.139 C 
HETATM    6  O   UNL     1      41.313 -15.926   5.952  1.00  0.00    -0.279 OA
HETATM    7  C   UNL     1      40.819 -14.703   5.818  1.00  0.00     0.175 A 
HETATM    8  C   UNL     1      41.049 -13.784   4.820  1.00  0.00     0.040 A 
HETATM    9  N   UNL     1      39.931 -14.154   6.677  1.00  0.00    -0.256 N 
HETATM   10  H   UNL     1      39.540 -14.559   7.521  1.00  0.00     0.191 HD
HETATM   11  N   UNL     1      39.523 -12.937   6.295  1.00  0.00    -0.172 NA
HETATM   12  C   UNL     1      40.193 -12.685   5.151  1.00  0.00     0.099 A 
ENDROOT
BRANCH   1  13
HETATM   13  C   UNL     1      41.504 -13.710   2.375  1.00  0.00    -0.040 C 
HETATM   14  C   UNL     1      42.182 -12.859   1.487  1.00  0.00     0.030 C 
HETATM   15  C   UNL     1      41.717 -12.691   0.179  1.00  0.00     0.048 C 
HETATM   16  C   UNL     1      40.523 -13.293  -0.222  1.00  0.00     0.131 C 
HETATM   17 BR   UNL     1      42.765 -11.673  -1.033  1.00  0.00    -0.048 Br
HETATM   18  C   UNL     1      39.729 -13.984   0.701  1.00  0.00     0.104 C 
HETATM   19  C   UNL     1      40.249 -14.226   1.972  1.00  0.00     0.048 C 
BRANCH  16  20
HETATM   20  O   UNL     1      40.104 -13.168  -1.555  1.00  0.00    -0.257 OA
BRANCH  20  21
HETATM   21  C   UNL     1      40.378 -14.292  -2.332  1.00  0.00     0.368 C 
HETATM   22  N   UNL     1      39.238 -15.023  -2.629  1.00  0.00    -0.324 N 
HETATM   23  C   UNL     1      37.888 -14.470  -2.566  1.00  0.00     0.154 C 
HETATM   24  C   UNL     1      39.346 -16.222  -3.453  1.00  0.00     0.154 C 
HETATM   25  C   UNL     1      37.360 -14.248  -3.991  1.00  0.00     0.187 C 
HETATM   26  O   UNL     1      37.427 -15.461  -4.765  1.00  0.00    -0.388 OA
HETATM   27  C   UNL     1      38.780 -15.947  -4.850  1.00  0.00     0.187 C 
HETATM   28  O   UNL     1      41.495 -14.623  -2.722  1.00  0.00    -0.238 OA
ENDBRANCH  20  21
ENDBRANCH  16  20
BRANCH  18  29
HETATM   29  O   UNL     1      38.510 -14.419   0.258  1.00  0.00    -0.349 OA
BRANCH  29  30
HETATM   30  C   UNL     1      37.332 -13.959   0.919  1.00  0.00     0.171 C 
HETATM   31  C   UNL     1      37.029 -12.511   0.573  1.00  0.00     0.034 C 
ENDBRANCH  29  30
ENDBRANCH  18  29
ENDBRANCH   1  13
BRANCH   5  32
HETATM   32  N   UNL     1      42.435 -17.728   5.039  1.00  0.00    -0.282 NA
HETATM   33  H   UNL     1      41.880 -18.402   4.517  1.00  0.00     0.126 HD
HETATM   34  H   UNL     1      43.437 -17.879   4.948  1.00  0.00     0.126 HD
ENDBRANCH   5  32
BRANCH  12  35
HETATM   35  C   UNL     1      39.901 -11.455   4.412  1.00  0.00    -0.005 A 
HETATM   36  C   UNL     1      38.677 -11.236   3.777  1.00  0.00     0.016 A 
HETATM   37  C   UNL     1      38.421 -10.009   3.151  1.00  0.00     0.037 A 
HETATM   38  C   UNL     1      39.381  -8.993   3.134  1.00  0.00     0.068 A 
HETATM   39  C   UNL     1      40.612  -9.215   3.745  1.00  0.00     0.037 A 
HETATM   40  C   UNL     1      40.868 -10.436   4.377  1.00  0.00     0.016 A 
BRANCH  38  41
HETATM   41  O   UNL     1      39.001  -7.846   2.493  1.00  0.00    -0.356 OA
HETATM   42  C   UNL     1      37.919  -7.952   1.576  1.00  0.00     0.210 C 
ENDBRANCH  38  41
ENDBRANCH  12  35
TORSDOF 8
ENDMDL
MODEL 7
REMARK VINA RESULT:      -7.1      3.014      7.456
REMARK  8 active torsions:
REMARK  status: ('A' for Active; 'I' for Inactive)
REMARK    1  A    between atoms: C_2  and  O_3 
REMARK    2  A    between atoms: O_3  and  C_4 
REMARK    3  A    between atoms: C_5  and  O_6 
REMARK    4  A    between atoms: O_6  and  C_7 
REMARK       I    between atoms: C_7  and  N_8 
REMARK    5  A    between atoms: C_18  and  C_19 
REMARK    6  A    between atoms: C_23  and  N_24 
REMARK    7  A    between atoms: C_31  and  C_32 
REMARK    8  A    between atoms: C_35  and  O_36 
ROOT
HETATM    1  C   UNL     1      40.198 -12.515   4.800  1.00  0.00     0.105 C 
HETATM    2  C   UNL     1      39.931 -11.071   5.238  1.00  0.00     0.067 C 
HETATM    3  C   UNL     1      38.826 -10.301   4.533  1.00  0.00     0.020 C 
HETATM    4  N   UNL     1      37.911  -9.662   3.948  1.00  0.00    -0.096 N 
HETATM    5  C   UNL     1      40.637 -10.448   6.219  1.00  0.00     0.139 C 
HETATM    6  O   UNL     1      41.687 -11.088   6.890  1.00  0.00    -0.279 OA
HETATM    7  C   UNL     1      42.045 -12.277   6.425  1.00  0.00     0.175 A 
HETATM    8  C   UNL     1      41.457 -13.031   5.436  1.00  0.00     0.040 A 
HETATM    9  N   UNL     1      43.133 -12.955   6.858  1.00  0.00    -0.256 N 
HETATM   10  H   UNL     1      43.796 -12.686   7.577  1.00  0.00     0.191 HD
HETATM   11  N   UNL     1      43.330 -14.099   6.190  1.00  0.00    -0.172 NA
HETATM   12  C   UNL     1      42.314 -14.170   5.305  1.00  0.00     0.099 A 
ENDROOT
BRANCH   1  13
HETATM   13  C   UNL     1      40.234 -12.725   3.291  1.00  0.00    -0.040 C 
HETATM   14  C   UNL     1      39.227 -13.364   2.551  1.00  0.00     0.030 C 
HETATM   15  C   UNL     1      39.249 -13.328   1.152  1.00  0.00     0.048 C 
HETATM   16  C   UNL     1      40.324 -12.739   0.485  1.00  0.00     0.131 C 
HETATM   17 BR   UNL     1      37.775 -14.053   0.203  1.00  0.00    -0.048 Br
HETATM   18  C   UNL     1      41.433 -12.270   1.198  1.00  0.00     0.104 C 
HETATM   19  C   UNL     1      41.356 -12.223   2.589  1.00  0.00     0.048 C 
BRANCH  16  20
HETATM   20  O   UNL     1      40.300 -12.654  -0.916  1.00  0.00    -0.257 OA
BRANCH  20  21
HETATM   21  C   UNL     1      39.498 -11.620  -1.396  1.00  0.00     0.368 C 
HETATM   22  N   UNL     1      39.110 -11.816  -2.712  1.00  0.00    -0.324 N 
HETATM   23  C   UNL     1      39.119 -13.121  -3.367  1.00  0.00     0.154 C 
HETATM   24  C   UNL     1      38.249 -10.835  -3.363  1.00  0.00     0.154 C 
HETATM   25  C   UNL     1      37.675 -13.623  -3.523  1.00  0.00     0.187 C 
HETATM   26  O   UNL     1      36.861 -12.660  -4.217  1.00  0.00    -0.388 OA
HETATM   27  C   UNL     1      36.834 -11.402  -3.514  1.00  0.00     0.187 C 
HETATM   28  O   UNL     1      39.160 -10.633  -0.748  1.00  0.00    -0.238 OA
ENDBRANCH  20  21
ENDBRANCH  16  20
BRANCH  18  29
HETATM   29  O   UNL     1      42.501 -11.838   0.458  1.00  0.00    -0.349 OA
BRANCH  29  30
HETATM   30  C   UNL     1      42.574 -10.461   0.093  1.00  0.00     0.171 C 
HETATM   31  C   UNL     1      43.124 -10.284  -1.312  1.00  0.00     0.034 C 
ENDBRANCH  29  30
ENDBRANCH  18  29
ENDBRANCH   1  13
BRANCH   5  32
HETATM   32  N   UNL     1      40.428  -9.164   6.666  1.00  0.00    -0.282 NA
HETATM   33  H   UNL     1      41.019  -8.443   6.258  1.00  0.00     0.126 HD
HETATM   34  H   UNL     1      39.442  -8.913   6.677  1.00  0.00     0.126 HD
ENDBRANCH   5  32
BRANCH  12  35
HETATM   35  C   UNL     1      42.287 -15.272   4.341  1.00  0.00    -0.005 A 
HETATM   36  C   UNL     1      43.191 -15.362   3.281  1.00  0.00     0.016 A 
HETATM   37  C   UNL     1      43.171 -16.478   2.435  1.00  0.00     0.037 A 
HETATM   38  C   UNL     1      42.244 -17.508   2.620  1.00  0.00     0.068 A 
HETATM   39  C   UNL     1      41.324 -17.411   3.660  1.00  0.00     0.037 A 
HETATM   40  C   UNL     1      41.346 -16.302   4.511  1.00  0.00     0.016 A 
BRANCH  38  41
HETATM   41  O   UNL     1      42.335 -18.539   1.726  1.00  0.00    -0.356 OA
HETATM   42  C   UNL     1      43.180 -19.626   2.084  1.00  0.00     0.210 C 
ENDBRANCH  38  41
ENDBRANCH  12  35
TORSDOF 8
ENDMDL
MODEL 8
REMARK VINA RESULT:      -7.1      3.389      8.258
REMARK  8 active torsions:
REMARK  status: ('A' for Active; 'I' for Inactive)
REMARK    1  A    between atoms: C_2  and  O_3 
REMARK    2  A    between atoms: O_3  and  C_4 
REMARK    3  A    between atoms: C_5  and  O_6 
REMARK    4  A    between atoms: O_6  and  C_7 
REMARK       I    between atoms: C_7  and  N_8 
REMARK    5  A    between atoms: C_18  and  C_19 
REMARK    6  A    between atoms: C_23  and  N_24 
REMARK    7  A    between atoms: C_31  and  C_32 
REMARK    8  A    between atoms: C_35  and  O_36 
ROOT
HETATM    1  C   UNL     1      41.970 -14.291   3.559  1.00  0.00     0.105 C 
HETATM    2  C   UNL     1      42.208 -15.804   3.527  1.00  0.00     0.067 C 
HETATM    3  C   UNL     1      42.966 -16.385   2.344  1.00  0.00     0.020 C 
HETATM    4  N   UNL     1      43.594 -16.867   1.364  1.00  0.00    -0.096 N 
HETATM    5  C   UNL     1      41.768 -16.648   4.498  1.00  0.00     0.139 C 
HETATM    6  O   UNL     1      41.038 -16.184   5.600  1.00  0.00    -0.279 OA
HETATM    7  C   UNL     1      40.680 -14.908   5.576  1.00  0.00     0.175 A 
HETATM    8  C   UNL     1      41.018 -13.934   4.665  1.00  0.00     0.040 A 
HETATM    9  N   UNL     1      39.846 -14.345   6.480  1.00  0.00    -0.256 N 
HETATM   10  H   UNL     1      39.405 -14.779   7.283  1.00  0.00     0.191 HD
HETATM   11  N   UNL     1      39.576 -13.062   6.207  1.00  0.00    -0.172 NA
HETATM   12  C   UNL     1      40.282 -12.782   5.092  1.00  0.00     0.099 A 
ENDROOT
BRANCH   1  13
HETATM   13  C   UNL     1      41.506 -13.692   2.237  1.00  0.00    -0.040 C 
HETATM   14  C   UNL     1      42.205 -12.710   1.517  1.00  0.00     0.030 C 
HETATM   15  C   UNL     1      41.809 -12.371   0.219  1.00  0.00     0.048 C 
HETATM   16  C   UNL     1      40.658 -12.939  -0.332  1.00  0.00     0.131 C 
HETATM   17 BR   UNL     1      42.890 -11.171  -0.776  1.00  0.00    -0.048 Br
HETATM   18  C   UNL     1      39.836 -13.770   0.439  1.00  0.00     0.104 C 
HETATM   19  C   UNL     1      40.292 -14.176   1.693  1.00  0.00     0.048 C 
BRANCH  16  20
HETATM   20  O   UNL     1      40.310 -12.638  -1.657  1.00  0.00    -0.257 OA
BRANCH  20  21
HETATM   21  C   UNL     1      39.420 -11.570  -1.769  1.00  0.00     0.368 C 
HETATM   22  N   UNL     1      38.673 -11.621  -2.935  1.00  0.00    -0.324 N 
HETATM   23  C   UNL     1      38.476 -12.841  -3.712  1.00  0.00     0.154 C 
HETATM   24  C   UNL     1      37.678 -10.588  -3.198  1.00  0.00     0.154 C 
HETATM   25  C   UNL     1      37.040 -13.349  -3.510  1.00  0.00     0.187 C 
HETATM   26  O   UNL     1      36.078 -12.327  -3.831  1.00  0.00    -0.388 OA
HETATM   27  C   UNL     1      36.270 -11.159  -3.008  1.00  0.00     0.187 C 
HETATM   28  O   UNL     1      39.293 -10.671  -0.942  1.00  0.00    -0.238 OA
ENDBRANCH  20  21
ENDBRANCH  16  20
BRANCH  18  29
HETATM   29  O   UNL     1      38.657 -14.167  -0.132  1.00  0.00    -0.349 OA
BRANCH  29  30
HETATM   30  C   UNL     1      37.449 -14.026   0.614  1.00  0.00     0.171 C 
HETATM   31  C   UNL     1      36.958 -12.588   0.614  1.00  0.00     0.034 C 
ENDBRANCH  29  30
ENDBRANCH  18  29
ENDBRANCH   1  13
BRANCH   5  32
HETATM   32  N   UNL     1      41.969 -18.009   4.530  1.00  0.00    -0.282 NA
HETATM   33  H   UNL     1      42.262 -18.442   3.658  1.00  0.00     0.126 HD
HETATM   34  H   UNL     1      42.529 -18.298   5.328  1.00  0.00     0.126 HD
ENDBRANCH   5  32
BRANCH  12  35
HETATM   35  C   UNL     1      40.131 -11.467   4.465  1.00  0.00    -0.005 A 
HETATM   36  C   UNL     1      41.042 -10.430   4.673  1.00  0.00     0.016 A 
HETATM   37  C   UNL     1      40.893  -9.218   3.987  1.00  0.00     0.037 A 
HETATM   38  C   UNL     1      39.831  -9.016   3.100  1.00  0.00     0.068 A 
HETATM   39  C   UNL     1      38.906 -10.038   2.908  1.00  0.00     0.037 A 
HETATM   40  C   UNL     1      39.056 -11.252   3.586  1.00  0.00     0.016 A 
BRANCH  38  41
HETATM   41  O   UNL     1      39.805  -7.789   2.495  1.00  0.00    -0.356 OA
HETATM   42  C   UNL     1      39.221  -7.725   1.200  1.00  0.00     0.210 C 
ENDBRANCH  38  41
ENDBRANCH  12  35
TORSDOF 8
ENDMDL
MODEL 9
REMARK VINA RESULT:      -6.9      3.192      8.185
REMARK  8 active torsions:
REMARK  status: ('A' for Active; 'I' for Inactive)
REMARK    1  A    between atoms: C_2  and  O_3 
REMARK    2  A    between atoms: O_3  and  C_4 
REMARK    3  A    between atoms: C_5  and  O_6 
REMARK    4  A    between atoms: O_6  and  C_7 
REMARK       I    between atoms: C_7  and  N_8 
REMARK    5  A    between atoms: C_18  and  C_19 
REMARK    6  A    between atoms: C_23  and  N_24 
REMARK    7  A    between atoms: C_31  and  C_32 
REMARK    8  A    between atoms: C_35  and  O_36 
ROOT
HETATM    1  C   UNL     1      42.144 -14.466   3.614  1.00  0.00     0.105 C 
HETATM    2  C   UNL     1      42.420 -15.973   3.603  1.00  0.00     0.067 C 
HETATM    3  C   UNL     1      43.177 -16.555   2.421  1.00  0.00     0.020 C 
HETATM    4  N   UNL     1      43.805 -17.037   1.440  1.00  0.00    -0.096 N 
HETATM    5  C   UNL     1      42.013 -16.812   4.593  1.00  0.00     0.139 C 
HETATM    6  O   UNL     1      41.285 -16.348   5.698  1.00  0.00    -0.279 OA
HETATM    7  C   UNL     1      40.895 -15.082   5.657  1.00  0.00     0.175 A 
HETATM    8  C   UNL     1      41.197 -14.115   4.726  1.00  0.00     0.040 A 
HETATM    9  N   UNL     1      40.058 -14.525   6.562  1.00  0.00    -0.256 N 
HETATM   10  H   UNL     1      39.639 -14.957   7.378  1.00  0.00     0.191 HD
HETATM   11  N   UNL     1      39.753 -13.254   6.272  1.00  0.00    -0.172 NA
HETATM   12  C   UNL     1      40.437 -12.975   5.143  1.00  0.00     0.099 A 
ENDROOT
BRANCH   1  13
HETATM   13  C   UNL     1      41.648 -13.901   2.288  1.00  0.00    -0.040 C 
HETATM   14  C   UNL     1      40.458 -14.289   1.651  1.00  0.00     0.030 C 
HETATM   15  C   UNL     1      39.983 -13.572   0.548  1.00  0.00     0.048 C 
HETATM   16  C   UNL     1      40.739 -12.526   0.016  1.00  0.00     0.131 C 
HETATM   17 BR   UNL     1      38.285 -14.026  -0.166  1.00  0.00    -0.048 Br
HETATM   18  C   UNL     1      42.019 -12.248   0.511  1.00  0.00     0.104 C 
HETATM   19  C   UNL     1      42.438 -12.903   1.669  1.00  0.00     0.048 C 
BRANCH  16  20
HETATM   20  O   UNL     1      40.220 -11.776  -1.051  1.00  0.00    -0.257 OA
BRANCH  20  21
HETATM   21  C   UNL     1      40.692 -12.182  -2.298  1.00  0.00     0.368 C 
HETATM   22  N   UNL     1      40.511 -11.217  -3.275  1.00  0.00    -0.324 N 
HETATM   23  C   UNL     1      40.305  -9.802  -2.980  1.00  0.00     0.154 C 
HETATM   24  C   UNL     1      40.969 -11.475  -4.636  1.00  0.00     0.154 C 
HETATM   25  C   UNL     1      41.581  -9.018  -3.324  1.00  0.00     0.187 C 
HETATM   26  O   UNL     1      41.979  -9.247  -4.689  1.00  0.00    -0.388 OA
HETATM   27  C   UNL     1      42.224 -10.647  -4.929  1.00  0.00     0.187 C 
HETATM   28  O   UNL     1      41.213 -13.270  -2.532  1.00  0.00    -0.238 OA
ENDBRANCH  20  21
ENDBRANCH  16  20
BRANCH  18  29
HETATM   29  O   UNL     1      42.746 -11.302  -0.160  1.00  0.00    -0.349 OA
BRANCH  29  30
HETATM   30  C   UNL     1      42.554  -9.927   0.166  1.00  0.00     0.171 C 
HETATM   31  C   UNL     1      43.597  -9.045  -0.500  1.00  0.00     0.034 C 
ENDBRANCH  29  30
ENDBRANCH  18  29
ENDBRANCH   1  13
BRANCH   5  32
HETATM   32  N   UNL     1      42.249 -18.166   4.646  1.00  0.00    -0.282 NA
HETATM   33  H   UNL     1      41.743 -18.684   5.360  1.00  0.00     0.126 HD
HETATM   34  H   UNL     1      42.206 -18.603   3.728  1.00  0.00     0.126 HD
ENDBRANCH   5  32
BRANCH  12  35
HETATM   35  C   UNL     1      40.246 -11.675   4.498  1.00  0.00    -0.005 A 
HETATM   36  C   UNL     1      41.133 -10.613   4.675  1.00  0.00     0.016 A 
HETATM   37  C   UNL     1      40.945  -9.416   3.971  1.00  0.00     0.037 A 
HETATM   38  C   UNL     1      39.866  -9.255   3.097  1.00  0.00     0.068 A 
HETATM   39  C   UNL     1      38.964 -10.303   2.935  1.00  0.00     0.037 A 
HETATM   40  C   UNL     1      39.153 -11.501   3.631  1.00  0.00     0.016 A 
BRANCH  38  41
HETATM   41  O   UNL     1      39.801  -8.040   2.471  1.00  0.00    -0.356 OA
HETATM   42  C   UNL     1      39.420  -8.043   1.101  1.00  0.00     0.210 C 
ENDBRANCH  38  41
ENDBRANCH  12  35
TORSDOF 8
ENDMDL
MODEL 10
REMARK VINA RESULT:      -6.8      3.352      7.959
REMARK  8 active torsions:
REMARK  status: ('A' for Active; 'I' for Inactive)
REMARK    1  A    between atoms: C_2  and  O_3 
REMARK    2  A    between atoms: O_3  and  C_4 
REMARK    3  A    between atoms: C_5  and  O_6 
REMARK    4  A    between atoms: O_6  and  C_7 
REMARK       I    between atoms: C_7  and  N_8 
REMARK    5  A    between atoms: C_18  and  C_19 
REMARK    6  A    between atoms: C_23  and  N_24 
REMARK    7  A    between atoms: C_31  and  C_32 
REMARK    8  A    between atoms: C_35  and  O_36 
ROOT
HETATM    1  C   UNL     1      41.822 -14.872   3.383  1.00  0.00     0.105 C 
HETATM    2  C   UNL     1      42.152 -16.357   3.566  1.00  0.00     0.067 C 
HETATM    3  C   UNL     1      42.740 -17.111   2.384  1.00  0.00     0.020 C 
HETATM    4  N   UNL     1      43.227 -17.736   1.404  1.00  0.00    -0.096 N 
HETATM    5  C   UNL     1      41.936 -17.031   4.727  1.00  0.00     0.139 C 
HETATM    6  O   UNL     1      41.370 -16.405   5.846  1.00  0.00    -0.279 OA
HETATM    7  C   UNL     1      40.929 -15.168   5.669  1.00  0.00     0.175 A 
HETATM    8  C   UNL     1      41.046 -14.359   4.562  1.00  0.00     0.040 A 
HETATM    9  N   UNL     1      40.221 -14.483   6.597  1.00  0.00    -0.256 N 
HETATM   10  H   UNL     1      39.950 -14.784   7.527  1.00  0.00     0.191 HD
HETATM   11  N   UNL     1      39.825 -13.280   6.164  1.00  0.00    -0.172 NA
HETATM   12  C   UNL     1      40.316 -13.178   4.911  1.00  0.00     0.099 A 
ENDROOT
BRANCH   1  13
HETATM   13  C   UNL     1      41.106 -14.534   2.081  1.00  0.00    -0.040 C 
HETATM   14  C   UNL     1      39.715 -14.598   1.896  1.00  0.00     0.030 C 
HETATM   15  C   UNL     1      39.133 -14.075   0.737  1.00  0.00     0.048 C 
HETATM   16  C   UNL     1      39.941 -13.573  -0.286  1.00  0.00     0.131 C 
HETATM   17 BR   UNL     1      37.241 -14.025   0.614  1.00  0.00    -0.048 Br
HETATM   18  C   UNL     1      41.335 -13.679  -0.209  1.00  0.00     0.104 C 
HETATM   19  C   UNL     1      41.902 -14.112   0.990  1.00  0.00     0.048 C 
BRANCH  16  20
HETATM   20  O   UNL     1      39.341 -12.994  -1.414  1.00  0.00    -0.257 OA
BRANCH  20  21
HETATM   21  C   UNL     1      39.151 -11.618  -1.298  1.00  0.00     0.368 C 
HETATM   22  N   UNL     1      38.494 -11.079  -2.392  1.00  0.00    -0.324 N 
HETATM   23  C   UNL     1      37.684 -11.869  -3.315  1.00  0.00     0.154 C 
HETATM   24  C   UNL     1      38.196  -9.651  -2.421  1.00  0.00     0.154 C 
HETATM   25  C   UNL     1      36.196 -11.578  -3.067  1.00  0.00     0.187 C 
HETATM   26  O   UNL     1      35.921 -10.167  -3.157  1.00  0.00    -0.388 OA
HETATM   27  C   UNL     1      36.698  -9.426  -2.195  1.00  0.00     0.187 C 
HETATM   28  O   UNL     1      39.515 -10.936  -0.344  1.00  0.00    -0.238 OA
ENDBRANCH  20  21
ENDBRANCH  16  20
BRANCH  18  29
HETATM   29  O   UNL     1      42.043 -13.293  -1.315  1.00  0.00    -0.349 OA
BRANCH  29  30
HETATM   30  C   UNL     1      42.803 -12.087  -1.260  1.00  0.00     0.171 C 
HETATM   31  C   UNL     1      42.628 -11.259  -2.521  1.00  0.00     0.034 C 
ENDBRANCH  29  30
ENDBRANCH  18  29
ENDBRANCH   1  13
BRANCH   5  32
HETATM   32  N   UNL     1      42.230 -18.355   4.953  1.00  0.00    -0.282 NA
HETATM   33  H   UNL     1      43.072 -18.545   5.491  1.00  0.00     0.126 HD
HETATM   34  H   UNL     1      41.422 -18.882   5.276  1.00  0.00     0.126 HD
ENDBRANCH   5  32
BRANCH  12  35
HETATM   35  C   UNL     1      39.976 -12.001   4.108  1.00  0.00    -0.005 A 
HETATM   36  C   UNL     1      38.664 -11.700   3.738  1.00  0.00     0.016 A 
HETATM   37  C   UNL     1      38.386 -10.519   3.037  1.00  0.00     0.037 A 
HETATM   38  C   UNL     1      39.407  -9.634   2.682  1.00  0.00     0.068 A 
HETATM   39  C   UNL     1      40.721  -9.941   3.026  1.00  0.00     0.037 A 
HETATM   40  C   UNL     1      41.000 -11.115   3.732  1.00  0.00     0.016 A 
BRANCH  38  41
HETATM   41  O   UNL     1      38.998  -8.519   2.002  1.00  0.00    -0.356 OA
HETATM   42  C   UNL     1      37.637  -8.481   1.593  1.00  0.00     0.210 C 
ENDBRANCH  38  41
ENDBRANCH  12  35
TORSDOF 8
ENDMDL
