MODEL 1
REMARK VINA RESULT:      -9.4      0.000      0.000
REMARK  3 active torsions:
REMARK  status: ('A' for Active; 'I' for Inactive)
REMARK    1  A    between atoms: C_2  and  N_3 
REMARK    2  A    between atoms: C_6  and  C_7 
REMARK       I    between atoms: C_7  and  N_8 
REMARK    3  A    between atoms: N_8  and  C_9 
ROOT
HETATM    1  C   UNL     1      43.784 -14.921   6.697  1.00  0.00     0.036 A 
HETATM    2  C   UNL     1      43.458 -14.662   5.366  1.00  0.00     0.049 A 
HETATM    3  C   UNL     1      43.429 -15.694   4.398  1.00  0.00     0.061 A 
HETATM    4  C   UNL     1      43.751 -17.004   4.776  1.00  0.00     0.050 A 
HETATM    5  N   UNL     1      43.735 -18.139   3.950  1.00  0.00    -0.324 N 
HETATM    6  C   UNL     1      42.943 -18.399   2.866  1.00  0.00     0.245 C 
HETATM    7  O   UNL     1      42.978 -19.534   2.385  1.00  0.00    -0.271 OA
HETATM    8  C   UNL     1      41.911 -17.355   2.455  1.00  0.00     0.180 C 
HETATM    9  N   UNL     1      42.546 -16.091   2.122  1.00  0.00    -0.334 N 
HETATM   10  C   UNL     1      43.189 -15.250   2.998  1.00  0.00     0.256 C 
HETATM   11  O   UNL     1      43.566 -14.130   2.659  1.00  0.00    -0.267 OA
HETATM   12  C   UNL     1      41.165 -17.753   1.174  1.00  0.00     0.037 C 
HETATM   13  C   UNL     1      40.889 -16.418   0.497  1.00  0.00     0.022 C 
HETATM   14  C   UNL     1      42.150 -15.627   0.803  1.00  0.00     0.127 C 
HETATM   15  C   UNL     1      44.143 -17.244   6.102  1.00  0.00     0.033 A 
HETATM   16  C   UNL     1      44.140 -16.221   7.054  1.00  0.00     0.032 A 
HETATM   17  H   UNL     1      44.219 -18.972   4.267  1.00  0.00     0.169 HD
ENDROOT
BRANCH   1  18
HETATM   18  N   UNL     1      43.790 -13.951   7.722  1.00  0.00    -0.323 N 
HETATM   19  C   UNL     1      44.808 -13.076   8.052  1.00  0.00     0.257 C 
HETATM   20  O   UNL     1      45.882 -12.961   7.472  1.00  0.00    -0.267 OA
HETATM   21  H   UNL     1      42.929 -13.855   8.244  1.00  0.00     0.169 HD
BRANCH  19  22
HETATM   22  C   UNL     1      44.518 -12.146   9.177  1.00  0.00     0.044 A 
HETATM   23  C   UNL     1      43.426 -11.241   9.176  1.00  0.00     0.008 A 
HETATM   24  C   UNL     1      43.273 -10.370  10.270  1.00  0.00     0.045 A 
HETATM   25  C   UNL     1      42.328 -10.987   8.301  1.00  0.00     0.032 A 
HETATM   26  N   UNL     1      42.169  -9.574  10.013  1.00  0.00    -0.352 N 
HETATM   27  C   UNL     1      44.151 -10.411  11.368  1.00  0.00     0.030 A 
HETATM   28  C   UNL     1      41.594  -9.951   8.824  1.00  0.00     0.092 A 
HETATM   29  C   UNL     1      45.195 -11.337  11.366  1.00  0.00     0.003 A 
HETATM   30  C   UNL     1      45.380 -12.192  10.288  1.00  0.00     0.018 A 
BRANCH  26  31
HETATM   31  C   UNL     1      41.625  -8.498  10.847  1.00  0.00     0.081 C 
HETATM   32  C   UNL     1      40.754  -9.011  11.994  1.00  0.00     0.032 C 
HETATM   33  C   UNL     1      40.923  -7.421  10.021  1.00  0.00     0.032 C 
ENDBRANCH  26  31
ENDBRANCH  19  22
ENDBRANCH   1  18
TORSDOF 3
ENDMDL
MODEL 2
REMARK VINA RESULT:      -9.1      2.473      9.912
REMARK  3 active torsions:
REMARK  status: ('A' for Active; 'I' for Inactive)
REMARK    1  A    between atoms: C_2  and  N_3 
REMARK    2  A    between atoms: C_6  and  C_7 
REMARK       I    between atoms: C_7  and  N_8 
REMARK    3  A    between atoms: N_8  and  C_9 
ROOT
HETATM    1  C   UNL     1      42.895 -13.330   6.019  1.00  0.00     0.036 A 
HETATM    2  C   UNL     1      43.560 -12.952   7.187  1.00  0.00     0.049 A 
HETATM    3  C   UNL     1      43.167 -11.810   7.923  1.00  0.00     0.061 A 
HETATM    4  C   UNL     1      42.097 -11.028   7.466  1.00  0.00     0.050 A 
HETATM    5  N   UNL     1      41.564  -9.892   8.096  1.00  0.00    -0.324 N 
HETATM    6  C   UNL     1      41.513  -9.597   9.431  1.00  0.00     0.245 C 
HETATM    7  O   UNL     1      40.847  -8.620   9.780  1.00  0.00    -0.271 OA
HETATM    8  C   UNL     1      42.089 -10.605  10.419  1.00  0.00     0.180 C 
HETATM    9  N   UNL     1      43.503 -10.835  10.171  1.00  0.00    -0.334 N 
HETATM   10  C   UNL     1      44.043 -11.458   9.072  1.00  0.00     0.256 C 
HETATM   11  O   UNL     1      45.238 -11.743   9.015  1.00  0.00    -0.267 OA
HETATM   12  C   UNL     1      42.036 -10.092  11.864  1.00  0.00     0.037 C 
HETATM   13  C   UNL     1      43.278 -10.700  12.500  1.00  0.00     0.022 C 
HETATM   14  C   UNL     1      44.294 -10.629  11.372  1.00  0.00     0.127 C 
HETATM   15  C   UNL     1      41.478 -11.377   6.256  1.00  0.00     0.033 A 
HETATM   16  C   UNL     1      41.858 -12.524   5.553  1.00  0.00     0.032 A 
HETATM   17  H   UNL     1      40.968  -9.277   7.554  1.00  0.00     0.169 HD
ENDROOT
BRANCH   1  18
HETATM   18  N   UNL     1      43.204 -14.479   5.261  1.00  0.00    -0.323 N 
HETATM   19  C   UNL     1      42.510 -15.673   5.214  1.00  0.00     0.257 C 
HETATM   20  O   UNL     1      41.463 -15.927   5.799  1.00  0.00    -0.267 OA
HETATM   21  H   UNL     1      44.003 -14.400   4.644  1.00  0.00     0.169 HD
BRANCH  19  22
HETATM   22  C   UNL     1      43.068 -16.708   4.301  1.00  0.00     0.044 A 
HETATM   23  C   UNL     1      43.445 -18.005   4.735  1.00  0.00     0.008 A 
HETATM   24  C   UNL     1      44.011 -18.889   3.798  1.00  0.00     0.045 A 
HETATM   25  C   UNL     1      43.360 -18.721   5.965  1.00  0.00     0.032 A 
HETATM   26  N   UNL     1      44.321 -20.060   4.471  1.00  0.00    -0.352 N 
HETATM   27  C   UNL     1      44.167 -18.526   2.449  1.00  0.00     0.030 A 
HETATM   28  C   UNL     1      43.922 -19.960   5.781  1.00  0.00     0.092 A 
HETATM   29  C   UNL     1      43.752 -17.259   2.036  1.00  0.00     0.003 A 
HETATM   30  C   UNL     1      43.213 -16.360   2.946  1.00  0.00     0.018 A 
BRANCH  26  31
HETATM   31  C   UNL     1      44.951 -21.266   3.927  1.00  0.00     0.081 C 
HETATM   32  C   UNL     1      44.289 -21.761   2.640  1.00  0.00     0.032 C 
HETATM   33  C   UNL     1      45.087 -22.372   4.972  1.00  0.00     0.032 C 
ENDBRANCH  26  31
ENDBRANCH  19  22
ENDBRANCH   1  18
TORSDOF 3
ENDMDL
MODEL 3
REMARK VINA RESULT:      -9.1      5.353      8.965
REMARK  3 active torsions:
REMARK  status: ('A' for Active; 'I' for Inactive)
REMARK    1  A    between atoms: C_2  and  N_3 
REMARK    2  A    between atoms: C_6  and  C_7 
REMARK       I    between atoms: C_7  and  N_8 
REMARK    3  A    between atoms: N_8  and  C_9 
ROOT
HETATM    1  C   UNL     1      42.789 -16.684   1.241  1.00  0.00     0.036 A 
HETATM    2  C   UNL     1      42.391 -16.531   2.569  1.00  0.00     0.049 A 
HETATM    3  C   UNL     1      42.693 -17.507   3.548  1.00  0.00     0.061 A 
HETATM    4  C   UNL     1      43.393 -18.662   3.177  1.00  0.00     0.050 A 
HETATM    5  N   UNL     1      43.799 -19.702   4.029  1.00  0.00    -0.324 N 
HETATM    6  C   UNL     1      44.135 -19.643   5.353  1.00  0.00     0.245 C 
HETATM    7  O   UNL     1      44.626 -20.650   5.869  1.00  0.00    -0.271 OA
HETATM    8  C   UNL     1      44.090 -18.289   6.053  1.00  0.00     0.180 C 
HETATM    9  N   UNL     1      42.753 -17.720   6.011  1.00  0.00    -0.334 N 
HETATM   10  C   UNL     1      42.098 -17.271   4.891  1.00  0.00     0.256 C 
HETATM   11  O   UNL     1      41.030 -16.666   4.967  1.00  0.00    -0.267 OA
HETATM   12  C   UNL     1      44.407 -18.403   7.550  1.00  0.00     0.037 C 
HETATM   13  C   UNL     1      43.554 -17.308   8.175  1.00  0.00     0.022 C 
HETATM   14  C   UNL     1      42.286 -17.362   7.340  1.00  0.00     0.127 C 
HETATM   15  C   UNL     1      43.730 -18.841   1.827  1.00  0.00     0.033 A 
HETATM   16  C   UNL     1      43.450 -17.856   0.875  1.00  0.00     0.032 A 
HETATM   17  H   UNL     1      44.071 -20.586   3.614  1.00  0.00     0.169 HD
ENDROOT
BRANCH   1  18
HETATM   18  N   UNL     1      42.561 -15.733   0.224  1.00  0.00    -0.323 N 
HETATM   19  C   UNL     1      41.378 -15.082  -0.075  1.00  0.00     0.257 C 
HETATM   20  O   UNL     1      40.319 -15.188   0.532  1.00  0.00    -0.267 OA
HETATM   21  H   UNL     1      43.371 -15.463  -0.319  1.00  0.00     0.169 HD
BRANCH  19  22
HETATM   22  C   UNL     1      41.445 -14.110  -1.200  1.00  0.00     0.044 A 
HETATM   23  C   UNL     1      41.787 -12.744  -1.027  1.00  0.00     0.008 A 
HETATM   24  C   UNL     1      41.770 -11.899  -2.153  1.00  0.00     0.045 A 
HETATM   25  C   UNL     1      42.215 -11.943   0.072  1.00  0.00     0.032 A 
HETATM   26  N   UNL     1      42.100 -10.626  -1.718  1.00  0.00    -0.352 N 
HETATM   27  C   UNL     1      41.464 -12.392  -3.434  1.00  0.00     0.030 A 
HETATM   28  C   UNL     1      42.375 -10.654  -0.373  1.00  0.00     0.092 A 
HETATM   29  C   UNL     1      41.171 -13.747  -3.587  1.00  0.00     0.003 A 
HETATM   30  C   UNL     1      41.158 -14.596  -2.489  1.00  0.00     0.018 A 
BRANCH  26  31
HETATM   31  C   UNL     1      42.190  -9.401  -2.518  1.00  0.00     0.081 C 
HETATM   32  C   UNL     1      43.222  -8.409  -1.981  1.00  0.00     0.032 C 
HETATM   33  C   UNL     1      40.824  -8.754  -2.743  1.00  0.00     0.032 C 
ENDBRANCH  26  31
ENDBRANCH  19  22
ENDBRANCH   1  18
TORSDOF 3
ENDMDL
MODEL 4
REMARK VINA RESULT:      -9.1      5.614      9.038
REMARK  3 active torsions:
REMARK  status: ('A' for Active; 'I' for Inactive)
REMARK    1  A    between atoms: C_2  and  N_3 
REMARK    2  A    between atoms: C_6  and  C_7 
REMARK       I    between atoms: C_7  and  N_8 
REMARK    3  A    between atoms: N_8  and  C_9 
ROOT
HETATM    1  C   UNL     1      40.606 -15.500   1.653  1.00  0.00     0.036 A 
HETATM    2  C   UNL     1      40.950 -15.142   0.349  1.00  0.00     0.049 A 
HETATM    3  C   UNL     1      40.083 -14.369  -0.458  1.00  0.00     0.061 A 
HETATM    4  C   UNL     1      38.843 -13.963   0.053  1.00  0.00     0.050 A 
HETATM    5  N   UNL     1      37.889 -13.167  -0.602  1.00  0.00    -0.324 N 
HETATM    6  C   UNL     1      38.087 -12.187  -1.534  1.00  0.00     0.245 C 
HETATM    7  O   UNL     1      37.118 -11.494  -1.857  1.00  0.00    -0.271 OA
HETATM    8  C   UNL     1      39.516 -11.862  -1.954  1.00  0.00     0.180 C 
HETATM    9  N   UNL     1      40.171 -13.024  -2.532  1.00  0.00    -0.334 N 
HETATM   10  C   UNL     1      40.525 -14.172  -1.864  1.00  0.00     0.256 C 
HETATM   11  O   UNL     1      41.209 -15.043  -2.397  1.00  0.00    -0.267 OA
HETATM   12  C   UNL     1      39.566 -10.807  -3.066  1.00  0.00     0.037 C 
HETATM   13  C   UNL     1      40.788 -11.209  -3.880  1.00  0.00     0.022 C 
HETATM   14  C   UNL     1      40.722 -12.726  -3.843  1.00  0.00     0.127 C 
HETATM   15  C   UNL     1      38.475 -14.384   1.341  1.00  0.00     0.033 A 
HETATM   16  C   UNL     1      39.353 -15.125   2.137  1.00  0.00     0.032 A 
HETATM   17  H   UNL     1      36.943 -13.150  -0.236  1.00  0.00     0.169 HD
ENDROOT
BRANCH   1  18
HETATM   18  N   UNL     1      41.438 -16.231   2.527  1.00  0.00    -0.323 N 
HETATM   19  C   UNL     1      42.668 -15.855   3.034  1.00  0.00     0.257 C 
HETATM   20  O   UNL     1      43.234 -14.785   2.845  1.00  0.00    -0.267 OA
HETATM   21  H   UNL     1      41.068 -17.113   2.856  1.00  0.00     0.169 HD
BRANCH  19  22
HETATM   22  C   UNL     1      43.310 -16.832   3.955  1.00  0.00     0.044 A 
HETATM   23  C   UNL     1      43.631 -18.161   3.577  1.00  0.00     0.008 A 
HETATM   24  C   UNL     1      44.191 -19.018   4.542  1.00  0.00     0.045 A 
HETATM   25  C   UNL     1      43.565 -18.909   2.364  1.00  0.00     0.032 A 
HETATM   26  N   UNL     1      44.376 -20.253   3.941  1.00  0.00    -0.352 N 
HETATM   27  C   UNL     1      44.471 -18.571   5.846  1.00  0.00     0.030 A 
HETATM   28  C   UNL     1      44.001 -20.184   2.621  1.00  0.00     0.092 A 
HETATM   29  C   UNL     1      44.185 -17.247   6.183  1.00  0.00     0.003 A 
HETATM   30  C   UNL     1      43.611 -16.389   5.256  1.00  0.00     0.018 A 
BRANCH  26  31
HETATM   31  C   UNL     1      44.907 -21.476   4.549  1.00  0.00     0.081 C 
HETATM   32  C   UNL     1      44.744 -22.708   3.659  1.00  0.00     0.032 C 
HETATM   33  C   UNL     1      44.369 -21.704   5.961  1.00  0.00     0.032 C 
ENDBRANCH  26  31
ENDBRANCH  19  22
ENDBRANCH   1  18
TORSDOF 3
ENDMDL
MODEL 5
REMARK VINA RESULT:      -9.0      2.612      4.079
REMARK  3 active torsions:
REMARK  status: ('A' for Active; 'I' for Inactive)
REMARK    1  A    between atoms: C_2  and  N_3 
REMARK    2  A    between atoms: C_6  and  C_7 
REMARK       I    between atoms: C_7  and  N_8 
REMARK    3  A    between atoms: N_8  and  C_9 
ROOT
HETATM    1  C   UNL     1      40.187 -13.365   5.520  1.00  0.00     0.036 A 
HETATM    2  C   UNL     1      40.762 -14.635   5.454  1.00  0.00     0.049 A 
HETATM    3  C   UNL     1      40.872 -15.333   4.228  1.00  0.00     0.061 A 
HETATM    4  C   UNL     1      40.380 -14.748   3.054  1.00  0.00     0.050 A 
HETATM    5  N   UNL     1      40.443 -15.290   1.760  1.00  0.00    -0.324 N 
HETATM    6  C   UNL     1      41.388 -16.123   1.226  1.00  0.00     0.245 C 
HETATM    7  O   UNL     1      41.341 -16.344   0.013  1.00  0.00    -0.271 OA
HETATM    8  C   UNL     1      42.560 -16.547   2.103  1.00  0.00     0.180 C 
HETATM    9  N   UNL     1      42.102 -17.260   3.284  1.00  0.00    -0.334 N 
HETATM   10  C   UNL     1      41.389 -16.724   4.329  1.00  0.00     0.256 C 
HETATM   11  O   UNL     1      41.173 -17.363   5.357  1.00  0.00    -0.267 OA
HETATM   12  C   UNL     1      43.481 -17.546   1.391  1.00  0.00     0.037 C 
HETATM   13  C   UNL     1      43.984 -18.432   2.523  1.00  0.00     0.022 C 
HETATM   14  C   UNL     1      42.760 -18.548   3.416  1.00  0.00     0.127 C 
HETATM   15  C   UNL     1      39.742 -13.501   3.140  1.00  0.00     0.033 A 
HETATM   16  C   UNL     1      39.666 -12.810   4.352  1.00  0.00     0.032 A 
HETATM   17  H   UNL     1      39.842 -14.898   1.044  1.00  0.00     0.169 HD
ENDROOT
BRANCH   1  18
HETATM   18  N   UNL     1      40.085 -12.595   6.698  1.00  0.00    -0.323 N 
HETATM   19  C   UNL     1      40.704 -11.391   6.976  1.00  0.00     0.257 C 
HETATM   20  O   UNL     1      41.423 -10.753   6.217  1.00  0.00    -0.267 OA
HETATM   21  H   UNL     1      39.447 -12.945   7.400  1.00  0.00     0.169 HD
BRANCH  19  22
HETATM   22  C   UNL     1      40.390 -10.798   8.305  1.00  0.00     0.044 A 
HETATM   23  C   UNL     1      41.352 -10.655   9.338  1.00  0.00     0.008 A 
HETATM   24  C   UNL     1      40.937 -10.128  10.575  1.00  0.00     0.045 A 
HETATM   25  C   UNL     1      42.754 -10.889   9.450  1.00  0.00     0.032 A 
HETATM   26  N   UNL     1      42.040 -10.125  11.414  1.00  0.00    -0.352 N 
HETATM   27  C   UNL     1      39.611  -9.708  10.785  1.00  0.00     0.030 A 
HETATM   28  C   UNL     1      43.141 -10.580  10.730  1.00  0.00     0.092 A 
HETATM   29  C   UNL     1      38.692  -9.821   9.741  1.00  0.00     0.003 A 
HETATM   30  C   UNL     1      39.071 -10.360   8.520  1.00  0.00     0.018 A 
BRANCH  26  31
HETATM   31  C   UNL     1      42.101  -9.691  12.812  1.00  0.00     0.081 C 
HETATM   32  C   UNL     1      43.528  -9.431  13.297  1.00  0.00     0.032 C 
HETATM   33  C   UNL     1      41.332 -10.626  13.744  1.00  0.00     0.032 C 
ENDBRANCH  26  31
ENDBRANCH  19  22
ENDBRANCH   1  18
TORSDOF 3
ENDMDL
MODEL 6
REMARK VINA RESULT:      -9.0      6.082      9.072
REMARK  3 active torsions:
REMARK  status: ('A' for Active; 'I' for Inactive)
REMARK    1  A    between atoms: C_2  and  N_3 
REMARK    2  A    between atoms: C_6  and  C_7 
REMARK       I    between atoms: C_7  and  N_8 
REMARK    3  A    between atoms: N_8  and  C_9 
ROOT
HETATM    1  C   UNL     1      41.274 -15.059   0.691  1.00  0.00     0.036 A 
HETATM    2  C   UNL     1      41.721 -14.558  -0.532  1.00  0.00     0.049 A 
HETATM    3  C   UNL     1      41.024 -13.529  -1.208  1.00  0.00     0.061 A 
HETATM    4  C   UNL     1      39.850 -13.008  -0.650  1.00  0.00     0.050 A 
HETATM    5  N   UNL     1      39.066 -11.967  -1.173  1.00  0.00    -0.324 N 
HETATM    6  C   UNL     1      39.457 -10.897  -1.928  1.00  0.00     0.245 C 
HETATM    7  O   UNL     1      38.629 -10.008  -2.141  1.00  0.00    -0.271 OA
HETATM    8  C   UNL     1      40.936 -10.754  -2.274  1.00  0.00     0.180 C 
HETATM    9  N   UNL     1      41.411 -11.901  -3.030  1.00  0.00    -0.334 N 
HETATM   10  C   UNL     1      41.546 -13.185  -2.558  1.00  0.00     0.256 C 
HETATM   11  O   UNL     1      42.097 -14.061  -3.221  1.00  0.00    -0.267 OA
HETATM   12  C   UNL     1      41.200  -9.557  -3.195  1.00  0.00     0.037 C 
HETATM   13  C   UNL     1      42.369 -10.022  -4.052  1.00  0.00     0.022 C 
HETATM   14  C   UNL     1      42.053 -11.493  -4.268  1.00  0.00     0.127 C 
HETATM   15  C   UNL     1      39.370 -13.563   0.547  1.00  0.00     0.033 A 
HETATM   16  C   UNL     1      40.083 -14.561   1.218  1.00  0.00     0.032 A 
HETATM   17  H   UNL     1      38.123 -11.850  -0.819  1.00  0.00     0.169 HD
ENDROOT
BRANCH   1  18
HETATM   18  N   UNL     1      41.941 -16.051   1.440  1.00  0.00    -0.323 N 
HETATM   19  C   UNL     1      41.613 -17.389   1.551  1.00  0.00     0.257 C 
HETATM   20  O   UNL     1      40.697 -17.962   0.972  1.00  0.00    -0.267 OA
HETATM   21  H   UNL     1      42.785 -15.755   1.913  1.00  0.00     0.169 HD
BRANCH  19  22
HETATM   22  C   UNL     1      42.518 -18.206   2.405  1.00  0.00     0.044 A 
HETATM   23  C   UNL     1      42.508 -18.152   3.823  1.00  0.00     0.008 A 
HETATM   24  C   UNL     1      43.442 -18.928   4.532  1.00  0.00     0.045 A 
HETATM   25  C   UNL     1      41.707 -17.491   4.801  1.00  0.00     0.032 A 
HETATM   26  N   UNL     1      43.252 -18.674   5.881  1.00  0.00    -0.352 N 
HETATM   27  C   UNL     1      44.345 -19.777   3.867  1.00  0.00     0.030 A 
HETATM   28  C   UNL     1      42.198 -17.808   6.043  1.00  0.00     0.092 A 
HETATM   29  C   UNL     1      44.311 -19.844   2.474  1.00  0.00     0.003 A 
HETATM   30  C   UNL     1      43.414 -19.070   1.750  1.00  0.00     0.018 A 
BRANCH  26  31
HETATM   31  C   UNL     1      44.001 -19.228   7.012  1.00  0.00     0.081 C 
HETATM   32  C   UNL     1      43.596 -20.662   7.354  1.00  0.00     0.032 C 
HETATM   33  C   UNL     1      43.972 -18.309   8.233  1.00  0.00     0.032 C 
ENDBRANCH  26  31
ENDBRANCH  19  22
ENDBRANCH   1  18
TORSDOF 3
ENDMDL
MODEL 7
REMARK VINA RESULT:      -8.9      2.915      9.637
REMARK  3 active torsions:
REMARK  status: ('A' for Active; 'I' for Inactive)
REMARK    1  A    between atoms: C_2  and  N_3 
REMARK    2  A    between atoms: C_6  and  C_7 
REMARK       I    between atoms: C_7  and  N_8 
REMARK    3  A    between atoms: N_8  and  C_9 
ROOT
HETATM    1  C   UNL     1      41.360 -13.602   4.669  1.00  0.00     0.036 A 
HETATM    2  C   UNL     1      41.854 -13.023   5.839  1.00  0.00     0.049 A 
HETATM    3  C   UNL     1      41.250 -11.877   6.407  1.00  0.00     0.061 A 
HETATM    4  C   UNL     1      40.141 -11.297   5.778  1.00  0.00     0.050 A 
HETATM    5  N   UNL     1      39.410 -10.186   6.230  1.00  0.00    -0.324 N 
HETATM    6  C   UNL     1      39.191  -9.770   7.514  1.00  0.00     0.245 C 
HETATM    7  O   UNL     1      38.377  -8.861   7.695  1.00  0.00    -0.271 OA
HETATM    8  C   UNL     1      39.790 -10.587   8.654  1.00  0.00     0.180 C 
HETATM    9  N   UNL     1      41.239 -10.646   8.553  1.00  0.00    -0.334 N 
HETATM   10  C   UNL     1      41.959 -11.297   7.580  1.00  0.00     0.256 C 
HETATM   11  O   UNL     1      43.179 -11.422   7.655  1.00  0.00    -0.267 OA
HETATM   12  C   UNL     1      39.532  -9.944  10.023  1.00  0.00     0.037 C 
HETATM   13  C   UNL     1      40.772 -10.312  10.825  1.00  0.00     0.022 C 
HETATM   14  C   UNL     1      41.876 -10.216   9.786  1.00  0.00     0.127 C 
HETATM   15  C   UNL     1      39.692 -11.845   4.567  1.00  0.00     0.033 A 
HETATM   16  C   UNL     1      40.280 -12.994   4.031  1.00  0.00     0.032 A 
HETATM   17  H   UNL     1      38.797  -9.714   5.575  1.00  0.00     0.169 HD
ENDROOT
BRANCH   1  18
HETATM   18  N   UNL     1      41.884 -14.768   4.072  1.00  0.00    -0.323 N 
HETATM   19  C   UNL     1      43.076 -14.903   3.386  1.00  0.00     0.257 C 
HETATM   20  O   UNL     1      43.918 -14.029   3.215  1.00  0.00    -0.267 OA
HETATM   21  H   UNL     1      41.343 -15.613   4.203  1.00  0.00     0.169 HD
BRANCH  19  22
HETATM   22  C   UNL     1      43.376 -16.270   2.879  1.00  0.00     0.044 A 
HETATM   23  C   UNL     1      43.744 -17.349   3.725  1.00  0.00     0.008 A 
HETATM   24  C   UNL     1      44.056 -18.588   3.136  1.00  0.00     0.045 A 
HETATM   25  C   UNL     1      43.853 -17.533   5.134  1.00  0.00     0.032 A 
HETATM   26  N   UNL     1      44.413 -19.452   4.158  1.00  0.00    -0.352 N 
HETATM   27  C   UNL     1      43.970 -18.782   1.746  1.00  0.00     0.030 A 
HETATM   28  C   UNL     1      44.285 -18.815   5.368  1.00  0.00     0.092 A 
HETATM   29  C   UNL     1      43.567 -17.718   0.937  1.00  0.00     0.003 A 
HETATM   30  C   UNL     1      43.276 -16.479   1.492  1.00  0.00     0.018 A 
BRANCH  26  31
HETATM   31  C   UNL     1      44.844 -20.849   4.042  1.00  0.00     0.081 C 
HETATM   32  C   UNL     1      44.193 -21.581   2.869  1.00  0.00     0.032 C 
HETATM   33  C   UNL     1      44.698 -21.612   5.357  1.00  0.00     0.032 C 
ENDBRANCH  26  31
ENDBRANCH  19  22
ENDBRANCH   1  18
TORSDOF 3
ENDMDL
MODEL 8
REMARK VINA RESULT:      -8.8      5.144      9.106
REMARK  3 active torsions:
REMARK  status: ('A' for Active; 'I' for Inactive)
REMARK    1  A    between atoms: C_2  and  N_3 
REMARK    2  A    between atoms: C_6  and  C_7 
REMARK       I    between atoms: C_7  and  N_8 
REMARK    3  A    between atoms: N_8  and  C_9 
ROOT
HETATM    1  C   UNL     1      41.238 -15.984   3.883  1.00  0.00     0.036 A 
HETATM    2  C   UNL     1      42.127 -17.031   3.635  1.00  0.00     0.049 A 
HETATM    3  C   UNL     1      42.892 -17.612   4.674  1.00  0.00     0.061 A 
HETATM    4  C   UNL     1      42.770 -17.119   5.979  1.00  0.00     0.050 A 
HETATM    5  N   UNL     1      43.427 -17.606   7.121  1.00  0.00    -0.324 N 
HETATM    6  C   UNL     1      43.841 -18.881   7.393  1.00  0.00     0.245 C 
HETATM    7  O   UNL     1      44.249 -19.124   8.531  1.00  0.00    -0.271 OA
HETATM    8  C   UNL     1      43.573 -19.967   6.357  1.00  0.00     0.180 C 
HETATM    9  N   UNL     1      44.218 -19.658   5.092  1.00  0.00    -0.334 N 
HETATM   10  C   UNL     1      43.887 -18.630   4.242  1.00  0.00     0.256 C 
HETATM   11  O   UNL     1      44.386 -18.533   3.122  1.00  0.00    -0.267 OA
HETATM   12  C   UNL     1      44.173 -21.318   6.768  1.00  0.00     0.037 C 
HETATM   13  C   UNL     1      44.564 -21.950   5.440  1.00  0.00     0.022 C 
HETATM   14  C   UNL     1      45.056 -20.755   4.640  1.00  0.00     0.127 C 
HETATM   15  C   UNL     1      41.925 -16.023   6.208  1.00  0.00     0.033 A 
HETATM   16  C   UNL     1      41.154 -15.476   5.178  1.00  0.00     0.032 A 
HETATM   17  H   UNL     1      43.452 -17.021   7.949  1.00  0.00     0.169 HD
ENDROOT
BRANCH   1  18
HETATM   18  N   UNL     1      40.414 -15.388   2.905  1.00  0.00    -0.323 N 
HETATM   19  C   UNL     1      40.670 -14.251   2.163  1.00  0.00     0.257 C 
HETATM   20  O   UNL     1      41.695 -13.579   2.195  1.00  0.00    -0.267 OA
HETATM   21  H   UNL     1      39.556 -15.879   2.692  1.00  0.00     0.169 HD
BRANCH  19  22
HETATM   22  C   UNL     1      39.615 -13.868   1.186  1.00  0.00     0.044 A 
HETATM   23  C   UNL     1      39.703 -14.148  -0.202  1.00  0.00     0.008 A 
HETATM   24  C   UNL     1      38.671 -13.695  -1.045  1.00  0.00     0.045 A 
HETATM   25  C   UNL     1      40.619 -14.858  -1.032  1.00  0.00     0.032 A 
HETATM   26  N   UNL     1      39.007 -14.058  -2.340  1.00  0.00    -0.352 N 
HETATM   27  C   UNL     1      37.550 -13.017  -0.534  1.00  0.00     0.030 A 
HETATM   28  C   UNL     1      40.184 -14.767  -2.330  1.00  0.00     0.092 A 
HETATM   29  C   UNL     1      37.466 -12.789   0.840  1.00  0.00     0.003 A 
HETATM   30  C   UNL     1      38.482 -13.204   1.690  1.00  0.00     0.018 A 
BRANCH  26  31
HETATM   31  C   UNL     1      38.258 -13.787  -3.570  1.00  0.00     0.081 C 
HETATM   32  C   UNL     1      37.814 -12.329  -3.692  1.00  0.00     0.032 C 
HETATM   33  C   UNL     1      37.102 -14.765  -3.773  1.00  0.00     0.032 C 
ENDBRANCH  26  31
ENDBRANCH  19  22
ENDBRANCH   1  18
TORSDOF 3
ENDMDL
MODEL 9
REMARK VINA RESULT:      -8.8      2.014      3.116
REMARK  3 active torsions:
REMARK  status: ('A' for Active; 'I' for Inactive)
REMARK    1  A    between atoms: C_2  and  N_3 
REMARK    2  A    between atoms: C_6  and  C_7 
REMARK       I    between atoms: C_7  and  N_8 
REMARK    3  A    between atoms: N_8  and  C_9 
ROOT
HETATM    1  C   UNL     1      42.574 -13.217   5.935  1.00  0.00     0.036 A 
HETATM    2  C   UNL     1      42.653 -14.586   5.677  1.00  0.00     0.049 A 
HETATM    3  C   UNL     1      42.356 -15.115   4.399  1.00  0.00     0.061 A 
HETATM    4  C   UNL     1      41.957 -14.252   3.370  1.00  0.00     0.050 A 
HETATM    5  N   UNL     1      41.663 -14.611   2.045  1.00  0.00    -0.324 N 
HETATM    6  C   UNL     1      42.179 -15.635   1.300  1.00  0.00     0.245 C 
HETATM    7  O   UNL     1      41.905 -15.669   0.098  1.00  0.00    -0.271 OA
HETATM    8  C   UNL     1      43.228 -16.539   1.939  1.00  0.00     0.180 C 
HETATM    9  N   UNL     1      42.701 -17.203   3.119  1.00  0.00    -0.334 N 
HETATM   10  C   UNL     1      42.360 -16.600   4.305  1.00  0.00     0.256 C 
HETATM   11  O   UNL     1      42.064 -17.256   5.302  1.00  0.00    -0.267 OA
HETATM   12  C   UNL     1      43.642 -17.688   1.011  1.00  0.00     0.037 C 
HETATM   13  C   UNL     1      43.940 -18.830   1.973  1.00  0.00     0.022 C 
HETATM   14  C   UNL     1      42.876 -18.644   3.042  1.00  0.00     0.127 C 
HETATM   15  C   UNL     1      41.815 -12.885   3.656  1.00  0.00     0.033 A 
HETATM   16  C   UNL     1      42.139 -12.372   4.915  1.00  0.00     0.032 A 
HETATM   17  H   UNL     1      41.153 -13.951   1.469  1.00  0.00     0.169 HD
ENDROOT
BRANCH   1  18
HETATM   18  N   UNL     1      42.898 -12.617   7.170  1.00  0.00    -0.323 N 
HETATM   19  C   UNL     1      42.496 -11.381   7.640  1.00  0.00     0.257 C 
HETATM   20  O   UNL     1      41.739 -10.601   7.074  1.00  0.00    -0.267 OA
HETATM   21  H   UNL     1      43.452 -13.179   7.803  1.00  0.00     0.169 HD
BRANCH  19  22
HETATM   22  C   UNL     1      42.984 -11.019   8.999  1.00  0.00     0.044 A 
HETATM   23  C   UNL     1      42.133 -10.540  10.029  1.00  0.00     0.008 A 
HETATM   24  C   UNL     1      42.707 -10.178  11.261  1.00  0.00     0.045 A 
HETATM   25  C   UNL     1      40.727 -10.350  10.167  1.00  0.00     0.032 A 
HETATM   26  N   UNL     1      41.685  -9.715  12.073  1.00  0.00    -0.352 N 
HETATM   27  C   UNL     1      44.086 -10.321  11.498  1.00  0.00     0.030 A 
HETATM   28  C   UNL     1      40.485  -9.824  11.412  1.00  0.00     0.092 A 
HETATM   29  C   UNL     1      44.898 -10.832  10.484  1.00  0.00     0.003 A 
HETATM   30  C   UNL     1      44.359 -11.174   9.251  1.00  0.00     0.018 A 
BRANCH  26  31
HETATM   31  C   UNL     1      41.789  -9.201  13.442  1.00  0.00     0.081 C 
HETATM   32  C   UNL     1      42.564  -7.886  13.530  1.00  0.00     0.032 C 
HETATM   33  C   UNL     1      42.315 -10.253  14.418  1.00  0.00     0.032 C 
ENDBRANCH  26  31
ENDBRANCH  19  22
ENDBRANCH   1  18
TORSDOF 3
ENDMDL
MODEL 10
REMARK VINA RESULT:      -8.8      5.597      9.749
REMARK  3 active torsions:
REMARK  status: ('A' for Active; 'I' for Inactive)
REMARK    1  A    between atoms: C_2  and  N_3 
REMARK    2  A    between atoms: C_6  and  C_7 
REMARK       I    between atoms: C_7  and  N_8 
REMARK    3  A    between atoms: N_8  and  C_9 
ROOT
HETATM    1  C   UNL     1      40.688 -16.343   1.752  1.00  0.00     0.036 A 
HETATM    2  C   UNL     1      40.844 -16.478   3.132  1.00  0.00     0.049 A 
HETATM    3  C   UNL     1      41.740 -17.422   3.686  1.00  0.00     0.061 A 
HETATM    4  C   UNL     1      42.479 -18.254   2.834  1.00  0.00     0.050 A 
HETATM    5  N   UNL     1      43.430 -19.211   3.221  1.00  0.00    -0.324 N 
HETATM    6  C   UNL     1      44.254 -19.208   4.313  1.00  0.00     0.245 C 
HETATM    7  O   UNL     1      45.136 -20.068   4.372  1.00  0.00    -0.271 OA
HETATM    8  C   UNL     1      44.180 -18.026   5.274  1.00  0.00     0.180 C 
HETATM    9  N   UNL     1      42.850 -17.895   5.845  1.00  0.00    -0.334 N 
HETATM   10  C   UNL     1      41.708 -17.540   5.168  1.00  0.00     0.256 C 
HETATM   11  O   UNL     1      40.655 -17.307   5.758  1.00  0.00    -0.267 OA
HETATM   12  C   UNL     1      45.098 -18.212   6.489  1.00  0.00     0.037 C 
HETATM   13  C   UNL     1      44.343 -17.515   7.612  1.00  0.00     0.022 C 
HETATM   14  C   UNL     1      42.896 -17.857   7.296  1.00  0.00     0.127 C 
HETATM   15  C   UNL     1      42.267 -18.159   1.450  1.00  0.00     0.033 A 
HETATM   16  C   UNL     1      41.398 -17.203   0.916  1.00  0.00     0.032 A 
HETATM   17  H   UNL     1      43.710 -19.913   2.545  1.00  0.00     0.169 HD
ENDROOT
BRANCH   1  18
HETATM   18  N   UNL     1      39.847 -15.395   1.132  1.00  0.00    -0.323 N 
HETATM   19  C   UNL     1      40.215 -14.215   0.514  1.00  0.00     0.257 C 
HETATM   20  O   UNL     1      41.359 -13.805   0.356  1.00  0.00    -0.267 OA
HETATM   21  H   UNL     1      38.864 -15.633   1.096  1.00  0.00     0.169 HD
BRANCH  19  22
HETATM   22  C   UNL     1      39.102 -13.420  -0.073  1.00  0.00     0.044 A 
HETATM   23  C   UNL     1      38.639 -13.594  -1.403  1.00  0.00     0.008 A 
HETATM   24  C   UNL     1      37.614 -12.754  -1.873  1.00  0.00     0.045 A 
HETATM   25  C   UNL     1      38.940 -14.496  -2.465  1.00  0.00     0.032 A 
HETATM   26  N   UNL     1      37.372 -13.096  -3.194  1.00  0.00    -0.352 N 
HETATM   27  C   UNL     1      37.019 -11.787  -1.043  1.00  0.00     0.030 A 
HETATM   28  C   UNL     1      38.172 -14.155  -3.550  1.00  0.00     0.092 A 
HETATM   29  C   UNL     1      37.462 -11.661   0.275  1.00  0.00     0.003 A 
HETATM   30  C   UNL     1      38.489 -12.462   0.755  1.00  0.00     0.018 A 
BRANCH  26  31
HETATM   31  C   UNL     1      36.410 -12.487  -4.117  1.00  0.00     0.081 C 
HETATM   32  C   UNL     1      35.822 -13.485  -5.115  1.00  0.00     0.032 C 
HETATM   33  C   UNL     1      36.971 -11.242  -4.802  1.00  0.00     0.032 C 
ENDBRANCH  26  31
ENDBRANCH  19  22
ENDBRANCH   1  18
TORSDOF 3
ENDMDL
