MODEL 1
REMARK VINA RESULT:      -9.1      0.000      0.000
REMARK  5 active torsions:
REMARK  status: ('A' for Active; 'I' for Inactive)
REMARK    1  A    between atoms: C_7  and  C_8 
REMARK    2  A    between atoms: C_8  and  N_9 
REMARK    3  A    between atoms: C_13  and  C_14 
REMARK    4  A    between atoms: C_17  and  C_18 
REMARK    5  A    between atoms: C_18  and  N_19 
ROOT
HETATM    1  N   UNL     1      43.146 -17.057   5.600  1.00  0.00    -0.067 N 
HETATM    2  H   UNL     1      43.020 -16.853   6.599  1.00  0.00     0.280 HD
HETATM    3  C   UNL     1      43.387 -15.742   4.895  1.00  0.00     0.236 C 
HETATM    4  C   UNL     1      42.141 -14.862   4.951  1.00  0.00     0.040 C 
HETATM    5  C   UNL     1      40.887 -15.553   4.407  1.00  0.00     0.060 C 
HETATM    6  C   UNL     1      40.691 -16.894   5.126  1.00  0.00     0.040 C 
HETATM    7  C   UNL     1      41.924 -17.790   5.103  1.00  0.00     0.236 C 
ENDROOT
BRANCH   5   8
HETATM    8  C   UNL     1      40.971 -15.726   2.914  1.00  0.00     0.134 A 
HETATM    9  N   UNL     1      41.199 -14.736   1.984  1.00  0.00    -0.323 N 
HETATM   10  C   UNL     1      41.405 -13.332   2.249  1.00  0.00     0.159 C 
HETATM   11  C   UNL     1      41.196 -15.364   0.761  1.00  0.00     0.155 A 
HETATM   12  N   UNL     1      41.011 -16.656   0.947  1.00  0.00    -0.133 NA
HETATM   13  N   UNL     1      40.863 -16.876   2.282  1.00  0.00    -0.134 NA
BRANCH  11  14
HETATM   14  C   UNL     1      41.374 -14.728  -0.578  1.00  0.00     0.315 C 
BRANCH  14  15
HETATM   15  N   UNL     1      40.241 -15.105  -1.519  1.00  0.00    -0.064 N 
HETATM   16  H   UNL     1      39.747 -15.868  -1.028  1.00  0.00     0.280 HD
HETATM   17  C   UNL     1      39.232 -13.991  -1.688  1.00  0.00     0.235 C 
HETATM   18  C   UNL     1      38.037 -14.510  -2.472  1.00  0.00     0.028 C 
HETATM   19  C   UNL     1      38.460 -15.094  -3.815  1.00  0.00     0.003 C 
HETATM   20  C   UNL     1      39.535 -16.160  -3.640  1.00  0.00     0.028 C 
HETATM   21  C   UNL     1      40.723 -15.644  -2.839  1.00  0.00     0.235 C 
ENDBRANCH  14  15
ENDBRANCH  11  14
ENDBRANCH   5   8
BRANCH   1  22
HETATM   22  C   UNL     1      44.357 -17.982   5.515  1.00  0.00     0.273 C 
BRANCH  22  23
HETATM   23  C   UNL     1      44.304 -18.962   4.374  1.00  0.00    -0.032 A 
HETATM   24  C   UNL     1      43.970 -18.539   3.080  1.00  0.00     0.012 A 
HETATM   25  C   UNL     1      43.885 -19.467   2.041  1.00  0.00     0.043 A 
HETATM   26  C   UNL     1      44.133 -20.813   2.289  1.00  0.00     0.122 A 
HETATM   27  C   UNL     1      44.486 -21.260   3.563  1.00  0.00    -0.023 A 
HETATM   28  F   UNL     1      44.023 -21.687   1.281  1.00  0.00    -0.206 F 
HETATM   29  C   UNL     1      44.719 -22.719   3.816  1.00  0.00     0.051 C 
HETATM   30  C   UNL     1      44.562 -20.328   4.606  1.00  0.00     0.018 A 
ENDBRANCH  22  23
ENDBRANCH   1  22
TORSDOF 5
ENDMDL
MODEL 2
REMARK VINA RESULT:      -8.9      1.752      2.545
REMARK  5 active torsions:
REMARK  status: ('A' for Active; 'I' for Inactive)
REMARK    1  A    between atoms: C_7  and  C_8 
REMARK    2  A    between atoms: C_8  and  N_9 
REMARK    3  A    between atoms: C_13  and  C_14 
REMARK    4  A    between atoms: C_17  and  C_18 
REMARK    5  A    between atoms: C_18  and  N_19 
ROOT
HETATM    1  N   UNL     1      42.795 -16.101   3.100  1.00  0.00    -0.067 N 
HETATM    2  H   UNL     1      42.820 -16.406   4.081  1.00  0.00     0.280 HD
HETATM    3  C   UNL     1      43.207 -14.647   3.068  1.00  0.00     0.236 C 
HETATM    4  C   UNL     1      42.167 -13.774   3.765  1.00  0.00     0.040 C 
HETATM    5  C   UNL     1      40.753 -13.955   3.208  1.00  0.00     0.060 C 
HETATM    6  C   UNL     1      40.381 -15.443   3.233  1.00  0.00     0.040 C 
HETATM    7  C   UNL     1      41.408 -16.345   2.558  1.00  0.00     0.236 C 
ENDROOT
BRANCH   5   8
HETATM    8  C   UNL     1      40.640 -13.373   1.824  1.00  0.00     0.134 A 
HETATM    9  N   UNL     1      39.574 -13.507   0.961  1.00  0.00    -0.323 N 
HETATM   10  C   UNL     1      38.349 -14.229   1.207  1.00  0.00     0.159 C 
HETATM   11  C   UNL     1      39.919 -12.806  -0.171  1.00  0.00     0.155 A 
HETATM   12  N   UNL     1      41.104 -12.258   0.013  1.00  0.00    -0.133 NA
HETATM   13  N   UNL     1      41.552 -12.619   1.247  1.00  0.00    -0.134 NA
BRANCH  11  14
HETATM   14  C   UNL     1      39.114 -12.661  -1.419  1.00  0.00     0.315 C 
BRANCH  14  15
HETATM   15  N   UNL     1      38.977 -13.992  -2.141  1.00  0.00    -0.064 N 
HETATM   16  H   UNL     1      38.675 -14.650  -1.404  1.00  0.00     0.280 HD
HETATM   17  C   UNL     1      37.872 -13.981  -3.173  1.00  0.00     0.235 C 
HETATM   18  C   UNL     1      37.664 -15.392  -3.702  1.00  0.00     0.028 C 
HETATM   19  C   UNL     1      38.955 -15.972  -4.267  1.00  0.00     0.003 C 
HETATM   20  C   UNL     1      40.085 -15.906  -3.246  1.00  0.00     0.028 C 
HETATM   21  C   UNL     1      40.279 -14.496  -2.704  1.00  0.00     0.235 C 
ENDBRANCH  14  15
ENDBRANCH  11  14
ENDBRANCH   5   8
BRANCH   1  22
HETATM   22  C   UNL     1      43.788 -16.994   2.363  1.00  0.00     0.273 C 
BRANCH  22  23
HETATM   23  C   UNL     1      44.038 -18.320   3.031  1.00  0.00    -0.032 A 
HETATM   24  C   UNL     1      44.265 -18.396   4.412  1.00  0.00     0.012 A 
HETATM   25  C   UNL     1      44.536 -19.628   5.009  1.00  0.00     0.043 A 
HETATM   26  C   UNL     1      44.581 -20.782   4.233  1.00  0.00     0.122 A 
HETATM   27  C   UNL     1      44.342 -20.739   2.859  1.00  0.00    -0.023 A 
HETATM   28  F   UNL     1      44.865 -21.948   4.826  1.00  0.00    -0.206 F 
HETATM   29  C   UNL     1      44.425 -21.989   2.036  1.00  0.00     0.051 C 
HETATM   30  C   UNL     1      44.078 -19.500   2.262  1.00  0.00     0.018 A 
ENDBRANCH  22  23
ENDBRANCH   1  22
TORSDOF 5
ENDMDL
MODEL 3
REMARK VINA RESULT:      -8.8      3.902      7.368
REMARK  5 active torsions:
REMARK  status: ('A' for Active; 'I' for Inactive)
REMARK    1  A    between atoms: C_7  and  C_8 
REMARK    2  A    between atoms: C_8  and  N_9 
REMARK    3  A    between atoms: C_13  and  C_14 
REMARK    4  A    between atoms: C_17  and  C_18 
REMARK    5  A    between atoms: C_18  and  N_19 
ROOT
HETATM    1  N   UNL     1      42.278 -16.892   3.652  1.00  0.00    -0.067 N 
HETATM    2  H   UNL     1      41.652 -17.627   3.301  1.00  0.00     0.280 HD
HETATM    3  C   UNL     1      42.133 -16.854   5.156  1.00  0.00     0.236 C 
HETATM    4  C   UNL     1      40.735 -16.386   5.553  1.00  0.00     0.040 C 
HETATM    5  C   UNL     1      40.347 -15.042   4.931  1.00  0.00     0.060 C 
HETATM    6  C   UNL     1      40.532 -15.111   3.410  1.00  0.00     0.040 C 
HETATM    7  C   UNL     1      41.913 -15.590   2.980  1.00  0.00     0.236 C 
ENDROOT
BRANCH   5   8
HETATM    8  C   UNL     1      41.139 -13.917   5.541  1.00  0.00     0.134 A 
HETATM    9  N   UNL     1      40.637 -12.856   6.262  1.00  0.00    -0.323 N 
HETATM   10  C   UNL     1      39.253 -12.606   6.583  1.00  0.00     0.159 C 
HETATM   11  C   UNL     1      41.728 -12.095   6.615  1.00  0.00     0.155 A 
HETATM   12  N   UNL     1      42.819 -12.681   6.163  1.00  0.00    -0.133 NA
HETATM   13  N   UNL     1      42.450 -13.804   5.490  1.00  0.00    -0.134 NA
BRANCH  11  14
HETATM   14  C   UNL     1      41.721 -10.817   7.386  1.00  0.00     0.315 C 
BRANCH  14  15
HETATM   15  N   UNL     1      41.775 -11.079   8.882  1.00  0.00    -0.064 N 
HETATM   16  H   UNL     1      41.698 -12.106   8.963  1.00  0.00     0.280 HD
HETATM   17  C   UNL     1      43.111 -10.709   9.488  1.00  0.00     0.235 C 
HETATM   18  C   UNL     1      43.158 -11.186  10.931  1.00  0.00     0.028 C 
HETATM   19  C   UNL     1      41.997 -10.623  11.744  1.00  0.00     0.003 C 
HETATM   20  C   UNL     1      40.659 -10.932  11.083  1.00  0.00     0.028 C 
HETATM   21  C   UNL     1      40.620 -10.471   9.632  1.00  0.00     0.235 C 
ENDBRANCH  14  15
ENDBRANCH  11  14
ENDBRANCH   5   8
BRANCH   1  22
HETATM   22  C   UNL     1      43.683 -17.303   3.223  1.00  0.00     0.273 C 
BRANCH  22  23
HETATM   23  C   UNL     1      43.988 -18.762   3.431  1.00  0.00    -0.032 A 
HETATM   24  C   UNL     1      44.448 -19.229   4.671  1.00  0.00     0.012 A 
HETATM   25  C   UNL     1      44.766 -20.578   4.836  1.00  0.00     0.043 A 
HETATM   26  C   UNL     1      44.628 -21.460   3.769  1.00  0.00     0.122 A 
HETATM   27  C   UNL     1      44.155 -21.028   2.530  1.00  0.00    -0.023 A 
HETATM   28  F   UNL     1      44.960 -22.745   3.946  1.00  0.00    -0.206 F 
HETATM   29  C   UNL     1      44.041 -21.989   1.385  1.00  0.00     0.051 C 
HETATM   30  C   UNL     1      43.844 -19.672   2.365  1.00  0.00     0.018 A 
ENDBRANCH  22  23
ENDBRANCH   1  22
TORSDOF 5
ENDMDL
MODEL 4
REMARK VINA RESULT:      -8.6      2.698      3.718
REMARK  5 active torsions:
REMARK  status: ('A' for Active; 'I' for Inactive)
REMARK    1  A    between atoms: C_7  and  C_8 
REMARK    2  A    between atoms: C_8  and  N_9 
REMARK    3  A    between atoms: C_13  and  C_14 
REMARK    4  A    between atoms: C_17  and  C_18 
REMARK    5  A    between atoms: C_18  and  N_19 
ROOT
HETATM    1  N   UNL     1      42.163 -16.658   3.107  1.00  0.00    -0.067 N 
HETATM    2  H   UNL     1      41.861 -17.111   3.979  1.00  0.00     0.280 HD
HETATM    3  C   UNL     1      41.975 -15.168   3.283  1.00  0.00     0.236 C 
HETATM    4  C   UNL     1      40.494 -14.819   3.400  1.00  0.00     0.040 C 
HETATM    5  C   UNL     1      39.654 -15.343   2.233  1.00  0.00     0.060 C 
HETATM    6  C   UNL     1      39.890 -16.850   2.069  1.00  0.00     0.040 C 
HETATM    7  C   UNL     1      41.362 -17.233   1.965  1.00  0.00     0.236 C 
ENDROOT
BRANCH   5   8
HETATM    8  C   UNL     1      39.960 -14.589   0.967  1.00  0.00     0.134 A 
HETATM    9  N   UNL     1      39.578 -13.299   0.666  1.00  0.00    -0.323 N 
HETATM   10  C   UNL     1      38.810 -12.409   1.502  1.00  0.00     0.159 C 
HETATM   11  C   UNL     1      40.088 -13.041  -0.585  1.00  0.00     0.155 A 
HETATM   12  N   UNL     1      40.761 -14.096  -0.996  1.00  0.00    -0.133 NA
HETATM   13  N   UNL     1      40.673 -15.057  -0.036  1.00  0.00    -0.134 NA
BRANCH  11  14
HETATM   14  C   UNL     1      39.931 -11.786  -1.378  1.00  0.00     0.315 C 
BRANCH  14  15
HETATM   15  N   UNL     1      41.282 -11.166  -1.695  1.00  0.00    -0.064 N 
HETATM   16  H   UNL     1      41.849 -11.958  -2.040  1.00  0.00     0.280 HD
HETATM   17  C   UNL     1      41.211 -10.173  -2.833  1.00  0.00     0.235 C 
HETATM   18  C   UNL     1      42.620  -9.753  -3.223  1.00  0.00     0.028 C 
HETATM   19  C   UNL     1      43.385  -9.189  -2.031  1.00  0.00     0.003 C 
HETATM   20  C   UNL     1      43.382 -10.165  -0.861  1.00  0.00     0.028 C 
HETATM   21  C   UNL     1      41.972 -10.598  -0.484  1.00  0.00     0.235 C 
ENDBRANCH  14  15
ENDBRANCH  11  14
ENDBRANCH   5   8
BRANCH   1  22
HETATM   22  C   UNL     1      43.631 -17.033   2.932  1.00  0.00     0.273 C 
BRANCH  22  23
HETATM   23  C   UNL     1      43.964 -18.436   3.362  1.00  0.00    -0.032 A 
HETATM   24  C   UNL     1      44.300 -18.719   4.693  1.00  0.00     0.012 A 
HETATM   25  C   UNL     1      44.647 -20.018   5.066  1.00  0.00     0.043 A 
HETATM   26  C   UNL     1      44.659 -21.035   4.117  1.00  0.00     0.122 A 
HETATM   27  C   UNL     1      44.311 -20.787   2.788  1.00  0.00    -0.023 A 
HETATM   28  F   UNL     1      45.016 -22.268   4.495  1.00  0.00    -0.206 F 
HETATM   29  C   UNL     1      44.359 -21.890   1.774  1.00  0.00     0.051 C 
HETATM   30  C   UNL     1      43.971 -19.480   2.415  1.00  0.00     0.018 A 
ENDBRANCH  22  23
ENDBRANCH   1  22
TORSDOF 5
ENDMDL
MODEL 5
REMARK VINA RESULT:      -8.6      1.570      2.622
REMARK  5 active torsions:
REMARK  status: ('A' for Active; 'I' for Inactive)
REMARK    1  A    between atoms: C_7  and  C_8 
REMARK    2  A    between atoms: C_8  and  N_9 
REMARK    3  A    between atoms: C_13  and  C_14 
REMARK    4  A    between atoms: C_17  and  C_18 
REMARK    5  A    between atoms: C_18  and  N_19 
ROOT
HETATM    1  N   UNL     1      43.216 -16.692   6.255  1.00  0.00    -0.067 N 
HETATM    2  H   UNL     1      43.267 -16.514   7.266  1.00  0.00     0.280 HD
HETATM    3  C   UNL     1      43.293 -15.354   5.556  1.00  0.00     0.236 C 
HETATM    4  C   UNL     1      42.056 -14.513   5.858  1.00  0.00     0.040 C 
HETATM    5  C   UNL     1      40.743 -15.228   5.529  1.00  0.00     0.060 C 
HETATM    6  C   UNL     1      40.712 -16.590   6.234  1.00  0.00     0.040 C 
HETATM    7  C   UNL     1      41.943 -17.449   5.965  1.00  0.00     0.236 C 
ENDROOT
BRANCH   5   8
HETATM    8  C   UNL     1      40.561 -15.364   4.041  1.00  0.00     0.134 A 
HETATM    9  N   UNL     1      40.073 -14.404   3.182  1.00  0.00    -0.323 N 
HETATM   10  C   UNL     1      39.638 -13.073   3.530  1.00  0.00     0.159 C 
HETATM   11  C   UNL     1      40.095 -14.976   1.931  1.00  0.00     0.155 A 
HETATM   12  N   UNL     1      40.597 -16.191   2.028  1.00  0.00    -0.133 NA
HETATM   13  N   UNL     1      40.876 -16.432   3.338  1.00  0.00    -0.134 NA
BRANCH  11  14
HETATM   14  C   UNL     1      39.642 -14.356   0.651  1.00  0.00     0.315 C 
BRANCH  14  15
HETATM   15  N   UNL     1      40.813 -13.768  -0.119  1.00  0.00    -0.064 N 
HETATM   16  H   UNL     1      41.629 -14.314   0.205  1.00  0.00     0.280 HD
HETATM   17  C   UNL     1      40.710 -14.012  -1.608  1.00  0.00     0.235 C 
HETATM   18  C   UNL     1      42.004 -13.580  -2.279  1.00  0.00     0.028 C 
HETATM   19  C   UNL     1      42.335 -12.124  -1.970  1.00  0.00     0.003 C 
HETATM   20  C   UNL     1      42.358 -11.870  -0.467  1.00  0.00     0.028 C 
HETATM   21  C   UNL     1      41.069 -12.321   0.206  1.00  0.00     0.235 C 
ENDBRANCH  14  15
ENDBRANCH  11  14
ENDBRANCH   5   8
BRANCH   1  22
HETATM   22  C   UNL     1      44.414 -17.578   5.929  1.00  0.00     0.273 C 
BRANCH  22  23
HETATM   23  C   UNL     1      44.237 -18.424   4.697  1.00  0.00    -0.032 A 
HETATM   24  C   UNL     1      44.351 -19.820   4.762  1.00  0.00     0.012 A 
HETATM   25  C   UNL     1      44.226 -20.586   3.602  1.00  0.00     0.043 A 
HETATM   26  C   UNL     1      43.988 -19.965   2.380  1.00  0.00     0.122 A 
HETATM   27  C   UNL     1      43.852 -18.579   2.288  1.00  0.00    -0.023 A 
HETATM   28  F   UNL     1      43.894 -20.720   1.279  1.00  0.00    -0.206 F 
HETATM   29  C   UNL     1      43.626 -17.927   0.958  1.00  0.00     0.051 C 
HETATM   30  C   UNL     1      43.986 -17.812   3.453  1.00  0.00     0.018 A 
ENDBRANCH  22  23
ENDBRANCH   1  22
TORSDOF 5
ENDMDL
MODEL 6
REMARK VINA RESULT:      -8.5      2.475      3.424
REMARK  5 active torsions:
REMARK  status: ('A' for Active; 'I' for Inactive)
REMARK    1  A    between atoms: C_7  and  C_8 
REMARK    2  A    between atoms: C_8  and  N_9 
REMARK    3  A    between atoms: C_13  and  C_14 
REMARK    4  A    between atoms: C_17  and  C_18 
REMARK    5  A    between atoms: C_18  and  N_19 
ROOT
HETATM    1  N   UNL     1      42.167 -16.714   3.117  1.00  0.00    -0.067 N 
HETATM    2  H   UNL     1      41.748 -17.488   3.647  1.00  0.00     0.280 HD
HETATM    3  C   UNL     1      42.038 -15.466   3.960  1.00  0.00     0.236 C 
HETATM    4  C   UNL     1      40.573 -15.070   4.120  1.00  0.00     0.040 C 
HETATM    5  C   UNL     1      39.841 -14.907   2.785  1.00  0.00     0.060 C 
HETATM    6  C   UNL     1      40.016 -16.181   1.948  1.00  0.00     0.040 C 
HETATM    7  C   UNL     1      41.468 -16.613   1.783  1.00  0.00     0.236 C 
ENDROOT
BRANCH   5   8
HETATM    8  C   UNL     1      40.322 -13.685   2.051  1.00  0.00     0.134 A 
HETATM    9  N   UNL     1      39.667 -13.026   1.033  1.00  0.00    -0.323 N 
HETATM   10  C   UNL     1      38.387 -13.371   0.465  1.00  0.00     0.159 C 
HETATM   11  C   UNL     1      40.483 -11.975   0.683  1.00  0.00     0.155 A 
HETATM   12  N   UNL     1      41.545 -11.982   1.463  1.00  0.00    -0.133 NA
HETATM   13  N   UNL     1      41.447 -13.048   2.304  1.00  0.00    -0.134 NA
BRANCH  11  14
HETATM   14  C   UNL     1      40.240 -10.969  -0.392  1.00  0.00     0.315 C 
BRANCH  14  15
HETATM   15  N   UNL     1      41.248 -11.118  -1.520  1.00  0.00    -0.064 N 
HETATM   16  H   UNL     1      42.166 -11.069  -1.048  1.00  0.00     0.280 HD
HETATM   17  C   UNL     1      41.186 -12.479  -2.177  1.00  0.00     0.235 C 
HETATM   18  C   UNL     1      42.348 -12.622  -3.148  1.00  0.00     0.028 C 
HETATM   19  C   UNL     1      42.357 -11.500  -4.179  1.00  0.00     0.003 C 
HETATM   20  C   UNL     1      42.338 -10.131  -3.507  1.00  0.00     0.028 C 
HETATM   21  C   UNL     1      41.185  -9.997  -2.522  1.00  0.00     0.235 C 
ENDBRANCH  14  15
ENDBRANCH  11  14
ENDBRANCH   5   8
BRANCH   1  22
HETATM   22  C   UNL     1      43.625 -17.105   2.893  1.00  0.00     0.273 C 
BRANCH  22  23
HETATM   23  C   UNL     1      43.944 -18.528   3.265  1.00  0.00    -0.032 A 
HETATM   24  C   UNL     1      44.338 -18.858   4.570  1.00  0.00     0.012 A 
HETATM   25  C   UNL     1      44.672 -20.176   4.887  1.00  0.00     0.043 A 
HETATM   26  C   UNL     1      44.613 -21.163   3.909  1.00  0.00     0.122 A 
HETATM   27  C   UNL     1      44.207 -20.867   2.607  1.00  0.00    -0.023 A 
HETATM   28  F   UNL     1      44.959 -22.415   4.233  1.00  0.00    -0.206 F 
HETATM   29  C   UNL     1      44.180 -21.940   1.560  1.00  0.00     0.051 C 
HETATM   30  C   UNL     1      43.881 -19.542   2.289  1.00  0.00     0.018 A 
ENDBRANCH  22  23
ENDBRANCH   1  22
TORSDOF 5
ENDMDL
MODEL 7
REMARK VINA RESULT:      -8.5      2.261      3.321
REMARK  5 active torsions:
REMARK  status: ('A' for Active; 'I' for Inactive)
REMARK    1  A    between atoms: C_7  and  C_8 
REMARK    2  A    between atoms: C_8  and  N_9 
REMARK    3  A    between atoms: C_13  and  C_14 
REMARK    4  A    between atoms: C_17  and  C_18 
REMARK    5  A    between atoms: C_18  and  N_19 
ROOT
HETATM    1  N   UNL     1      41.782 -15.726   6.399  1.00  0.00    -0.067 N 
HETATM    2  H   UNL     1      41.775 -15.628   7.422  1.00  0.00     0.280 HD
HETATM    3  C   UNL     1      43.121 -15.226   5.905  1.00  0.00     0.236 C 
HETATM    4  C   UNL     1      43.260 -13.726   6.145  1.00  0.00     0.040 C 
HETATM    5  C   UNL     1      42.115 -12.907   5.545  1.00  0.00     0.060 C 
HETATM    6  C   UNL     1      40.775 -13.459   6.047  1.00  0.00     0.040 C 
HETATM    7  C   UNL     1      40.610 -14.960   5.836  1.00  0.00     0.236 C 
ENDROOT
BRANCH   5   8
HETATM    8  C   UNL     1      42.188 -12.899   4.041  1.00  0.00     0.134 A 
HETATM    9  N   UNL     1      41.410 -12.151   3.185  1.00  0.00    -0.323 N 
HETATM   10  C   UNL     1      40.369 -11.222   3.552  1.00  0.00     0.159 C 
HETATM   11  C   UNL     1      41.839 -12.469   1.917  1.00  0.00     0.155 A 
HETATM   12  N   UNL     1      42.834 -13.329   2.007  1.00  0.00    -0.133 NA
HETATM   13  N   UNL     1      43.042 -13.600   3.325  1.00  0.00    -0.134 NA
BRANCH  11  14
HETATM   14  C   UNL     1      41.298 -11.947   0.628  1.00  0.00     0.315 C 
BRANCH  14  15
HETATM   15  N   UNL     1      41.628 -12.882  -0.524  1.00  0.00    -0.064 N 
HETATM   16  H   UNL     1      42.442 -13.422  -0.187  1.00  0.00     0.280 HD
HETATM   17  C   UNL     1      40.533 -13.891  -0.785  1.00  0.00     0.235 C 
HETATM   18  C   UNL     1      41.019 -14.910  -1.804  1.00  0.00     0.028 C 
HETATM   19  C   UNL     1      41.479 -14.235  -3.091  1.00  0.00     0.003 C 
HETATM   20  C   UNL     1      42.526 -13.163  -2.810  1.00  0.00     0.028 C 
HETATM   21  C   UNL     1      42.044 -12.155  -1.775  1.00  0.00     0.235 C 
ENDBRANCH  14  15
ENDBRANCH  11  14
ENDBRANCH   5   8
BRANCH   1  22
HETATM   22  C   UNL     1      41.590 -17.214   6.123  1.00  0.00     0.273 C 
BRANCH  22  23
HETATM   23  C   UNL     1      42.131 -17.670   4.795  1.00  0.00    -0.032 A 
HETATM   24  C   UNL     1      43.307 -18.430   4.721  1.00  0.00     0.012 A 
HETATM   25  C   UNL     1      43.818 -18.809   3.479  1.00  0.00     0.043 A 
HETATM   26  C   UNL     1      43.160 -18.433   2.312  1.00  0.00     0.122 A 
HETATM   27  C   UNL     1      41.979 -17.692   2.355  1.00  0.00    -0.023 A 
HETATM   28  F   UNL     1      43.682 -18.789   1.132  1.00  0.00    -0.206 F 
HETATM   29  C   UNL     1      41.302 -17.270   1.086  1.00  0.00     0.051 C 
HETATM   30  C   UNL     1      41.472 -17.306   3.604  1.00  0.00     0.018 A 
ENDBRANCH  22  23
ENDBRANCH   1  22
TORSDOF 5
ENDMDL
MODEL 8
REMARK VINA RESULT:      -8.4      4.926      8.336
REMARK  5 active torsions:
REMARK  status: ('A' for Active; 'I' for Inactive)
REMARK    1  A    between atoms: C_7  and  C_8 
REMARK    2  A    between atoms: C_8  and  N_9 
REMARK    3  A    between atoms: C_13  and  C_14 
REMARK    4  A    between atoms: C_17  and  C_18 
REMARK    5  A    between atoms: C_18  and  N_19 
ROOT
HETATM    1  N   UNL     1      41.838 -14.860   4.934  1.00  0.00    -0.067 N 
HETATM    2  H   UNL     1      42.053 -15.002   3.939  1.00  0.00     0.280 HD
HETATM    3  C   UNL     1      40.335 -14.769   5.065  1.00  0.00     0.236 C 
HETATM    4  C   UNL     1      39.807 -13.514   4.378  1.00  0.00     0.040 C 
HETATM    5  C   UNL     1      40.477 -12.227   4.868  1.00  0.00     0.060 C 
HETATM    6  C   UNL     1      42.000 -12.367   4.744  1.00  0.00     0.040 C 
HETATM    7  C   UNL     1      42.558 -13.621   5.407  1.00  0.00     0.236 C 
ENDROOT
BRANCH   5   8
HETATM    8  C   UNL     1      40.058 -11.903   6.277  1.00  0.00     0.134 A 
HETATM    9  N   UNL     1      40.535 -10.875   7.060  1.00  0.00    -0.323 N 
HETATM   10  C   UNL     1      41.531  -9.898   6.691  1.00  0.00     0.159 C 
HETATM   11  C   UNL     1      39.861 -10.972   8.255  1.00  0.00     0.155 A 
HETATM   12  N   UNL     1      39.009 -11.974   8.182  1.00  0.00    -0.133 NA
HETATM   13  N   UNL     1      39.140 -12.556   6.959  1.00  0.00    -0.134 NA
BRANCH  11  14
HETATM   14  C   UNL     1      40.032 -10.103   9.456  1.00  0.00     0.315 C 
BRANCH  14  15
HETATM   15  N   UNL     1      40.900 -10.781  10.504  1.00  0.00    -0.064 N 
HETATM   16  H   UNL     1      40.756 -11.791  10.337  1.00  0.00     0.280 HD
HETATM   17  C   UNL     1      42.375 -10.526  10.289  1.00  0.00     0.235 C 
HETATM   18  C   UNL     1      43.180 -11.394  11.243  1.00  0.00     0.028 C 
HETATM   19  C   UNL     1      42.774 -11.156  12.693  1.00  0.00     0.003 C 
HETATM   20  C   UNL     1      41.272 -11.338  12.883  1.00  0.00     0.028 C 
HETATM   21  C   UNL     1      40.468 -10.482  11.915  1.00  0.00     0.235 C 
ENDBRANCH  14  15
ENDBRANCH  11  14
ENDBRANCH   5   8
BRANCH   1  22
HETATM   22  C   UNL     1      42.404 -16.078   5.658  1.00  0.00     0.273 C 
BRANCH  22  23
HETATM   23  C   UNL     1      43.016 -17.108   4.747  1.00  0.00    -0.032 A 
HETATM   24  C   UNL     1      43.010 -16.929   3.356  1.00  0.00     0.012 A 
HETATM   25  C   UNL     1      43.543 -17.913   2.522  1.00  0.00     0.043 A 
HETATM   26  C   UNL     1      44.082 -19.072   3.071  1.00  0.00     0.122 A 
HETATM   27  C   UNL     1      44.117 -19.269   4.452  1.00  0.00    -0.023 A 
HETATM   28  F   UNL     1      44.567 -20.011   2.249  1.00  0.00    -0.206 F 
HETATM   29  C   UNL     1      44.674 -20.539   5.022  1.00  0.00     0.051 C 
HETATM   30  C   UNL     1      43.574 -18.283   5.286  1.00  0.00     0.018 A 
ENDBRANCH  22  23
ENDBRANCH   1  22
TORSDOF 5
ENDMDL
MODEL 9
REMARK VINA RESULT:      -8.3      1.609      2.397
REMARK  5 active torsions:
REMARK  status: ('A' for Active; 'I' for Inactive)
REMARK    1  A    between atoms: C_7  and  C_8 
REMARK    2  A    between atoms: C_8  and  N_9 
REMARK    3  A    between atoms: C_13  and  C_14 
REMARK    4  A    between atoms: C_17  and  C_18 
REMARK    5  A    between atoms: C_18  and  N_19 
ROOT
HETATM    1  N   UNL     1      42.795 -14.948   6.330  1.00  0.00    -0.067 N 
HETATM    2  H   UNL     1      42.537 -14.482   7.209  1.00  0.00     0.280 HD
HETATM    3  C   UNL     1      42.940 -13.876   5.275  1.00  0.00     0.236 C 
HETATM    4  C   UNL     1      41.593 -13.222   4.979  1.00  0.00     0.040 C 
HETATM    5  C   UNL     1      40.504 -14.226   4.593  1.00  0.00     0.060 C 
HETATM    6  C   UNL     1      40.404 -15.310   5.673  1.00  0.00     0.040 C 
HETATM    7  C   UNL     1      41.737 -15.973   6.003  1.00  0.00     0.236 C 
ENDROOT
BRANCH   5   8
HETATM    8  C   UNL     1      40.769 -14.813   3.233  1.00  0.00     0.134 A 
HETATM    9  N   UNL     1      41.161 -14.127   2.104  1.00  0.00    -0.323 N 
HETATM   10  C   UNL     1      41.398 -12.708   1.994  1.00  0.00     0.159 C 
HETATM   11  C   UNL     1      41.284 -15.075   1.115  1.00  0.00     0.155 A 
HETATM   12  N   UNL     1      41.015 -16.260   1.626  1.00  0.00    -0.133 NA
HETATM   13  N   UNL     1      40.688 -16.093   2.936  1.00  0.00    -0.134 NA
BRANCH  11  14
HETATM   14  C   UNL     1      41.660 -14.843  -0.311  1.00  0.00     0.315 C 
BRANCH  14  15
HETATM   15  N   UNL     1      40.480 -15.088  -1.236  1.00  0.00    -0.064 N 
HETATM   16  H   UNL     1      39.974 -15.876  -0.799  1.00  0.00     0.280 HD
HETATM   17  C   UNL     1      39.510 -13.928  -1.259  1.00  0.00     0.235 C 
HETATM   18  C   UNL     1      38.267 -14.327  -2.039  1.00  0.00     0.028 C 
HETATM   19  C   UNL     1      38.617 -14.795  -3.447  1.00  0.00     0.003 C 
HETATM   20  C   UNL     1      39.656 -15.910  -3.417  1.00  0.00     0.028 C 
HETATM   21  C   UNL     1      40.891 -15.516  -2.620  1.00  0.00     0.235 C 
ENDBRANCH  14  15
ENDBRANCH  11  14
ENDBRANCH   5   8
BRANCH   1  22
HETATM   22  C   UNL     1      44.115 -15.659   6.610  1.00  0.00     0.273 C 
BRANCH  22  23
HETATM   23  C   UNL     1      44.029 -17.161   6.558  1.00  0.00    -0.032 A 
HETATM   24  C   UNL     1      43.809 -17.908   7.724  1.00  0.00     0.012 A 
HETATM   25  C   UNL     1      43.773 -19.301   7.666  1.00  0.00     0.043 A 
HETATM   26  C   UNL     1      43.957 -19.951   6.450  1.00  0.00     0.122 A 
HETATM   27  C   UNL     1      44.160 -19.234   5.270  1.00  0.00    -0.023 A 
HETATM   28  F   UNL     1      43.940 -21.289   6.423  1.00  0.00    -0.206 F 
HETATM   29  C   UNL     1      44.386 -19.954   3.975  1.00  0.00     0.051 C 
HETATM   30  C   UNL     1      44.203 -17.835   5.333  1.00  0.00     0.018 A 
ENDBRANCH  22  23
ENDBRANCH   1  22
TORSDOF 5
ENDMDL
MODEL 10
REMARK VINA RESULT:      -8.3      1.962      3.020
REMARK  5 active torsions:
REMARK  status: ('A' for Active; 'I' for Inactive)
REMARK    1  A    between atoms: C_7  and  C_8 
REMARK    2  A    between atoms: C_8  and  N_9 
REMARK    3  A    between atoms: C_13  and  C_14 
REMARK    4  A    between atoms: C_17  and  C_18 
REMARK    5  A    between atoms: C_18  and  N_19 
ROOT
HETATM    1  N   UNL     1      42.473 -17.229   2.266  1.00  0.00    -0.067 N 
HETATM    2  H   UNL     1      42.364 -17.432   3.268  1.00  0.00     0.280 HD
HETATM    3  C   UNL     1      42.936 -15.795   2.142  1.00  0.00     0.236 C 
HETATM    4  C   UNL     1      41.849 -14.833   2.611  1.00  0.00     0.040 C 
HETATM    5  C   UNL     1      40.510 -15.038   1.898  1.00  0.00     0.060 C 
HETATM    6  C   UNL     1      40.085 -16.507   2.023  1.00  0.00     0.040 C 
HETATM    7  C   UNL     1      41.157 -17.496   1.577  1.00  0.00     0.236 C 
ENDROOT
BRANCH   5   8
HETATM    8  C   UNL     1      40.591 -14.600   0.461  1.00  0.00     0.134 A 
HETATM    9  N   UNL     1      39.835 -13.619  -0.143  1.00  0.00    -0.323 N 
HETATM   10  C   UNL     1      38.813 -12.810   0.478  1.00  0.00     0.159 C 
HETATM   11  C   UNL     1      40.262 -13.568  -1.449  1.00  0.00     0.155 A 
HETATM   12  N   UNL     1      41.236 -14.441  -1.612  1.00  0.00    -0.133 NA
HETATM   13  N   UNL     1      41.431 -15.085  -0.429  1.00  0.00    -0.134 NA
BRANCH  11  14
HETATM   14  C   UNL     1      39.740 -12.684  -2.532  1.00  0.00     0.315 C 
BRANCH  14  15
HETATM   15  N   UNL     1      38.360 -13.132  -2.987  1.00  0.00    -0.064 N 
HETATM   16  H   UNL     1      37.807 -13.174  -2.116  1.00  0.00     0.280 HD
HETATM   17  C   UNL     1      37.679 -12.107  -3.867  1.00  0.00     0.235 C 
HETATM   18  C   UNL     1      36.239 -12.531  -4.111  1.00  0.00     0.028 C 
HETATM   19  C   UNL     1      36.163 -13.930  -4.714  1.00  0.00     0.003 C 
HETATM   20  C   UNL     1      36.920 -14.941  -3.860  1.00  0.00     0.028 C 
HETATM   21  C   UNL     1      38.356 -14.506  -3.602  1.00  0.00     0.235 C 
ENDBRANCH  14  15
ENDBRANCH  11  14
ENDBRANCH   5   8
BRANCH   1  22
HETATM   22  C   UNL     1      43.518 -18.215   1.754  1.00  0.00     0.273 C 
BRANCH  22  23
HETATM   23  C   UNL     1      43.962 -19.227   2.776  1.00  0.00    -0.032 A 
HETATM   24  C   UNL     1      44.370 -20.511   2.384  1.00  0.00     0.012 A 
HETATM   25  C   UNL     1      44.738 -21.451   3.347  1.00  0.00     0.043 A 
HETATM   26  C   UNL     1      44.702 -21.116   4.697  1.00  0.00     0.122 A 
HETATM   27  C   UNL     1      44.319 -19.841   5.115  1.00  0.00    -0.023 A 
HETATM   28  F   UNL     1      45.040 -22.042   5.602  1.00  0.00    -0.206 F 
HETATM   29  C   UNL     1      44.257 -19.508   6.575  1.00  0.00     0.051 C 
HETATM   30  C   UNL     1      43.941 -18.901   4.146  1.00  0.00     0.018 A 
ENDBRANCH  22  23
ENDBRANCH   1  22
TORSDOF 5
ENDMDL
