MODEL 1
REMARK VINA RESULT:      -8.0      0.000      0.000
REMARK  8 active torsions:
REMARK  status: ('A' for Active; 'I' for Inactive)
REMARK    1  A    between atoms: C_2  and  O_3 
REMARK    2  A    between atoms: C_2  and  C_4 
REMARK    3  A    between atoms: C_4  and  N_5 
REMARK       I    between atoms: N_5  and  C_6 
REMARK    4  A    between atoms: C_6  and  C_7 
REMARK    5  A    between atoms: C_10  and  O_11 
REMARK    6  A    between atoms: O_11  and  C_12 
REMARK    7  A    between atoms: C_15  and  O_16 
REMARK    8  A    between atoms: O_16  and  C_17 
ROOT
HETATM    1  C   UNL     1      43.703 -10.941  10.589  1.00  0.00     0.049 A 
HETATM    2  C   UNL     1      43.150 -10.944   9.314  1.00  0.00     0.136 A 
HETATM    3  N   UNL     1      43.640 -11.670   8.279  1.00  0.00    -0.236 NA
HETATM    4  C   UNL     1      44.738 -12.417   8.524  1.00  0.00     0.169 A 
HETATM    5  C   UNL     1      45.393 -12.438   9.747  1.00  0.00     0.059 A 
HETATM    6  C   UNL     1      44.862 -11.692  10.801  1.00  0.00     0.023 A 
ENDROOT
BRANCH   4   7
HETATM    7  O   UNL     1      45.296 -13.176   7.505  1.00  0.00    -0.292 OA
BRANCH   7   8
HETATM    8  C   UNL     1      44.497 -14.139   6.930  1.00  0.00     0.078 A 
HETATM    9  C   UNL     1      44.149 -13.960   5.590  1.00  0.00     0.040 A 
HETATM   10  C   UNL     1      43.375 -14.922   4.933  1.00  0.00     0.040 A 
HETATM   11  C   UNL     1      42.982 -16.077   5.614  1.00  0.00     0.076 A 
HETATM   12  C   UNL     1      43.334 -16.260   6.951  1.00  0.00     0.040 A 
HETATM   13  C   UNL     1      44.106 -15.299   7.607  1.00  0.00     0.040 A 
BRANCH  11  14
HETATM   14  O   UNL     1      42.171 -17.036   5.054  1.00  0.00    -0.311 OA
BRANCH  14  15
HETATM   15  C   UNL     1      42.697 -17.856   4.082  1.00  0.00     0.076 A 
HETATM   16  C   UNL     1      43.638 -18.857   4.338  1.00  0.00     0.037 A 
HETATM   17  C   UNL     1      44.078 -19.678   3.297  1.00  0.00     0.003 A 
HETATM   18  C   UNL     1      43.566 -19.512   2.010  1.00  0.00     0.000 A 
HETATM   19  C   UNL     1      42.610 -18.528   1.761  1.00  0.00     0.003 A 
HETATM   20  C   UNL     1      42.173 -17.704   2.798  1.00  0.00     0.037 A 
ENDBRANCH  14  15
ENDBRANCH  11  14
ENDBRANCH   7   8
ENDBRANCH   4   7
BRANCH   1  21
HETATM   21  C   UNL     1      43.039 -10.140  11.644  1.00  0.00     0.253 C 
HETATM   22  N   UNL     1      42.289 -10.830  12.572  1.00  0.00    -0.354 N 
HETATM   23  H   UNL     1      42.105 -11.818  12.460  1.00  0.00     0.162 HD
HETATM   24  O   UNL     1      43.132  -8.918  11.638  1.00  0.00    -0.268 OA
BRANCH  22  25
HETATM   25  C   UNL     1      41.541 -10.132  13.609  1.00  0.00     0.154 C 
BRANCH  25  26
HETATM   26  C   UNL     1      42.369  -9.931  14.887  1.00  0.00     0.132 C 
HETATM   27  C   UNL     1      41.486  -9.547  16.063  1.00  0.00     0.041 C 
BRANCH  26  28
HETATM   28  O   UNL     1      43.314  -8.876  14.680  1.00  0.00    -0.394 OA
HETATM   29  H   UNL     1      43.932  -9.204  14.003  1.00  0.00     0.210 HD
ENDBRANCH  26  28
ENDBRANCH  25  26
ENDBRANCH  22  25
ENDBRANCH   1  21
TORSDOF 8
ENDMDL
MODEL 2
REMARK VINA RESULT:      -7.9      7.069     10.438
REMARK  8 active torsions:
REMARK  status: ('A' for Active; 'I' for Inactive)
REMARK    1  A    between atoms: C_2  and  O_3 
REMARK    2  A    between atoms: C_2  and  C_4 
REMARK    3  A    between atoms: C_4  and  N_5 
REMARK       I    between atoms: N_5  and  C_6 
REMARK    4  A    between atoms: C_6  and  C_7 
REMARK    5  A    between atoms: C_10  and  O_11 
REMARK    6  A    between atoms: O_11  and  C_12 
REMARK    7  A    between atoms: C_15  and  O_16 
REMARK    8  A    between atoms: O_16  and  C_17 
ROOT
HETATM    1  C   UNL     1      39.073 -13.687   0.716  1.00  0.00     0.049 A 
HETATM    2  C   UNL     1      39.470 -14.998   0.954  1.00  0.00     0.136 A 
HETATM    3  N   UNL     1      39.876 -15.458   2.163  1.00  0.00    -0.236 NA
HETATM    4  C   UNL     1      39.899 -14.566   3.177  1.00  0.00     0.169 A 
HETATM    5  C   UNL     1      39.575 -13.226   3.027  1.00  0.00     0.059 A 
HETATM    6  C   UNL     1      39.147 -12.779   1.776  1.00  0.00     0.023 A 
ENDROOT
BRANCH   4   7
HETATM    7  O   UNL     1      40.314 -14.971   4.439  1.00  0.00    -0.292 OA
BRANCH   7   8
HETATM    8  C   UNL     1      41.359 -15.865   4.501  1.00  0.00     0.078 A 
HETATM    9  C   UNL     1      41.098 -17.108   5.079  1.00  0.00     0.040 A 
HETATM   10  C   UNL     1      42.103 -18.079   5.135  1.00  0.00     0.040 A 
HETATM   11  C   UNL     1      43.356 -17.810   4.579  1.00  0.00     0.076 A 
HETATM   12  C   UNL     1      43.616 -16.570   3.995  1.00  0.00     0.040 A 
HETATM   13  C   UNL     1      42.613 -15.601   3.940  1.00  0.00     0.040 A 
BRANCH  11  14
HETATM   14  O   UNL     1      44.411 -18.690   4.650  1.00  0.00    -0.311 OA
BRANCH  14  15
HETATM   15  C   UNL     1      44.340 -19.859   3.927  1.00  0.00     0.076 A 
HETATM   16  C   UNL     1      43.935 -19.922   2.591  1.00  0.00     0.037 A 
HETATM   17  C   UNL     1      43.945 -21.146   1.919  1.00  0.00     0.003 A 
HETATM   18  C   UNL     1      44.377 -22.300   2.573  1.00  0.00     0.000 A 
HETATM   19  C   UNL     1      44.803 -22.233   3.900  1.00  0.00     0.003 A 
HETATM   20  C   UNL     1      44.790 -21.012   4.573  1.00  0.00     0.037 A 
ENDBRANCH  14  15
ENDBRANCH  11  14
ENDBRANCH   7   8
ENDBRANCH   4   7
BRANCH   1  21
HETATM   21  C   UNL     1      38.604 -13.327  -0.642  1.00  0.00     0.253 C 
HETATM   22  N   UNL     1      38.427 -14.362  -1.535  1.00  0.00    -0.354 N 
HETATM   23  H   UNL     1      38.723 -15.301  -1.307  1.00  0.00     0.162 HD
HETATM   24  O   UNL     1      38.434 -12.151  -0.942  1.00  0.00    -0.268 OA
BRANCH  22  25
HETATM   25  C   UNL     1      38.034 -14.110  -2.916  1.00  0.00     0.154 C 
BRANCH  25  26
HETATM   26  C   UNL     1      37.879 -15.409  -3.722  1.00  0.00     0.132 C 
HETATM   27  C   UNL     1      39.221 -16.091  -3.934  1.00  0.00     0.041 C 
BRANCH  26  28
HETATM   28  O   UNL     1      37.325 -15.107  -5.007  1.00  0.00    -0.394 OA
HETATM   29  H   UNL     1      37.621 -15.822  -5.597  1.00  0.00     0.210 HD
ENDBRANCH  26  28
ENDBRANCH  25  26
ENDBRANCH  22  25
ENDBRANCH   1  21
TORSDOF 8
ENDMDL
MODEL 3
REMARK VINA RESULT:      -7.5      2.230      4.482
REMARK  8 active torsions:
REMARK  status: ('A' for Active; 'I' for Inactive)
REMARK    1  A    between atoms: C_2  and  O_3 
REMARK    2  A    between atoms: C_2  and  C_4 
REMARK    3  A    between atoms: C_4  and  N_5 
REMARK       I    between atoms: N_5  and  C_6 
REMARK    4  A    between atoms: C_6  and  C_7 
REMARK    5  A    between atoms: C_10  and  O_11 
REMARK    6  A    between atoms: O_11  and  C_12 
REMARK    7  A    between atoms: C_15  and  O_16 
REMARK    8  A    between atoms: O_16  and  C_17 
ROOT
HETATM    1  C   UNL     1      43.567 -13.119   7.001  1.00  0.00     0.049 A 
HETATM    2  C   UNL     1      44.204 -14.177   6.362  1.00  0.00     0.136 A 
HETATM    3  N   UNL     1      43.848 -14.651   5.143  1.00  0.00    -0.236 NA
HETATM    4  C   UNL     1      42.800 -14.049   4.539  1.00  0.00     0.169 A 
HETATM    5  C   UNL     1      42.067 -13.023   5.117  1.00  0.00     0.059 A 
HETATM    6  C   UNL     1      42.461 -12.545   6.368  1.00  0.00     0.023 A 
ENDROOT
BRANCH   4   7
HETATM    7  O   UNL     1      42.378 -14.492   3.292  1.00  0.00    -0.292 OA
BRANCH   7   8
HETATM    8  C   UNL     1      42.742 -15.767   2.922  1.00  0.00     0.078 A 
HETATM    9  C   UNL     1      41.985 -16.820   3.440  1.00  0.00     0.040 A 
HETATM   10  C   UNL     1      42.274 -18.137   3.071  1.00  0.00     0.040 A 
HETATM   11  C   UNL     1      43.299 -18.391   2.156  1.00  0.00     0.076 A 
HETATM   12  C   UNL     1      44.052 -17.339   1.634  1.00  0.00     0.040 A 
HETATM   13  C   UNL     1      43.763 -16.024   2.002  1.00  0.00     0.040 A 
BRANCH  11  14
HETATM   14  O   UNL     1      43.681 -19.661   1.793  1.00  0.00    -0.311 OA
BRANCH  14  15
HETATM   15  C   UNL     1      44.161 -20.506   2.768  1.00  0.00     0.076 A 
HETATM   16  C   UNL     1      44.526 -20.084   4.049  1.00  0.00     0.037 A 
HETATM   17  C   UNL     1      44.954 -21.021   4.993  1.00  0.00     0.003 A 
HETATM   18  C   UNL     1      44.996 -22.376   4.664  1.00  0.00     0.000 A 
HETATM   19  C   UNL     1      44.610 -22.799   3.393  1.00  0.00     0.003 A 
HETATM   20  C   UNL     1      44.187 -21.864   2.448  1.00  0.00     0.037 A 
ENDBRANCH  14  15
ENDBRANCH  11  14
ENDBRANCH   7   8
ENDBRANCH   4   7
BRANCH   1  21
HETATM   21  C   UNL     1      44.089 -12.668   8.311  1.00  0.00     0.253 C 
HETATM   22  N   UNL     1      43.401 -11.654   8.941  1.00  0.00    -0.354 N 
HETATM   23  H   UNL     1      42.653 -11.164   8.471  1.00  0.00     0.162 HD
HETATM   24  O   UNL     1      45.115 -13.161   8.766  1.00  0.00    -0.268 OA
BRANCH  22  25
HETATM   25  C   UNL     1      43.870 -11.091  10.201  1.00  0.00     0.154 C 
BRANCH  25  26
HETATM   26  C   UNL     1      43.241 -11.787  11.418  1.00  0.00     0.132 C 
HETATM   27  C   UNL     1      43.243 -10.877  12.636  1.00  0.00     0.041 C 
BRANCH  26  28
HETATM   28  O   UNL     1      43.998 -12.959  11.739  1.00  0.00    -0.394 OA
HETATM   29  H   UNL     1      44.778 -12.938  11.158  1.00  0.00     0.210 HD
ENDBRANCH  26  28
ENDBRANCH  25  26
ENDBRANCH  22  25
ENDBRANCH   1  21
TORSDOF 8
ENDMDL
MODEL 4
REMARK VINA RESULT:      -7.4      6.763     10.253
REMARK  8 active torsions:
REMARK  status: ('A' for Active; 'I' for Inactive)
REMARK    1  A    between atoms: C_2  and  O_3 
REMARK    2  A    between atoms: C_2  and  C_4 
REMARK    3  A    between atoms: C_4  and  N_5 
REMARK       I    between atoms: N_5  and  C_6 
REMARK    4  A    between atoms: C_6  and  C_7 
REMARK    5  A    between atoms: C_10  and  O_11 
REMARK    6  A    between atoms: O_11  and  C_12 
REMARK    7  A    between atoms: C_15  and  O_16 
REMARK    8  A    between atoms: O_16  and  C_17 
ROOT
HETATM    1  C   UNL     1      43.096 -17.681   4.237  1.00  0.00     0.049 A 
HETATM    2  C   UNL     1      43.210 -16.471   4.912  1.00  0.00     0.136 A 
HETATM    3  N   UNL     1      42.313 -15.460   4.812  1.00  0.00    -0.236 NA
HETATM    4  C   UNL     1      41.258 -15.661   3.992  1.00  0.00     0.169 A 
HETATM    5  C   UNL     1      41.083 -16.811   3.235  1.00  0.00     0.059 A 
HETATM    6  C   UNL     1      42.015 -17.842   3.365  1.00  0.00     0.023 A 
ENDROOT
BRANCH   4   7
HETATM    7  O   UNL     1      40.306 -14.663   3.838  1.00  0.00    -0.292 OA
BRANCH   7   8
HETATM    8  C   UNL     1      40.013 -14.267   2.552  1.00  0.00     0.078 A 
HETATM    9  C   UNL     1      41.038 -13.659   1.825  1.00  0.00     0.040 A 
HETATM   10  C   UNL     1      40.820 -13.272   0.499  1.00  0.00     0.040 A 
HETATM   11  C   UNL     1      39.586 -13.528  -0.104  1.00  0.00     0.076 A 
HETATM   12  C   UNL     1      38.564 -14.141   0.621  1.00  0.00     0.040 A 
HETATM   13  C   UNL     1      38.781 -14.528   1.944  1.00  0.00     0.040 A 
BRANCH  11  14
HETATM   14  O   UNL     1      39.278 -13.122  -1.381  1.00  0.00    -0.311 OA
BRANCH  14  15
HETATM   15  C   UNL     1      39.143 -14.081  -2.360  1.00  0.00     0.076 A 
HETATM   16  C   UNL     1      40.130 -15.023  -2.664  1.00  0.00     0.037 A 
HETATM   17  C   UNL     1      39.886 -15.994  -3.638  1.00  0.00     0.003 A 
HETATM   18  C   UNL     1      38.654 -16.036  -4.291  1.00  0.00     0.000 A 
HETATM   19  C   UNL     1      37.662 -15.110  -3.970  1.00  0.00     0.003 A 
HETATM   20  C   UNL     1      37.905 -14.137  -3.001  1.00  0.00     0.037 A 
ENDBRANCH  14  15
ENDBRANCH  11  14
ENDBRANCH   7   8
ENDBRANCH   4   7
BRANCH   1  21
HETATM   21  C   UNL     1      44.122 -18.721   4.474  1.00  0.00     0.253 C 
HETATM   22  N   UNL     1      44.198 -19.744   3.554  1.00  0.00    -0.354 N 
HETATM   23  H   UNL     1      43.504 -19.840   2.826  1.00  0.00     0.162 HD
HETATM   24  O   UNL     1      44.827 -18.672   5.476  1.00  0.00    -0.268 OA
BRANCH  22  25
HETATM   25  C   UNL     1      45.127 -20.853   3.731  1.00  0.00     0.154 C 
BRANCH  25  26
HETATM   26  C   UNL     1      44.883 -21.982   2.718  1.00  0.00     0.132 C 
HETATM   27  C   UNL     1      43.638 -21.718   1.886  1.00  0.00     0.041 C 
BRANCH  26  28
HETATM   28  O   UNL     1      44.696 -23.216   3.418  1.00  0.00    -0.394 OA
HETATM   29  H   UNL     1      43.836 -23.561   3.121  1.00  0.00     0.210 HD
ENDBRANCH  26  28
ENDBRANCH  25  26
ENDBRANCH  22  25
ENDBRANCH   1  21
TORSDOF 8
ENDMDL
MODEL 5
REMARK VINA RESULT:      -7.4      2.915      4.257
REMARK  8 active torsions:
REMARK  status: ('A' for Active; 'I' for Inactive)
REMARK    1  A    between atoms: C_2  and  O_3 
REMARK    2  A    between atoms: C_2  and  C_4 
REMARK    3  A    between atoms: C_4  and  N_5 
REMARK       I    between atoms: N_5  and  C_6 
REMARK    4  A    between atoms: C_6  and  C_7 
REMARK    5  A    between atoms: C_10  and  O_11 
REMARK    6  A    between atoms: O_11  and  C_12 
REMARK    7  A    between atoms: C_15  and  O_16 
REMARK    8  A    between atoms: O_16  and  C_17 
ROOT
HETATM    1  C   UNL     1      40.383 -11.691   6.990  1.00  0.00     0.049 A 
HETATM    2  C   UNL     1      39.324 -12.531   6.666  1.00  0.00     0.136 A 
HETATM    3  N   UNL     1      39.358 -13.439   5.660  1.00  0.00    -0.236 NA
HETATM    4  C   UNL     1      40.497 -13.503   4.936  1.00  0.00     0.169 A 
HETATM    5  C   UNL     1      41.587 -12.671   5.147  1.00  0.00     0.059 A 
HETATM    6  C   UNL     1      41.532 -11.752   6.197  1.00  0.00     0.023 A 
ENDROOT
BRANCH   4   7
HETATM    7  O   UNL     1      40.595 -14.405   3.886  1.00  0.00    -0.292 OA
BRANCH   7   8
HETATM    8  C   UNL     1      41.562 -15.381   3.984  1.00  0.00     0.078 A 
HETATM    9  C   UNL     1      41.339 -16.406   4.905  1.00  0.00     0.040 A 
HETATM   10  C   UNL     1      42.260 -17.451   5.025  1.00  0.00     0.040 A 
HETATM   11  C   UNL     1      43.384 -17.482   4.196  1.00  0.00     0.076 A 
HETATM   12  C   UNL     1      43.604 -16.461   3.271  1.00  0.00     0.040 A 
HETATM   13  C   UNL     1      42.685 -15.418   3.151  1.00  0.00     0.040 A 
BRANCH  11  14
HETATM   14  O   UNL     1      44.363 -18.443   4.297  1.00  0.00    -0.311 OA
BRANCH  14  15
HETATM   15  C   UNL     1      44.203 -19.619   3.601  1.00  0.00     0.076 A 
HETATM   16  C   UNL     1      43.559 -19.707   2.364  1.00  0.00     0.037 A 
HETATM   17  C   UNL     1      43.489 -20.936   1.703  1.00  0.00     0.003 A 
HETATM   18  C   UNL     1      44.077 -22.068   2.267  1.00  0.00     0.000 A 
HETATM   19  C   UNL     1      44.739 -21.975   3.492  1.00  0.00     0.003 A 
HETATM   20  C   UNL     1      44.806 -20.750   4.154  1.00  0.00     0.037 A 
ENDBRANCH  14  15
ENDBRANCH  11  14
ENDBRANCH   7   8
ENDBRANCH   4   7
BRANCH   1  21
HETATM   21  C   UNL     1      40.231 -10.778   8.147  1.00  0.00     0.253 C 
HETATM   22  N   UNL     1      41.060 -10.995   9.226  1.00  0.00    -0.354 N 
HETATM   23  H   UNL     1      41.652 -11.813   9.269  1.00  0.00     0.162 HD
HETATM   24  O   UNL     1      39.367  -9.908   8.133  1.00  0.00    -0.268 OA
BRANCH  22  25
HETATM   25  C   UNL     1      40.945 -10.197  10.440  1.00  0.00     0.154 C 
BRANCH  25  26
HETATM   26  C   UNL     1      42.008 -10.571  11.483  1.00  0.00     0.132 C 
HETATM   27  C   UNL     1      43.152  -9.570  11.491  1.00  0.00     0.041 C 
BRANCH  26  28
HETATM   28  O   UNL     1      42.549 -11.859  11.170  1.00  0.00    -0.394 OA
HETATM   29  H   UNL     1      41.802 -12.480  11.222  1.00  0.00     0.210 HD
ENDBRANCH  26  28
ENDBRANCH  25  26
ENDBRANCH  22  25
ENDBRANCH   1  21
TORSDOF 8
ENDMDL
MODEL 6
REMARK VINA RESULT:      -7.2      4.106      5.265
REMARK  8 active torsions:
REMARK  status: ('A' for Active; 'I' for Inactive)
REMARK    1  A    between atoms: C_2  and  O_3 
REMARK    2  A    between atoms: C_2  and  C_4 
REMARK    3  A    between atoms: C_4  and  N_5 
REMARK       I    between atoms: N_5  and  C_6 
REMARK    4  A    between atoms: C_6  and  C_7 
REMARK    5  A    between atoms: C_10  and  O_11 
REMARK    6  A    between atoms: O_11  and  C_12 
REMARK    7  A    between atoms: C_15  and  O_16 
REMARK    8  A    between atoms: O_16  and  C_17 
ROOT
HETATM    1  C   UNL     1      40.110 -12.061   5.420  1.00  0.00     0.049 A 
HETATM    2  C   UNL     1      40.631 -12.140   4.134  1.00  0.00     0.136 A 
HETATM    3  N   UNL     1      40.737 -13.292   3.429  1.00  0.00    -0.236 NA
HETATM    4  C   UNL     1      40.315 -14.421   4.040  1.00  0.00     0.169 A 
HETATM    5  C   UNL     1      39.831 -14.453   5.340  1.00  0.00     0.059 A 
HETATM    6  C   UNL     1      39.720 -13.251   6.040  1.00  0.00     0.023 A 
ENDROOT
BRANCH   4   7
HETATM    7  O   UNL     1      40.403 -15.637   3.376  1.00  0.00    -0.292 OA
BRANCH   7   8
HETATM    8  C   UNL     1      41.447 -16.466   3.721  1.00  0.00     0.078 A 
HETATM    9  C   UNL     1      42.685 -16.209   3.130  1.00  0.00     0.040 A 
HETATM   10  C   UNL     1      43.797 -16.986   3.468  1.00  0.00     0.040 A 
HETATM   11  C   UNL     1      43.671 -17.996   4.425  1.00  0.00     0.076 A 
HETATM   12  C   UNL     1      42.435 -18.250   5.021  1.00  0.00     0.040 A 
HETATM   13  C   UNL     1      41.325 -17.474   4.683  1.00  0.00     0.040 A 
BRANCH  11  14
HETATM   14  O   UNL     1      44.703 -18.840   4.763  1.00  0.00    -0.311 OA
BRANCH  14  15
HETATM   15  C   UNL     1      44.699 -20.119   4.255  1.00  0.00     0.076 A 
HETATM   16  C   UNL     1      44.786 -21.268   5.046  1.00  0.00     0.037 A 
HETATM   17  C   UNL     1      44.721 -22.528   4.448  1.00  0.00     0.003 A 
HETATM   18  C   UNL     1      44.549 -22.641   3.068  1.00  0.00     0.000 A 
HETATM   19  C   UNL     1      44.439 -21.493   2.283  1.00  0.00     0.003 A 
HETATM   20  C   UNL     1      44.508 -20.234   2.877  1.00  0.00     0.037 A 
ENDBRANCH  14  15
ENDBRANCH  11  14
ENDBRANCH   7   8
ENDBRANCH   4   7
BRANCH   1  21
HETATM   21  C   UNL     1      40.005 -10.729   6.059  1.00  0.00     0.253 C 
HETATM   22  N   UNL     1      39.419 -10.679   7.305  1.00  0.00    -0.354 N 
HETATM   23  H   UNL     1      38.974 -11.495   7.702  1.00  0.00     0.162 HD
HETATM   24  O   UNL     1      40.390  -9.730   5.463  1.00  0.00    -0.268 OA
BRANCH  22  25
HETATM   25  C   UNL     1      39.206  -9.411   7.991  1.00  0.00     0.154 C 
BRANCH  25  26
HETATM   26  C   UNL     1      39.306  -9.552   9.517  1.00  0.00     0.132 C 
HETATM   27  C   UNL     1      40.443 -10.480   9.913  1.00  0.00     0.041 C 
BRANCH  26  28
HETATM   28  O   UNL     1      38.086 -10.103  10.023  1.00  0.00    -0.394 OA
HETATM   29  H   UNL     1      37.426  -9.979   9.320  1.00  0.00     0.210 HD
ENDBRANCH  26  28
ENDBRANCH  25  26
ENDBRANCH  22  25
ENDBRANCH   1  21
TORSDOF 8
ENDMDL
MODEL 7
REMARK VINA RESULT:      -7.1      3.442      5.501
REMARK  8 active torsions:
REMARK  status: ('A' for Active; 'I' for Inactive)
REMARK    1  A    between atoms: C_2  and  O_3 
REMARK    2  A    between atoms: C_2  and  C_4 
REMARK    3  A    between atoms: C_4  and  N_5 
REMARK       I    between atoms: N_5  and  C_6 
REMARK    4  A    between atoms: C_6  and  C_7 
REMARK    5  A    between atoms: C_10  and  O_11 
REMARK    6  A    between atoms: O_11  and  C_12 
REMARK    7  A    between atoms: C_15  and  O_16 
REMARK    8  A    between atoms: O_16  and  C_17 
ROOT
HETATM    1  C   UNL     1      40.057 -12.882   5.864  1.00  0.00     0.049 A 
HETATM    2  C   UNL     1      39.871 -12.317   4.608  1.00  0.00     0.136 A 
HETATM    3  N   UNL     1      39.875 -13.023   3.451  1.00  0.00    -0.236 NA
HETATM    4  C   UNL     1      40.087 -14.354   3.551  1.00  0.00     0.169 A 
HETATM    5  C   UNL     1      40.336 -15.002   4.752  1.00  0.00     0.059 A 
HETATM    6  C   UNL     1      40.314 -14.254   5.931  1.00  0.00     0.023 A 
ENDROOT
BRANCH   4   7
HETATM    7  O   UNL     1      40.112 -15.135   2.404  1.00  0.00    -0.292 OA
BRANCH   7   8
HETATM    8  C   UNL     1      41.168 -16.005   2.260  1.00  0.00     0.078 A 
HETATM    9  C   UNL     1      42.448 -15.494   2.483  1.00  0.00     0.040 A 
HETATM   10  C   UNL     1      43.563 -16.335   2.395  1.00  0.00     0.040 A 
HETATM   11  C   UNL     1      43.386 -17.692   2.117  1.00  0.00     0.076 A 
HETATM   12  C   UNL     1      42.106 -18.205   1.900  1.00  0.00     0.040 A 
HETATM   13  C   UNL     1      40.994 -17.366   1.987  1.00  0.00     0.040 A 
BRANCH  11  14
HETATM   14  O   UNL     1      44.435 -18.566   1.955  1.00  0.00    -0.311 OA
BRANCH  14  15
HETATM   15  C   UNL     1      44.436 -19.734   2.683  1.00  0.00     0.076 A 
HETATM   16  C   UNL     1      44.281 -21.002   2.115  1.00  0.00     0.037 A 
HETATM   17  C   UNL     1      44.348 -22.138   2.925  1.00  0.00     0.003 A 
HETATM   18  C   UNL     1      44.588 -22.009   4.293  1.00  0.00     0.000 A 
HETATM   19  C   UNL     1      44.765 -20.744   4.855  1.00  0.00     0.003 A 
HETATM   20  C   UNL     1      44.694 -19.609   4.048  1.00  0.00     0.037 A 
ENDBRANCH  14  15
ENDBRANCH  11  14
ENDBRANCH   7   8
ENDBRANCH   4   7
BRANCH   1  21
HETATM   21  C   UNL     1      39.980 -12.002   7.053  1.00  0.00     0.253 C 
HETATM   22  N   UNL     1      41.040 -11.150   7.269  1.00  0.00    -0.354 N 
HETATM   23  H   UNL     1      41.880 -11.216   6.710  1.00  0.00     0.162 HD
HETATM   24  O   UNL     1      39.024 -12.084   7.817  1.00  0.00    -0.268 OA
BRANCH  22  25
HETATM   25  C   UNL     1      41.094 -10.292   8.445  1.00  0.00     0.154 C 
BRANCH  25  26
HETATM   26  C   UNL     1      42.248 -10.670   9.387  1.00  0.00     0.132 C 
HETATM   27  C   UNL     1      43.347 -11.413   8.643  1.00  0.00     0.041 C 
BRANCH  26  28
HETATM   28  O   UNL     1      41.755 -11.526  10.422  1.00  0.00    -0.394 OA
HETATM   29  H   UNL     1      41.688 -12.411  10.024  1.00  0.00     0.210 HD
ENDBRANCH  26  28
ENDBRANCH  25  26
ENDBRANCH  22  25
ENDBRANCH   1  21
TORSDOF 8
ENDMDL
MODEL 8
REMARK VINA RESULT:      -7.0      4.310      6.578
REMARK  8 active torsions:
REMARK  status: ('A' for Active; 'I' for Inactive)
REMARK    1  A    between atoms: C_2  and  O_3 
REMARK    2  A    between atoms: C_2  and  C_4 
REMARK    3  A    between atoms: C_4  and  N_5 
REMARK       I    between atoms: N_5  and  C_6 
REMARK    4  A    between atoms: C_6  and  C_7 
REMARK    5  A    between atoms: C_10  and  O_11 
REMARK    6  A    between atoms: O_11  and  C_12 
REMARK    7  A    between atoms: C_15  and  O_16 
REMARK    8  A    between atoms: O_16  and  C_17 
ROOT
HETATM    1  C   UNL     1      43.719 -14.142   6.392  1.00  0.00     0.049 A 
HETATM    2  C   UNL     1      43.802 -15.505   6.129  1.00  0.00     0.136 A 
HETATM    3  N   UNL     1      42.968 -16.167   5.291  1.00  0.00    -0.236 NA
HETATM    4  C   UNL     1      41.997 -15.439   4.698  1.00  0.00     0.169 A 
HETATM    5  C   UNL     1      41.798 -14.086   4.937  1.00  0.00     0.059 A 
HETATM    6  C   UNL     1      42.679 -13.425   5.794  1.00  0.00     0.023 A 
ENDROOT
BRANCH   4   7
HETATM    7  O   UNL     1      41.103 -16.057   3.835  1.00  0.00    -0.292 OA
BRANCH   7   8
HETATM    8  C   UNL     1      40.850 -15.430   2.636  1.00  0.00     0.078 A 
HETATM    9  C   UNL     1      41.854 -15.480   1.668  1.00  0.00     0.040 A 
HETATM   10  C   UNL     1      41.647 -14.899   0.413  1.00  0.00     0.040 A 
HETATM   11  C   UNL     1      40.418 -14.301   0.122  1.00  0.00     0.076 A 
HETATM   12  C   UNL     1      39.411 -14.255   1.087  1.00  0.00     0.040 A 
HETATM   13  C   UNL     1      39.619 -14.835   2.340  1.00  0.00     0.040 A 
BRANCH  11  14
HETATM   14  O   UNL     1      40.162 -13.657  -1.066  1.00  0.00    -0.311 OA
BRANCH  14  15
HETATM   15  C   UNL     1      39.596 -14.376  -2.094  1.00  0.00     0.076 A 
HETATM   16  C   UNL     1      40.291 -15.323  -2.852  1.00  0.00     0.037 A 
HETATM   17  C   UNL     1      39.622 -16.045  -3.843  1.00  0.00     0.003 A 
HETATM   18  C   UNL     1      38.260 -15.837  -4.061  1.00  0.00     0.000 A 
HETATM   19  C   UNL     1      37.563 -14.909  -3.289  1.00  0.00     0.003 A 
HETATM   20  C   UNL     1      38.230 -14.184  -2.302  1.00  0.00     0.037 A 
ENDBRANCH  14  15
ENDBRANCH  11  14
ENDBRANCH   7   8
ENDBRANCH   4   7
BRANCH   1  21
HETATM   21  C   UNL     1      44.726 -13.534   7.291  1.00  0.00     0.253 C 
HETATM   22  N   UNL     1      44.268 -13.015   8.482  1.00  0.00    -0.354 N 
HETATM   23  H   UNL     1      43.277 -12.946   8.670  1.00  0.00     0.162 HD
HETATM   24  O   UNL     1      45.900 -13.468   6.943  1.00  0.00    -0.268 OA
BRANCH  22  25
HETATM   25  C   UNL     1      45.166 -12.334   9.406  1.00  0.00     0.154 C 
BRANCH  25  26
HETATM   26  C   UNL     1      44.687 -10.913   9.740  1.00  0.00     0.132 C 
HETATM   27  C   UNL     1      44.250 -10.804  11.192  1.00  0.00     0.041 C 
BRANCH  26  28
HETATM   28  O   UNL     1      43.567 -10.583   8.913  1.00  0.00    -0.394 OA
HETATM   29  H   UNL     1      43.492 -11.306   8.266  1.00  0.00     0.210 HD
ENDBRANCH  26  28
ENDBRANCH  25  26
ENDBRANCH  22  25
ENDBRANCH   1  21
TORSDOF 8
ENDMDL
MODEL 9
REMARK VINA RESULT:      -7.0      3.113      4.574
REMARK  8 active torsions:
REMARK  status: ('A' for Active; 'I' for Inactive)
REMARK    1  A    between atoms: C_2  and  O_3 
REMARK    2  A    between atoms: C_2  and  C_4 
REMARK    3  A    between atoms: C_4  and  N_5 
REMARK       I    between atoms: N_5  and  C_6 
REMARK    4  A    between atoms: C_6  and  C_7 
REMARK    5  A    between atoms: C_10  and  O_11 
REMARK    6  A    between atoms: O_11  and  C_12 
REMARK    7  A    between atoms: C_15  and  O_16 
REMARK    8  A    between atoms: O_16  and  C_17 
ROOT
HETATM    1  C   UNL     1      40.321 -11.436   6.832  1.00  0.00     0.049 A 
HETATM    2  C   UNL     1      39.435 -12.374   6.314  1.00  0.00     0.136 A 
HETATM    3  N   UNL     1      39.465 -12.819   5.034  1.00  0.00    -0.236 NA
HETATM    4  C   UNL     1      40.416 -12.295   4.230  1.00  0.00     0.169 A 
HETATM    5  C   UNL     1      41.311 -11.316   4.637  1.00  0.00     0.059 A 
HETATM    6  C   UNL     1      41.267 -10.883   5.964  1.00  0.00     0.023 A 
ENDROOT
BRANCH   4   7
HETATM    7  O   UNL     1      40.497 -12.701   2.905  1.00  0.00    -0.292 OA
BRANCH   7   8
HETATM    8  C   UNL     1      40.847 -14.012   2.670  1.00  0.00     0.078 A 
HETATM    9  C   UNL     1      42.209 -14.320   2.694  1.00  0.00     0.040 A 
HETATM   10  C   UNL     1      42.631 -15.640   2.504  1.00  0.00     0.040 A 
HETATM   11  C   UNL     1      41.683 -16.651   2.328  1.00  0.00     0.076 A 
HETATM   12  C   UNL     1      40.322 -16.345   2.310  1.00  0.00     0.040 A 
HETATM   13  C   UNL     1      39.901 -15.028   2.498  1.00  0.00     0.040 A 
BRANCH  11  14
HETATM   14  O   UNL     1      42.023 -17.960   2.076  1.00  0.00    -0.311 OA
BRANCH  14  15
HETATM   15  C   UNL     1      42.897 -18.588   2.934  1.00  0.00     0.076 A 
HETATM   16  C   UNL     1      42.834 -18.475   4.325  1.00  0.00     0.037 A 
HETATM   17  C   UNL     1      43.731 -19.191   5.121  1.00  0.00     0.003 A 
HETATM   18  C   UNL     1      44.674 -20.032   4.530  1.00  0.00     0.000 A 
HETATM   19  C   UNL     1      44.721 -20.162   3.142  1.00  0.00     0.003 A 
HETATM   20  C   UNL     1      43.829 -19.444   2.346  1.00  0.00     0.037 A 
ENDBRANCH  14  15
ENDBRANCH  11  14
ENDBRANCH   7   8
ENDBRANCH   4   7
BRANCH   1  21
HETATM   21  C   UNL     1      40.208 -11.073   8.263  1.00  0.00     0.253 C 
HETATM   22  N   UNL     1      41.381 -10.995   8.981  1.00  0.00    -0.354 N 
HETATM   23  H   UNL     1      42.258 -11.292   8.576  1.00  0.00     0.162 HD
HETATM   24  O   UNL     1      39.104 -10.901   8.768  1.00  0.00    -0.268 OA
BRANCH  22  25
HETATM   25  C   UNL     1      41.375 -10.712  10.411  1.00  0.00     0.154 C 
BRANCH  25  26
HETATM   26  C   UNL     1      42.645 -11.224  11.109  1.00  0.00     0.132 C 
HETATM   27  C   UNL     1      43.589 -10.081  11.446  1.00  0.00     0.041 C 
BRANCH  26  28
HETATM   28  O   UNL     1      43.334 -12.127  10.239  1.00  0.00    -0.394 OA
HETATM   29  H   UNL     1      44.263 -11.840  10.240  1.00  0.00     0.210 HD
ENDBRANCH  26  28
ENDBRANCH  25  26
ENDBRANCH  22  25
ENDBRANCH   1  21
TORSDOF 8
ENDMDL
MODEL 10
REMARK VINA RESULT:      -6.9      3.276      4.423
REMARK  8 active torsions:
REMARK  status: ('A' for Active; 'I' for Inactive)
REMARK    1  A    between atoms: C_2  and  O_3 
REMARK    2  A    between atoms: C_2  and  C_4 
REMARK    3  A    between atoms: C_4  and  N_5 
REMARK       I    between atoms: N_5  and  C_6 
REMARK    4  A    between atoms: C_6  and  C_7 
REMARK    5  A    between atoms: C_10  and  O_11 
REMARK    6  A    between atoms: O_11  and  C_12 
REMARK    7  A    between atoms: C_15  and  O_16 
REMARK    8  A    between atoms: O_16  and  C_17 
ROOT
HETATM    1  C   UNL     1      41.018 -10.608   7.762  1.00  0.00     0.049 A 
HETATM    2  C   UNL     1      39.703 -11.050   7.665  1.00  0.00     0.136 A 
HETATM    3  N   UNL     1      39.108 -11.407   6.501  1.00  0.00    -0.236 NA
HETATM    4  C   UNL     1      39.855 -11.307   5.379  1.00  0.00     0.169 A 
HETATM    5  C   UNL     1      41.157 -10.827   5.365  1.00  0.00     0.059 A 
HETATM    6  C   UNL     1      41.751 -10.477   6.579  1.00  0.00     0.023 A 
ENDROOT
BRANCH   4   7
HETATM    7  O   UNL     1      39.303 -11.649   4.152  1.00  0.00    -0.292 OA
BRANCH   7   8
HETATM    8  C   UNL     1      39.528 -12.929   3.697  1.00  0.00     0.078 A 
HETATM    9  C   UNL     1      39.170 -13.206   2.376  1.00  0.00     0.040 A 
HETATM   10  C   UNL     1      39.409 -14.474   1.837  1.00  0.00     0.040 A 
HETATM   11  C   UNL     1      40.041 -15.448   2.614  1.00  0.00     0.076 A 
HETATM   12  C   UNL     1      40.405 -15.170   3.932  1.00  0.00     0.040 A 
HETATM   13  C   UNL     1      40.165 -13.905   4.470  1.00  0.00     0.040 A 
BRANCH  11  14
HETATM   14  O   UNL     1      40.255 -16.733   2.174  1.00  0.00    -0.311 OA
BRANCH  14  15
HETATM   15  C   UNL     1      41.540 -17.224   2.181  1.00  0.00     0.076 A 
HETATM   16  C   UNL     1      42.038 -18.079   3.168  1.00  0.00     0.037 A 
HETATM   17  C   UNL     1      43.341 -18.572   3.066  1.00  0.00     0.003 A 
HETATM   18  C   UNL     1      44.136 -18.228   1.973  1.00  0.00     0.000 A 
HETATM   19  C   UNL     1      43.630 -17.393   0.977  1.00  0.00     0.003 A 
HETATM   20  C   UNL     1      42.331 -16.897   1.079  1.00  0.00     0.037 A 
ENDBRANCH  14  15
ENDBRANCH  11  14
ENDBRANCH   7   8
ENDBRANCH   4   7
BRANCH   1  21
HETATM   21  C   UNL     1      41.561 -10.297   9.104  1.00  0.00     0.253 C 
HETATM   22  N   UNL     1      42.083 -11.348   9.825  1.00  0.00    -0.354 N 
HETATM   23  H   UNL     1      41.984 -12.301   9.500  1.00  0.00     0.162 HD
HETATM   24  O   UNL     1      41.493  -9.155   9.544  1.00  0.00    -0.268 OA
BRANCH  22  25
HETATM   25  C   UNL     1      42.580 -11.162  11.182  1.00  0.00     0.154 C 
BRANCH  25  26
HETATM   26  C   UNL     1      43.996 -11.729  11.365  1.00  0.00     0.132 C 
HETATM   27  C   UNL     1      45.016 -10.934  10.565  1.00  0.00     0.041 C 
BRANCH  26  28
HETATM   28  O   UNL     1      44.029 -13.083  10.904  1.00  0.00    -0.394 OA
HETATM   29  H   UNL     1      44.931 -13.229  10.573  1.00  0.00     0.210 HD
ENDBRANCH  26  28
ENDBRANCH  25  26
ENDBRANCH  22  25
ENDBRANCH   1  21
TORSDOF 8
ENDMDL
