MODEL 1
REMARK VINA RESULT:      -8.6      0.000      0.000
REMARK  4 active torsions:
REMARK  status: ('A' for Active; 'I' for Inactive)
REMARK    1  A    between atoms: C_2  and  N_3 
REMARK    2  A    between atoms: C_11  and  N_12 
REMARK    3  A    between atoms: N_12  and  C_15 
REMARK    4  A    between atoms: C_15  and  C_16 
ROOT
HETATM    1  N   UNL     1      41.196 -16.090   1.596  1.00  0.00    -0.067 N 
HETATM    2  H   UNL     1      40.990 -16.740   0.820  1.00  0.00     0.280 HD
HETATM    3  C   UNL     1      42.697 -15.870   1.535  1.00  0.00     0.238 C 
HETATM    4  C   UNL     1      43.169 -15.081   2.753  1.00  0.00     0.066 C 
HETATM    5  C   UNL     1      42.813 -15.787   4.082  1.00  0.00     0.073 C 
HETATM    6  O   UNL     1      43.554 -17.016   4.074  1.00  0.00    -0.339 OA
HETATM    7  C   UNL     1      43.667 -17.680   5.263  1.00  0.00     0.078 A 
HETATM    8  C   UNL     1      43.449 -17.085   6.511  1.00  0.00     0.006 A 
HETATM    9  C   UNL     1      43.131 -15.617   6.615  1.00  0.00     0.224 C 
HETATM   10  C   UNL     1      43.290 -14.914   5.258  1.00  0.00     0.076 C 
HETATM   11  C   UNL     1      44.018 -19.026   5.163  1.00  0.00     0.037 A 
HETATM   12  C   UNL     1      44.103 -19.813   6.308  1.00  0.00     0.003 A 
HETATM   13  C   UNL     1      43.830 -19.255   7.552  1.00  0.00     0.001 A 
HETATM   14  C   UNL     1      43.499 -17.903   7.657  1.00  0.00     0.012 A 
HETATM   15  C   UNL     1      41.298 -16.086   4.098  1.00  0.00     0.066 C 
HETATM   16  C   UNL     1      40.860 -16.864   2.856  1.00  0.00     0.238 C 
ENDROOT
BRANCH   9  17
HETATM   17  N   UNL     1      44.006 -14.929   7.628  1.00  0.00    -0.063 N 
HETATM   18  H   UNL     1      43.422 -14.361   8.255  1.00  0.00     0.278 HD
HETATM   19  H   UNL     1      44.434 -15.624   8.255  1.00  0.00     0.278 HD
BRANCH  17  20
HETATM   20  C   UNL     1      45.071 -14.019   7.116  1.00  0.00     0.274 C 
BRANCH  20  21
HETATM   21  C   UNL     1      45.249 -12.870   8.027  1.00  0.00     0.004 A 
HETATM   22  C   UNL     1      44.381 -12.377   8.985  1.00  0.00     0.122 A 
HETATM   23  N   UNL     1      45.014 -11.309   9.565  1.00  0.00    -0.285 N 
HETATM   24  C   UNL     1      44.532 -10.476  10.643  1.00  0.00     0.179 C 
HETATM   25  N   UNL     1      46.214 -11.062   9.020  1.00  0.00    -0.185 NA
HETATM   26  C   UNL     1      46.374 -12.019   8.112  1.00  0.00     0.149 A 
ENDBRANCH  20  21
ENDBRANCH  17  20
ENDBRANCH   9  17
BRANCH   1  27
HETATM   27  C   UNL     1      40.324 -14.855   1.303  1.00  0.00     0.180 C 
HETATM   28  C   UNL     1      38.875 -15.121   1.713  1.00  0.00     0.039 C 
HETATM   29  C   UNL     1      40.368 -14.521  -0.190  1.00  0.00     0.039 C 
ENDBRANCH   1  27
TORSDOF 4
ENDMDL
MODEL 2
REMARK VINA RESULT:      -8.1      3.154      8.195
REMARK  4 active torsions:
REMARK  status: ('A' for Active; 'I' for Inactive)
REMARK    1  A    between atoms: C_2  and  N_3 
REMARK    2  A    between atoms: C_11  and  N_12 
REMARK    3  A    between atoms: N_12  and  C_15 
REMARK    4  A    between atoms: C_15  and  C_16 
ROOT
HETATM    1  N   UNL     1      41.103 -13.638   6.186  1.00  0.00    -0.067 N 
HETATM    2  H   UNL     1      41.136 -13.867   7.191  1.00  0.00     0.280 HD
HETATM    3  C   UNL     1      39.938 -14.442   5.638  1.00  0.00     0.238 C 
HETATM    4  C   UNL     1      39.896 -14.350   4.115  1.00  0.00     0.066 C 
HETATM    5  C   UNL     1      41.207 -14.848   3.463  1.00  0.00     0.073 C 
HETATM    6  O   UNL     1      41.293 -16.243   3.790  1.00  0.00    -0.339 OA
HETATM    7  C   UNL     1      42.187 -16.992   3.078  1.00  0.00     0.078 A 
HETATM    8  C   UNL     1      42.728 -16.601   1.848  1.00  0.00     0.006 A 
HETATM    9  C   UNL     1      42.288 -15.318   1.192  1.00  0.00     0.224 C 
HETATM   10  C   UNL     1      41.099 -14.690   1.934  1.00  0.00     0.076 C 
HETATM   11  C   UNL     1      42.546 -18.206   3.664  1.00  0.00     0.037 A 
HETATM   12  C   UNL     1      43.495 -19.023   3.055  1.00  0.00     0.003 A 
HETATM   13  C   UNL     1      44.089 -18.621   1.863  1.00  0.00     0.001 A 
HETATM   14  C   UNL     1      43.715 -17.417   1.265  1.00  0.00     0.012 A 
HETATM   15  C   UNL     1      42.396 -14.085   4.088  1.00  0.00     0.066 C 
HETATM   16  C   UNL     1      42.395 -14.188   5.614  1.00  0.00     0.238 C 
ENDROOT
BRANCH   9  17
HETATM   17  N   UNL     1      41.909 -15.532  -0.248  1.00  0.00    -0.063 N 
HETATM   18  H   UNL     1      42.712 -15.921  -0.759  1.00  0.00     0.278 HD
HETATM   19  H   UNL     1      41.195 -16.270  -0.319  1.00  0.00     0.278 HD
BRANCH  17  20
HETATM   20  C   UNL     1      41.458 -14.344  -1.028  1.00  0.00     0.274 C 
BRANCH  20  21
HETATM   21  C   UNL     1      40.512 -14.751  -2.086  1.00  0.00     0.004 A 
HETATM   22  C   UNL     1      39.186 -14.391  -2.254  1.00  0.00     0.122 A 
HETATM   23  N   UNL     1      38.756 -15.026  -3.389  1.00  0.00    -0.285 N 
HETATM   24  C   UNL     1      37.450 -14.946  -4.005  1.00  0.00     0.179 C 
HETATM   25  N   UNL     1      39.705 -15.795  -3.943  1.00  0.00    -0.185 NA
HETATM   26  C   UNL     1      40.775 -15.610  -3.178  1.00  0.00     0.149 A 
ENDBRANCH  20  21
ENDBRANCH  17  20
ENDBRANCH   9  17
BRANCH   1  27
HETATM   27  C   UNL     1      40.939 -12.107   6.147  1.00  0.00     0.180 C 
HETATM   28  C   UNL     1      42.035 -11.436   6.977  1.00  0.00     0.039 C 
HETATM   29  C   UNL     1      39.571 -11.709   6.708  1.00  0.00     0.039 C 
ENDBRANCH   1  27
TORSDOF 4
ENDMDL
MODEL 3
REMARK VINA RESULT:      -8.1      4.235      6.484
REMARK  4 active torsions:
REMARK  status: ('A' for Active; 'I' for Inactive)
REMARK    1  A    between atoms: C_2  and  N_3 
REMARK    2  A    between atoms: C_11  and  N_12 
REMARK    3  A    between atoms: N_12  and  C_15 
REMARK    4  A    between atoms: C_15  and  C_16 
ROOT
HETATM    1  N   UNL     1      39.425 -13.336   2.139  1.00  0.00    -0.067 N 
HETATM    2  H   UNL     1      38.659 -12.841   2.621  1.00  0.00     0.280 HD
HETATM    3  C   UNL     1      38.913 -14.751   1.939  1.00  0.00     0.238 C 
HETATM    4  C   UNL     1      40.026 -15.651   1.410  1.00  0.00     0.066 C 
HETATM    5  C   UNL     1      41.250 -15.684   2.354  1.00  0.00     0.073 C 
HETATM    6  O   UNL     1      40.780 -16.281   3.572  1.00  0.00    -0.339 OA
HETATM    7  C   UNL     1      41.728 -16.714   4.456  1.00  0.00     0.078 A 
HETATM    8  C   UNL     1      43.063 -16.957   4.111  1.00  0.00     0.006 A 
HETATM    9  C   UNL     1      43.524 -16.809   2.685  1.00  0.00     0.224 C 
HETATM   10  C   UNL     1      42.338 -16.582   1.735  1.00  0.00     0.076 C 
HETATM   11  C   UNL     1      41.281 -16.904   5.763  1.00  0.00     0.037 A 
HETATM   12  C   UNL     1      42.175 -17.287   6.759  1.00  0.00     0.003 A 
HETATM   13  C   UNL     1      43.517 -17.473   6.449  1.00  0.00     0.001 A 
HETATM   14  C   UNL     1      43.963 -17.304   5.136  1.00  0.00     0.012 A 
HETATM   15  C   UNL     1      41.712 -14.234   2.622  1.00  0.00     0.066 C 
HETATM   16  C   UNL     1      40.567 -13.360   3.136  1.00  0.00     0.238 C 
ENDROOT
BRANCH   9  17
HETATM   17  N   UNL     1      44.296 -18.015   2.224  1.00  0.00    -0.063 N 
HETATM   18  H   UNL     1      44.899 -17.754   1.432  1.00  0.00     0.278 HD
HETATM   19  H   UNL     1      44.962 -18.308   2.951  1.00  0.00     0.278 HD
BRANCH  17  20
HETATM   20  C   UNL     1      43.516 -19.205   1.774  1.00  0.00     0.274 C 
BRANCH  20  21
HETATM   21  C   UNL     1      43.979 -20.419   2.474  1.00  0.00     0.004 A 
HETATM   22  C   UNL     1      44.492 -20.545   3.753  1.00  0.00     0.122 A 
HETATM   23  N   UNL     1      44.761 -21.876   3.931  1.00  0.00    -0.285 N 
HETATM   24  C   UNL     1      45.283 -22.521   5.115  1.00  0.00     0.179 C 
HETATM   25  N   UNL     1      44.488 -22.610   2.842  1.00  0.00    -0.185 NA
HETATM   26  C   UNL     1      43.987 -21.740   1.970  1.00  0.00     0.149 A 
ENDBRANCH  20  21
ENDBRANCH  17  20
ENDBRANCH   9  17
BRANCH   1  27
HETATM   27  C   UNL     1      39.660 -12.519   0.854  1.00  0.00     0.180 C 
HETATM   28  C   UNL     1      39.949 -11.058   1.201  1.00  0.00     0.039 C 
HETATM   29  C   UNL     1      38.424 -12.586  -0.045  1.00  0.00     0.039 C 
ENDBRANCH   1  27
TORSDOF 4
ENDMDL
MODEL 4
REMARK VINA RESULT:      -8.0      3.666      7.844
REMARK  4 active torsions:
REMARK  status: ('A' for Active; 'I' for Inactive)
REMARK    1  A    between atoms: C_2  and  N_3 
REMARK    2  A    between atoms: C_11  and  N_12 
REMARK    3  A    between atoms: N_12  and  C_15 
REMARK    4  A    between atoms: C_15  and  C_16 
ROOT
HETATM    1  N   UNL     1      44.150 -19.245   6.182  1.00  0.00    -0.067 N 
HETATM    2  H   UNL     1      44.829 -19.134   6.951  1.00  0.00     0.280 HD
HETATM    3  C   UNL     1      44.924 -18.902   4.922  1.00  0.00     0.238 C 
HETATM    4  C   UNL     1      43.984 -18.832   3.721  1.00  0.00     0.066 C 
HETATM    5  C   UNL     1      42.855 -17.795   3.921  1.00  0.00     0.073 C 
HETATM    6  O   UNL     1      43.514 -16.522   4.004  1.00  0.00    -0.339 OA
HETATM    7  C   UNL     1      42.731 -15.410   3.866  1.00  0.00     0.078 A 
HETATM    8  C   UNL     1      41.455 -15.421   3.293  1.00  0.00     0.006 A 
HETATM    9  C   UNL     1      40.882 -16.692   2.722  1.00  0.00     0.224 C 
HETATM   10  C   UNL     1      41.934 -17.811   2.687  1.00  0.00     0.076 C 
HETATM   11  C   UNL     1      43.291 -14.225   4.344  1.00  0.00     0.037 A 
HETATM   12  C   UNL     1      42.559 -13.042   4.308  1.00  0.00     0.003 A 
HETATM   13  C   UNL     1      41.265 -13.045   3.799  1.00  0.00     0.001 A 
HETATM   14  C   UNL     1      40.711 -14.226   3.300  1.00  0.00     0.012 A 
HETATM   15  C   UNL     1      42.127 -18.100   5.249  1.00  0.00     0.066 C 
HETATM   16  C   UNL     1      43.102 -18.176   6.425  1.00  0.00     0.238 C 
ENDROOT
BRANCH   9  17
HETATM   17  N   UNL     1      40.342 -16.483   1.334  1.00  0.00    -0.063 N 
HETATM   18  H   UNL     1      39.575 -17.146   1.161  1.00  0.00     0.278 HD
HETATM   19  H   UNL     1      39.888 -15.562   1.266  1.00  0.00     0.278 HD
BRANCH  17  20
HETATM   20  C   UNL     1      41.290 -16.641   0.193  1.00  0.00     0.274 C 
BRANCH  20  21
HETATM   21  C   UNL     1      41.275 -15.436  -0.661  1.00  0.00     0.004 A 
HETATM   22  C   UNL     1      40.885 -15.311  -1.982  1.00  0.00     0.122 A 
HETATM   23  N   UNL     1      41.050 -13.990  -2.308  1.00  0.00    -0.285 N 
HETATM   24  C   UNL     1      40.752 -13.347  -3.569  1.00  0.00     0.179 C 
HETATM   25  N   UNL     1      41.551 -13.266  -1.297  1.00  0.00    -0.185 NA
HETATM   26  C   UNL     1      41.660 -14.128  -0.291  1.00  0.00     0.149 A 
ENDBRANCH  20  21
ENDBRANCH  17  20
ENDBRANCH   9  17
BRANCH   1  27
HETATM   27  C   UNL     1      43.672 -20.705   6.300  1.00  0.00     0.180 C 
HETATM   28  C   UNL     1      43.547 -21.104   7.771  1.00  0.00     0.039 C 
HETATM   29  C   UNL     1      44.666 -21.642   5.609  1.00  0.00     0.039 C 
ENDBRANCH   1  27
TORSDOF 4
ENDMDL
MODEL 5
REMARK VINA RESULT:      -7.4      2.453      4.147
REMARK  4 active torsions:
REMARK  status: ('A' for Active; 'I' for Inactive)
REMARK    1  A    between atoms: C_2  and  N_3 
REMARK    2  A    between atoms: C_11  and  N_12 
REMARK    3  A    between atoms: N_12  and  C_15 
REMARK    4  A    between atoms: C_15  and  C_16 
ROOT
HETATM    1  N   UNL     1      41.044 -13.746  -1.427  1.00  0.00    -0.067 N 
HETATM    2  H   UNL     1      41.521 -13.683  -2.339  1.00  0.00     0.280 HD
HETATM    3  C   UNL     1      41.989 -13.080  -0.443  1.00  0.00     0.238 C 
HETATM    4  C   UNL     1      41.496 -13.279   0.988  1.00  0.00     0.066 C 
HETATM    5  C   UNL     1      41.352 -14.774   1.355  1.00  0.00     0.073 C 
HETATM    6  O   UNL     1      42.682 -15.313   1.298  1.00  0.00    -0.339 OA
HETATM    7  C   UNL     1      42.882 -16.533   1.881  1.00  0.00     0.078 A 
HETATM    8  C   UNL     1      42.015 -17.098   2.823  1.00  0.00     0.006 A 
HETATM    9  C   UNL     1      40.807 -16.338   3.305  1.00  0.00     0.224 C 
HETATM   10  C   UNL     1      40.819 -14.889   2.796  1.00  0.00     0.076 C 
HETATM   11  C   UNL     1      44.033 -17.206   1.472  1.00  0.00     0.037 A 
HETATM   12  C   UNL     1      44.305 -18.483   1.957  1.00  0.00     0.003 A 
HETATM   13  C   UNL     1      43.422 -19.087   2.846  1.00  0.00     0.001 A 
HETATM   14  C   UNL     1      42.281 -18.405   3.273  1.00  0.00     0.012 A 
HETATM   15  C   UNL     1      40.459 -15.464   0.300  1.00  0.00     0.066 C 
HETATM   16  C   UNL     1      40.976 -15.230  -1.120  1.00  0.00     0.238 C 
ENDROOT
BRANCH   9  17
HETATM   17  N   UNL     1      40.722 -16.328   4.807  1.00  0.00    -0.063 N 
HETATM   18  H   UNL     1      39.788 -16.647   5.099  1.00  0.00     0.278 HD
HETATM   19  H   UNL     1      41.356 -17.037   5.202  1.00  0.00     0.278 HD
BRANCH  17  20
HETATM   20  C   UNL     1      40.952 -15.030   5.504  1.00  0.00     0.274 C 
BRANCH  20  21
HETATM   21  C   UNL     1      42.325 -14.970   6.043  1.00  0.00     0.004 A 
HETATM   22  C   UNL     1      43.188 -13.891   6.111  1.00  0.00     0.122 A 
HETATM   23  N   UNL     1      44.334 -14.351   6.704  1.00  0.00    -0.285 N 
HETATM   24  C   UNL     1      45.525 -13.597   7.028  1.00  0.00     0.179 C 
HETATM   25  N   UNL     1      44.279 -15.659   6.991  1.00  0.00    -0.185 NA
HETATM   26  C   UNL     1      43.058 -16.032   6.622  1.00  0.00     0.149 A 
ENDBRANCH  20  21
ENDBRANCH  17  20
ENDBRANCH   9  17
BRANCH   1  27
HETATM   27  C   UNL     1      39.696 -13.035  -1.648  1.00  0.00     0.180 C 
HETATM   28  C   UNL     1      38.852 -13.805  -2.666  1.00  0.00     0.039 C 
HETATM   29  C   UNL     1      39.929 -11.613  -2.164  1.00  0.00     0.039 C 
ENDBRANCH   1  27
TORSDOF 4
ENDMDL
MODEL 6
REMARK VINA RESULT:      -7.3      2.563      4.619
REMARK  4 active torsions:
REMARK  status: ('A' for Active; 'I' for Inactive)
REMARK    1  A    between atoms: C_2  and  N_3 
REMARK    2  A    between atoms: C_11  and  N_12 
REMARK    3  A    between atoms: N_12  and  C_15 
REMARK    4  A    between atoms: C_15  and  C_16 
ROOT
HETATM    1  N   UNL     1      43.280 -19.342   4.646  1.00  0.00    -0.067 N 
HETATM    2  H   UNL     1      42.585 -20.047   4.358  1.00  0.00     0.280 HD
HETATM    3  C   UNL     1      43.054 -19.154   6.135  1.00  0.00     0.238 C 
HETATM    4  C   UNL     1      43.888 -17.987   6.658  1.00  0.00     0.066 C 
HETATM    5  C   UNL     1      43.566 -16.664   5.926  1.00  0.00     0.073 C 
HETATM    6  O   UNL     1      42.198 -16.371   6.247  1.00  0.00    -0.339 OA
HETATM    7  C   UNL     1      41.759 -15.102   5.987  1.00  0.00     0.078 A 
HETATM    8  C   UNL     1      42.609 -14.007   5.796  1.00  0.00     0.006 A 
HETATM    9  C   UNL     1      44.101 -14.162   5.935  1.00  0.00     0.224 C 
HETATM   10  C   UNL     1      44.470 -15.548   6.484  1.00  0.00     0.076 C 
HETATM   11  C   UNL     1      40.374 -14.954   5.917  1.00  0.00     0.037 A 
HETATM   12  C   UNL     1      39.819 -13.718   5.600  1.00  0.00     0.003 A 
HETATM   13  C   UNL     1      40.649 -12.632   5.345  1.00  0.00     0.001 A 
HETATM   14  C   UNL     1      42.035 -12.773   5.436  1.00  0.00     0.012 A 
HETATM   15  C   UNL     1      43.714 -16.887   4.405  1.00  0.00     0.066 C 
HETATM   16  C   UNL     1      42.877 -18.073   3.921  1.00  0.00     0.238 C 
ENDROOT
BRANCH   9  17
HETATM   17  N   UNL     1      44.688 -13.108   6.833  1.00  0.00    -0.063 N 
HETATM   18  H   UNL     1      45.638 -12.876   6.514  1.00  0.00     0.278 HD
HETATM   19  H   UNL     1      44.171 -12.224   6.725  1.00  0.00     0.278 HD
BRANCH  17  20
HETATM   20  C   UNL     1      44.806 -13.425   8.286  1.00  0.00     0.274 C 
BRANCH  20  21
HETATM   21  C   UNL     1      44.306 -12.300   9.101  1.00  0.00     0.004 A 
HETATM   22  C   UNL     1      44.529 -12.028  10.439  1.00  0.00     0.122 A 
HETATM   23  N   UNL     1      43.855 -10.868  10.714  1.00  0.00    -0.285 N 
HETATM   24  C   UNL     1      43.802 -10.152  11.970  1.00  0.00     0.179 C 
HETATM   25  N   UNL     1      43.186 -10.394   9.653  1.00  0.00    -0.185 NA
HETATM   26  C   UNL     1      43.478 -11.238   8.669  1.00  0.00     0.149 A 
ENDBRANCH  20  21
ENDBRANCH  17  20
ENDBRANCH   9  17
BRANCH   1  27
HETATM   27  C   UNL     1      44.636 -19.954   4.245  1.00  0.00     0.180 C 
HETATM   28  C   UNL     1      44.657 -20.256   2.745  1.00  0.00     0.039 C 
HETATM   29  C   UNL     1      44.879 -21.250   5.021  1.00  0.00     0.039 C 
ENDBRANCH   1  27
TORSDOF 4
ENDMDL
MODEL 7
REMARK VINA RESULT:      -7.2      4.375      6.720
REMARK  4 active torsions:
REMARK  status: ('A' for Active; 'I' for Inactive)
REMARK    1  A    between atoms: C_2  and  N_3 
REMARK    2  A    between atoms: C_11  and  N_12 
REMARK    3  A    between atoms: N_12  and  C_15 
REMARK    4  A    between atoms: C_15  and  C_16 
ROOT
HETATM    1  N   UNL     1      40.672 -12.309  -1.131  1.00  0.00    -0.067 N 
HETATM    2  H   UNL     1      40.153 -11.417  -1.124  1.00  0.00     0.280 HD
HETATM    3  C   UNL     1      39.602 -13.385  -1.104  1.00  0.00     0.238 C 
HETATM    4  C   UNL     1      40.234 -14.761  -0.911  1.00  0.00     0.066 C 
HETATM    5  C   UNL     1      41.069 -14.844   0.387  1.00  0.00     0.073 C 
HETATM    6  O   UNL     1      40.131 -14.667   1.459  1.00  0.00    -0.339 OA
HETATM    7  C   UNL     1      40.552 -15.008   2.714  1.00  0.00     0.078 A 
HETATM    8  C   UNL     1      41.648 -15.841   2.969  1.00  0.00     0.006 A 
HETATM    9  C   UNL     1      42.408 -16.476   1.834  1.00  0.00     0.224 C 
HETATM   10  C   UNL     1      41.699 -16.246   0.490  1.00  0.00     0.076 C 
HETATM   11  C   UNL     1      39.809 -14.463   3.761  1.00  0.00     0.037 A 
HETATM   12  C   UNL     1      40.185 -14.697   5.081  1.00  0.00     0.003 A 
HETATM   13  C   UNL     1      41.308 -15.471   5.353  1.00  0.00     0.001 A 
HETATM   14  C   UNL     1      42.040 -16.035   4.307  1.00  0.00     0.012 A 
HETATM   15  C   UNL     1      42.099 -13.693   0.392  1.00  0.00     0.066 C 
HETATM   16  C   UNL     1      41.431 -12.333   0.182  1.00  0.00     0.238 C 
ENDROOT
BRANCH   9  17
HETATM   17  N   UNL     1      42.588 -17.954   2.045  1.00  0.00    -0.063 N 
HETATM   18  H   UNL     1      42.234 -18.213   2.975  1.00  0.00     0.278 HD
HETATM   19  H   UNL     1      41.984 -18.480   1.398  1.00  0.00     0.278 HD
BRANCH  17  20
HETATM   20  C   UNL     1      43.975 -18.500   1.965  1.00  0.00     0.274 C 
BRANCH  20  21
HETATM   21  C   UNL     1      44.259 -19.357   3.132  1.00  0.00     0.004 A 
HETATM   22  C   UNL     1      44.494 -20.720   3.175  1.00  0.00     0.122 A 
HETATM   23  N   UNL     1      44.715 -21.032   4.490  1.00  0.00    -0.285 N 
HETATM   24  C   UNL     1      45.036 -22.326   5.050  1.00  0.00     0.179 C 
HETATM   25  N   UNL     1      44.605 -19.968   5.300  1.00  0.00    -0.185 NA
HETATM   26  C   UNL     1      44.359 -18.950   4.482  1.00  0.00     0.149 A 
ENDBRANCH  20  21
ENDBRANCH  17  20
ENDBRANCH   9  17
BRANCH   1  27
HETATM   27  C   UNL     1      41.527 -12.245  -2.410  1.00  0.00     0.180 C 
HETATM   28  C   UNL     1      42.427 -11.008  -2.384  1.00  0.00     0.039 C 
HETATM   29  C   UNL     1      40.625 -12.182  -3.644  1.00  0.00     0.039 C 
ENDBRANCH   1  27
TORSDOF 4
ENDMDL
MODEL 8
REMARK VINA RESULT:      -7.0      2.757      5.583
REMARK  4 active torsions:
REMARK  status: ('A' for Active; 'I' for Inactive)
REMARK    1  A    between atoms: C_2  and  N_3 
REMARK    2  A    between atoms: C_11  and  N_12 
REMARK    3  A    between atoms: N_12  and  C_15 
REMARK    4  A    between atoms: C_15  and  C_16 
ROOT
HETATM    1  N   UNL     1      42.694 -18.620   4.161  1.00  0.00    -0.067 N 
HETATM    2  H   UNL     1      42.336 -19.561   3.932  1.00  0.00     0.280 HD
HETATM    3  C   UNL     1      41.694 -18.051   5.152  1.00  0.00     0.238 C 
HETATM    4  C   UNL     1      41.995 -16.580   5.426  1.00  0.00     0.066 C 
HETATM    5  C   UNL     1      41.973 -15.727   4.136  1.00  0.00     0.073 C 
HETATM    6  O   UNL     1      40.621 -15.790   3.658  1.00  0.00    -0.339 OA
HETATM    7  C   UNL     1      40.256 -14.873   2.712  1.00  0.00     0.078 A 
HETATM    8  C   UNL     1      40.956 -13.688   2.464  1.00  0.00     0.006 A 
HETATM    9  C   UNL     1      42.154 -13.317   3.298  1.00  0.00     0.224 C 
HETATM   10  C   UNL     1      42.319 -14.269   4.492  1.00  0.00     0.076 C 
HETATM   11  C   UNL     1      39.111 -15.195   1.982  1.00  0.00     0.037 A 
HETATM   12  C   UNL     1      38.682 -14.362   0.953  1.00  0.00     0.003 A 
HETATM   13  C   UNL     1      39.401 -13.211   0.650  1.00  0.00     0.001 A 
HETATM   14  C   UNL     1      40.534 -12.876   1.394  1.00  0.00     0.012 A 
HETATM   15  C   UNL     1      42.928 -16.363   3.102  1.00  0.00     0.066 C 
HETATM   16  C   UNL     1      42.605 -17.839   2.865  1.00  0.00     0.238 C 
ENDROOT
BRANCH   9  17
HETATM   17  N   UNL     1      42.060 -11.904   3.807  1.00  0.00    -0.063 N 
HETATM   18  H   UNL     1      42.894 -11.687   4.368  1.00  0.00     0.278 HD
HETATM   19  H   UNL     1      42.114 -11.241   3.022  1.00  0.00     0.278 HD
BRANCH  17  20
HETATM   20  C   UNL     1      40.887 -11.553   4.659  1.00  0.00     0.274 C 
BRANCH  20  21
HETATM   21  C   UNL     1      41.329 -10.869   5.890  1.00  0.00     0.004 A 
HETATM   22  C   UNL     1      41.774 -11.418   7.079  1.00  0.00     0.122 A 
HETATM   23  N   UNL     1      42.072 -10.364   7.902  1.00  0.00    -0.285 N 
HETATM   24  C   UNL     1      42.603 -10.415   9.246  1.00  0.00     0.179 C 
HETATM   25  N   UNL     1      41.817  -9.176   7.335  1.00  0.00    -0.185 NA
HETATM   26  C   UNL     1      41.397  -9.474   6.109  1.00  0.00     0.149 A 
ENDBRANCH  20  21
ENDBRANCH  17  20
ENDBRANCH   9  17
BRANCH   1  27
HETATM   27  C   UNL     1      44.111 -18.873   4.708  1.00  0.00     0.180 C 
HETATM   28  C   UNL     1      44.809 -19.959   3.888  1.00  0.00     0.039 C 
HETATM   29  C   UNL     1      44.041 -19.316   6.171  1.00  0.00     0.039 C 
ENDBRANCH   1  27
TORSDOF 4
ENDMDL
MODEL 9
REMARK VINA RESULT:      -7.0      3.615      6.351
REMARK  4 active torsions:
REMARK  status: ('A' for Active; 'I' for Inactive)
REMARK    1  A    between atoms: C_2  and  N_3 
REMARK    2  A    between atoms: C_11  and  N_12 
REMARK    3  A    between atoms: N_12  and  C_15 
REMARK    4  A    between atoms: C_15  and  C_16 
ROOT
HETATM    1  N   UNL     1      42.803 -18.820   3.909  1.00  0.00    -0.067 N 
HETATM    2  H   UNL     1      42.410 -19.752   3.705  1.00  0.00     0.280 HD
HETATM    3  C   UNL     1      41.907 -18.247   4.993  1.00  0.00     0.238 C 
HETATM    4  C   UNL     1      42.256 -16.784   5.254  1.00  0.00     0.066 C 
HETATM    5  C   UNL     1      42.131 -15.916   3.980  1.00  0.00     0.073 C 
HETATM    6  O   UNL     1      40.740 -15.952   3.627  1.00  0.00    -0.339 OA
HETATM    7  C   UNL     1      40.304 -15.019   2.728  1.00  0.00     0.078 A 
HETATM    8  C   UNL     1      40.999 -13.841   2.429  1.00  0.00     0.006 A 
HETATM    9  C   UNL     1      42.274 -13.499   3.154  1.00  0.00     0.224 C 
HETATM   10  C   UNL     1      42.532 -14.468   4.318  1.00  0.00     0.076 C 
HETATM   11  C   UNL     1      39.093 -15.314   2.103  1.00  0.00     0.037 A 
HETATM   12  C   UNL     1      38.585 -14.463   1.126  1.00  0.00     0.003 A 
HETATM   13  C   UNL     1      39.292 -13.319   0.770  1.00  0.00     0.001 A 
HETATM   14  C   UNL     1      40.494 -13.010   1.411  1.00  0.00     0.012 A 
HETATM   15  C   UNL     1      42.976 -16.554   2.856  1.00  0.00     0.066 C 
HETATM   16  C   UNL     1      42.609 -18.022   2.634  1.00  0.00     0.238 C 
ENDROOT
BRANCH   9  17
HETATM   17  N   UNL     1      42.250 -12.091   3.684  1.00  0.00    -0.063 N 
HETATM   18  H   UNL     1      43.212 -11.733   3.749  1.00  0.00     0.278 HD
HETATM   19  H   UNL     1      41.802 -11.464   3.002  1.00  0.00     0.278 HD
BRANCH  17  20
HETATM   20  C   UNL     1      41.635 -11.868   5.025  1.00  0.00     0.274 C 
BRANCH  20  21
HETATM   21  C   UNL     1      40.382 -11.098   4.896  1.00  0.00     0.004 A 
HETATM   22  C   UNL     1      40.185  -9.733   4.999  1.00  0.00     0.122 A 
HETATM   23  N   UNL     1      38.848  -9.520   4.790  1.00  0.00    -0.285 N 
HETATM   24  C   UNL     1      38.147  -8.256   4.765  1.00  0.00     0.179 C 
HETATM   25  N   UNL     1      38.167 -10.659   4.593  1.00  0.00    -0.185 NA
HETATM   26  C   UNL     1      39.092 -11.612   4.626  1.00  0.00     0.149 A 
ENDBRANCH  20  21
ENDBRANCH  17  20
ENDBRANCH   9  17
BRANCH   1  27
HETATM   27  C   UNL     1      44.260 -19.100   4.322  1.00  0.00     0.180 C 
HETATM   28  C   UNL     1      44.885 -20.137   3.386  1.00  0.00     0.039 C 
HETATM   29  C   UNL     1      44.309 -19.627   5.758  1.00  0.00     0.039 C 
ENDBRANCH   1  27
TORSDOF 4
ENDMDL
MODEL 10
REMARK VINA RESULT:      -7.0      3.563      4.651
REMARK  4 active torsions:
REMARK  status: ('A' for Active; 'I' for Inactive)
REMARK    1  A    between atoms: C_2  and  N_3 
REMARK    2  A    between atoms: C_11  and  N_12 
REMARK    3  A    between atoms: N_12  and  C_15 
REMARK    4  A    between atoms: C_15  and  C_16 
ROOT
HETATM    1  N   UNL     1      41.111 -14.140  -2.019  1.00  0.00    -0.067 N 
HETATM    2  H   UNL     1      41.602 -14.280  -2.916  1.00  0.00     0.280 HD
HETATM    3  C   UNL     1      42.082 -13.351  -1.159  1.00  0.00     0.238 C 
HETATM    4  C   UNL     1      41.562 -13.244   0.272  1.00  0.00     0.066 C 
HETATM    5  C   UNL     1      41.326 -14.630   0.914  1.00  0.00     0.073 C 
HETATM    6  O   UNL     1      42.622 -15.242   0.992  1.00  0.00    -0.339 OA
HETATM    7  C   UNL     1      42.743 -16.337   1.802  1.00  0.00     0.078 A 
HETATM    8  C   UNL     1      41.832 -16.661   2.814  1.00  0.00     0.006 A 
HETATM    9  C   UNL     1      40.667 -15.757   3.115  1.00  0.00     0.224 C 
HETATM   10  C   UNL     1      40.770 -14.435   2.338  1.00  0.00     0.076 C 
HETATM   11  C   UNL     1      43.857 -17.139   1.556  1.00  0.00     0.037 A 
HETATM   12  C   UNL     1      44.047 -18.312   2.282  1.00  0.00     0.003 A 
HETATM   13  C   UNL     1      43.120 -18.684   3.250  1.00  0.00     0.001 A 
HETATM   14  C   UNL     1      42.016 -17.870   3.512  1.00  0.00     0.012 A 
HETATM   15  C   UNL     1      40.406 -15.458  -0.009  1.00  0.00     0.066 C 
HETATM   16  C   UNL     1      40.952 -15.531  -1.436  1.00  0.00     0.238 C 
ENDROOT
BRANCH   9  17
HETATM   17  N   UNL     1      40.564 -15.453   4.585  1.00  0.00    -0.063 N 
HETATM   18  H   UNL     1      39.625 -15.092   4.795  1.00  0.00     0.278 HD
HETATM   19  H   UNL     1      40.618 -16.325   5.130  1.00  0.00     0.278 HD
BRANCH  17  20
HETATM   20  C   UNL     1      41.525 -14.464   5.155  1.00  0.00     0.274 C 
BRANCH  20  21
HETATM   21  C   UNL     1      40.802 -13.291   5.686  1.00  0.00     0.004 A 
HETATM   22  C   UNL     1      41.313 -12.096   6.160  1.00  0.00     0.122 A 
HETATM   23  N   UNL     1      40.235 -11.335   6.527  1.00  0.00    -0.285 N 
HETATM   24  C   UNL     1      40.241  -9.989   7.054  1.00  0.00     0.179 C 
HETATM   25  N   UNL     1      39.068 -11.973   6.353  1.00  0.00    -0.185 NA
HETATM   26  C   UNL     1      39.403 -13.143   5.818  1.00  0.00     0.149 A 
ENDBRANCH  20  21
ENDBRANCH  17  20
ENDBRANCH   9  17
BRANCH   1  27
HETATM   27  C   UNL     1      39.810 -13.411  -2.403  1.00  0.00     0.180 C 
HETATM   28  C   UNL     1      39.005 -14.251  -3.396  1.00  0.00     0.039 C 
HETATM   29  C   UNL     1      40.133 -12.057  -3.039  1.00  0.00     0.039 C 
ENDBRANCH   1  27
TORSDOF 4
ENDMDL
