MODEL 1
REMARK VINA RESULT:      -8.4      0.000      0.000
REMARK  3 active torsions:
REMARK  status: ('A' for Active; 'I' for Inactive)
REMARK    1  A    between atoms: C_5  and  N_6 
REMARK       I    between atoms: N_6  and  C_7 
REMARK    2  A    between atoms: C_7  and  C_8 
REMARK    3  A    between atoms: C_8  and  C_9 
ROOT
HETATM    1  C   UNL     1      42.316 -15.825   5.209  1.00  0.00     0.286 C 
HETATM    2  N   UNL     1      43.061 -16.598   4.119  1.00  0.00    -0.056 N 
HETATM    3  H   UNL     1      43.429 -15.913   3.449  1.00  0.00     0.278 HD
HETATM    4  H   UNL     1      43.909 -17.009   4.561  1.00  0.00     0.278 HD
HETATM    5  C   UNL     1      42.227 -17.639   3.422  1.00  0.00     0.209 C 
HETATM    6  C   UNL     1      41.001 -16.931   2.791  1.00  0.00     0.115 C 
HETATM    7  N   UNL     1      40.297 -16.100   3.767  1.00  0.00    -0.353 N 
HETATM    8  C   UNL     1      40.894 -15.411   4.792  1.00  0.00     0.249 C 
HETATM    9  O   UNL     1      40.264 -14.554   5.403  1.00  0.00    -0.271 OA
HETATM   10  C   UNL     1      43.082 -18.372   2.392  1.00  0.00     0.035 C 
HETATM   11  C   UNL     1      43.437 -17.516   1.180  1.00  0.00     0.002 C 
HETATM   12  C   UNL     1      42.197 -16.889   0.552  1.00  0.00     0.002 C 
HETATM   13  C   UNL     1      41.390 -16.086   1.568  1.00  0.00     0.027 C 
HETATM   14  H   UNL     1      39.359 -15.773   3.542  1.00  0.00     0.163 HD
ENDROOT
BRANCH   1  15
HETATM   15  C   UNL     1      42.244 -16.621   6.524  1.00  0.00     0.146 C 
BRANCH  15  16
HETATM   16  C   UNL     1      43.561 -16.564   7.251  1.00  0.00     0.224 C 
HETATM   17  N   UNL     1      44.397 -17.627   7.341  1.00  0.00    -0.327 N 
HETATM   18  H   UNL     1      45.179 -17.435   7.963  1.00  0.00     0.169 HD
HETATM   19  O   UNL     1      43.905 -15.491   7.767  1.00  0.00    -0.273 OA
BRANCH  17  20
HETATM   20  C   UNL     1      44.424 -18.904   6.748  1.00  0.00     0.034 A 
HETATM   21  C   UNL     1      43.816 -20.050   7.256  1.00  0.00     0.030 A 
HETATM   22  C   UNL     1      43.876 -21.261   6.552  1.00  0.00     0.009 A 
HETATM   23  C   UNL     1      44.551 -21.351   5.332  1.00  0.00    -0.062 A 
HETATM   24  C   UNL     1      44.571 -22.636   4.559  1.00  0.00     0.048 C 
HETATM   25  C   UNL     1      45.146 -20.201   4.811  1.00  0.00     0.009 A 
HETATM   26  C   UNL     1      45.081 -18.993   5.512  1.00  0.00     0.030 A 
ENDBRANCH  17  20
ENDBRANCH  15  16
ENDBRANCH   1  15
TORSDOF 3
ENDMDL
MODEL 2
REMARK VINA RESULT:      -8.0      1.572      2.307
REMARK  3 active torsions:
REMARK  status: ('A' for Active; 'I' for Inactive)
REMARK    1  A    between atoms: C_5  and  N_6 
REMARK       I    between atoms: N_6  and  C_7 
REMARK    2  A    between atoms: C_7  and  C_8 
REMARK    3  A    between atoms: C_8  and  C_9 
ROOT
HETATM    1  C   UNL     1      42.144 -15.634   4.585  1.00  0.00     0.286 C 
HETATM    2  N   UNL     1      42.270 -16.018   3.111  1.00  0.00    -0.056 N 
HETATM    3  H   UNL     1      42.609 -15.193   2.602  1.00  0.00     0.278 HD
HETATM    4  H   UNL     1      43.050 -16.705   3.039  1.00  0.00     0.278 HD
HETATM    5  C   UNL     1      40.999 -16.543   2.499  1.00  0.00     0.209 C 
HETATM    6  C   UNL     1      39.908 -15.453   2.645  1.00  0.00     0.115 C 
HETATM    7  N   UNL     1      39.802 -14.978   4.023  1.00  0.00    -0.353 N 
HETATM    8  C   UNL     1      40.851 -14.861   4.900  1.00  0.00     0.249 C 
HETATM    9  O   UNL     1      40.712 -14.229   5.942  1.00  0.00    -0.271 OA
HETATM   10  C   UNL     1      41.254 -16.935   1.046  1.00  0.00     0.035 C 
HETATM   11  C   UNL     1      41.472 -15.736   0.125  1.00  0.00     0.002 C 
HETATM   12  C   UNL     1      40.344 -14.718   0.254  1.00  0.00     0.002 C 
HETATM   13  C   UNL     1      40.149 -14.266   1.699  1.00  0.00     0.027 C 
HETATM   14  H   UNL     1      38.979 -14.439   4.292  1.00  0.00     0.163 HD
ENDROOT
BRANCH   1  15
HETATM   15  C   UNL     1      42.233 -16.864   5.504  1.00  0.00     0.146 C 
BRANCH  15  16
HETATM   16  C   UNL     1      43.646 -17.073   5.977  1.00  0.00     0.224 C 
HETATM   17  N   UNL     1      44.441 -18.064   5.505  1.00  0.00    -0.327 N 
HETATM   18  H   UNL     1      45.316 -18.119   6.021  1.00  0.00     0.169 HD
HETATM   19  O   UNL     1      44.110 -16.287   6.815  1.00  0.00    -0.273 OA
BRANCH  17  20
HETATM   20  C   UNL     1      44.323 -18.998   4.457  1.00  0.00     0.034 A 
HETATM   21  C   UNL     1      43.914 -18.713   3.155  1.00  0.00     0.030 A 
HETATM   22  C   UNL     1      43.875 -19.723   2.184  1.00  0.00     0.009 A 
HETATM   23  C   UNL     1      44.236 -21.036   2.496  1.00  0.00    -0.062 A 
HETATM   24  C   UNL     1      44.240 -22.102   1.442  1.00  0.00     0.048 C 
HETATM   25  C   UNL     1      44.663 -21.321   3.794  1.00  0.00     0.009 A 
HETATM   26  C   UNL     1      44.706 -20.312   4.761  1.00  0.00     0.030 A 
ENDBRANCH  17  20
ENDBRANCH  15  16
ENDBRANCH   1  15
TORSDOF 3
ENDMDL
MODEL 3
REMARK VINA RESULT:      -7.6      1.798      5.630
REMARK  3 active torsions:
REMARK  status: ('A' for Active; 'I' for Inactive)
REMARK    1  A    between atoms: C_5  and  N_6 
REMARK       I    between atoms: N_6  and  C_7 
REMARK    2  A    between atoms: C_7  and  C_8 
REMARK    3  A    between atoms: C_8  and  C_9 
ROOT
HETATM    1  C   UNL     1      42.594 -18.370   5.387  1.00  0.00     0.286 C 
HETATM    2  N   UNL     1      42.603 -18.940   3.968  1.00  0.00    -0.056 N 
HETATM    3  H   UNL     1      42.209 -19.887   4.010  1.00  0.00     0.278 HD
HETATM    4  H   UNL     1      41.909 -18.395   3.415  1.00  0.00     0.278 HD
HETATM    5  C   UNL     1      43.960 -18.950   3.316  1.00  0.00     0.209 C 
HETATM    6  C   UNL     1      44.914 -19.789   4.201  1.00  0.00     0.115 C 
HETATM    7  N   UNL     1      44.881 -19.348   5.596  1.00  0.00    -0.353 N 
HETATM    8  C   UNL     1      43.773 -18.864   6.244  1.00  0.00     0.249 C 
HETATM    9  O   UNL     1      43.777 -18.752   7.465  1.00  0.00    -0.271 OA
HETATM   10  C   UNL     1      43.839 -19.494   1.895  1.00  0.00     0.035 C 
HETATM   11  C   UNL     1      43.551 -20.993   1.843  1.00  0.00     0.002 C 
HETATM   12  C   UNL     1      44.550 -21.786   2.677  1.00  0.00     0.002 C 
HETATM   13  C   UNL     1      44.604 -21.292   4.120  1.00  0.00     0.027 C 
HETATM   14  H   UNL     1      45.622 -19.659   6.223  1.00  0.00     0.163 HD
ENDROOT
BRANCH   1  15
HETATM   15  C   UNL     1      42.583 -16.832   5.383  1.00  0.00     0.146 C 
BRANCH  15  16
HETATM   16  C   UNL     1      41.175 -16.311   5.495  1.00  0.00     0.224 C 
HETATM   17  N   UNL     1      40.475 -15.848   4.431  1.00  0.00    -0.327 N 
HETATM   18  H   UNL     1      39.591 -15.434   4.717  1.00  0.00     0.169 HD
HETATM   19  O   UNL     1      40.625 -16.332   6.606  1.00  0.00    -0.273 OA
BRANCH  17  20
HETATM   20  C   UNL     1      40.699 -15.842   3.041  1.00  0.00     0.034 A 
HETATM   21  C   UNL     1      40.700 -16.962   2.211  1.00  0.00     0.030 A 
HETATM   22  C   UNL     1      40.895 -16.826   0.829  1.00  0.00     0.009 A 
HETATM   23  C   UNL     1      41.098 -15.570   0.253  1.00  0.00    -0.062 A 
HETATM   24  C   UNL     1      41.256 -15.423  -1.232  1.00  0.00     0.048 C 
HETATM   25  C   UNL     1      41.079 -14.444   1.077  1.00  0.00     0.009 A 
HETATM   26  C   UNL     1      40.881 -14.581   2.454  1.00  0.00     0.030 A 
ENDBRANCH  17  20
ENDBRANCH  15  16
ENDBRANCH   1  15
TORSDOF 3
ENDMDL
MODEL 4
REMARK VINA RESULT:      -7.6      2.389      4.345
REMARK  3 active torsions:
REMARK  status: ('A' for Active; 'I' for Inactive)
REMARK    1  A    between atoms: C_5  and  N_6 
REMARK       I    between atoms: N_6  and  C_7 
REMARK    2  A    between atoms: C_7  and  C_8 
REMARK    3  A    between atoms: C_8  and  C_9 
ROOT
HETATM    1  C   UNL     1      41.736 -16.180   3.907  1.00  0.00     0.286 C 
HETATM    2  N   UNL     1      41.391 -14.796   3.357  1.00  0.00    -0.056 N 
HETATM    3  H   UNL     1      42.055 -14.125   3.762  1.00  0.00     0.278 HD
HETATM    4  H   UNL     1      41.619 -14.804   2.341  1.00  0.00     0.278 HD
HETATM    5  C   UNL     1      39.971 -14.367   3.613  1.00  0.00     0.209 C 
HETATM    6  C   UNL     1      39.733 -14.376   5.143  1.00  0.00     0.115 C 
HETATM    7  N   UNL     1      40.132 -15.649   5.743  1.00  0.00    -0.353 N 
HETATM    8  C   UNL     1      41.181 -16.426   5.320  1.00  0.00     0.249 C 
HETATM    9  O   UNL     1      41.590 -17.341   6.027  1.00  0.00    -0.271 OA
HETATM   10  C   UNL     1      39.730 -12.997   2.984  1.00  0.00     0.035 C 
HETATM   11  C   UNL     1      40.445 -11.862   3.713  1.00  0.00     0.002 C 
HETATM   12  C   UNL     1      40.134 -11.870   5.206  1.00  0.00     0.002 C 
HETATM   13  C   UNL     1      40.457 -13.217   5.846  1.00  0.00     0.027 C 
HETATM   14  H   UNL     1      39.815 -15.863   6.688  1.00  0.00     0.163 HD
ENDROOT
BRANCH   1  15
HETATM   15  C   UNL     1      41.251 -17.301   2.972  1.00  0.00     0.146 C 
BRANCH  15  16
HETATM   16  C   UNL     1      42.139 -17.406   1.762  1.00  0.00     0.224 C 
HETATM   17  N   UNL     1      43.244 -18.189   1.726  1.00  0.00    -0.327 N 
HETATM   18  H   UNL     1      43.778 -18.043   0.872  1.00  0.00     0.169 HD
HETATM   19  O   UNL     1      41.829 -16.767   0.746  1.00  0.00    -0.273 OA
BRANCH  17  20
HETATM   20  C   UNL     1      43.785 -19.158   2.593  1.00  0.00     0.034 A 
HETATM   21  C   UNL     1      44.226 -18.930   3.895  1.00  0.00     0.030 A 
HETATM   22  C   UNL     1      44.709 -19.987   4.679  1.00  0.00     0.009 A 
HETATM   23  C   UNL     1      44.767 -21.288   4.175  1.00  0.00    -0.062 A 
HETATM   24  C   UNL     1      45.237 -22.424   5.035  1.00  0.00     0.048 C 
HETATM   25  C   UNL     1      44.308 -21.524   2.879  1.00  0.00     0.009 A 
HETATM   26  C   UNL     1      43.824 -20.470   2.099  1.00  0.00     0.030 A 
ENDBRANCH  17  20
ENDBRANCH  15  16
ENDBRANCH   1  15
TORSDOF 3
ENDMDL
MODEL 5
REMARK VINA RESULT:      -7.4      4.681      6.760
REMARK  3 active torsions:
REMARK  status: ('A' for Active; 'I' for Inactive)
REMARK    1  A    between atoms: C_5  and  N_6 
REMARK       I    between atoms: N_6  and  C_7 
REMARK    2  A    between atoms: C_7  and  C_8 
REMARK    3  A    between atoms: C_8  and  C_9 
ROOT
HETATM    1  C   UNL     1      40.805 -14.301  -1.408  1.00  0.00     0.286 C 
HETATM    2  N   UNL     1      41.198 -12.847  -1.143  1.00  0.00    -0.056 N 
HETATM    3  H   UNL     1      40.541 -12.248  -1.656  1.00  0.00     0.278 HD
HETATM    4  H   UNL     1      40.996 -12.653  -0.140  1.00  0.00     0.278 HD
HETATM    5  C   UNL     1      42.622 -12.518  -1.504  1.00  0.00     0.209 C 
HETATM    6  C   UNL     1      42.821 -12.828  -3.009  1.00  0.00     0.115 C 
HETATM    7  N   UNL     1      42.375 -14.179  -3.344  1.00  0.00    -0.353 N 
HETATM    8  C   UNL     1      41.318 -14.829  -2.758  1.00  0.00     0.249 C 
HETATM    9  O   UNL     1      40.868 -15.851  -3.267  1.00  0.00    -0.271 OA
HETATM   10  C   UNL     1      42.913 -11.060  -1.157  1.00  0.00     0.035 C 
HETATM   11  C   UNL     1      42.209 -10.066  -2.076  1.00  0.00     0.002 C 
HETATM   12  C   UNL     1      42.481 -10.369  -3.546  1.00  0.00     0.002 C 
HETATM   13  C   UNL     1      42.108 -11.804  -3.908  1.00  0.00     0.027 C 
HETATM   14  H   UNL     1      42.662 -14.581  -4.236  1.00  0.00     0.163 HD
ENDROOT
BRANCH   1  15
HETATM   15  C   UNL     1      41.286 -15.235  -0.285  1.00  0.00     0.146 C 
BRANCH  15  16
HETATM   16  C   UNL     1      40.303 -15.245   0.855  1.00  0.00     0.224 C 
HETATM   17  N   UNL     1      40.381 -16.122   1.886  1.00  0.00    -0.327 N 
HETATM   18  H   UNL     1      39.570 -16.053   2.497  1.00  0.00     0.169 HD
HETATM   19  O   UNL     1      39.401 -14.396   0.864  1.00  0.00    -0.273 OA
BRANCH  17  20
HETATM   20  C   UNL     1      41.338 -17.072   2.292  1.00  0.00     0.034 A 
HETATM   21  C   UNL     1      41.914 -18.046   1.478  1.00  0.00     0.030 A 
HETATM   22  C   UNL     1      42.891 -18.913   1.987  1.00  0.00     0.009 A 
HETATM   23  C   UNL     1      43.304 -18.828   3.319  1.00  0.00    -0.062 A 
HETATM   24  C   UNL     1      44.385 -19.725   3.845  1.00  0.00     0.048 C 
HETATM   25  C   UNL     1      42.743 -17.843   4.131  1.00  0.00     0.009 A 
HETATM   26  C   UNL     1      41.772 -16.976   3.622  1.00  0.00     0.030 A 
ENDBRANCH  17  20
ENDBRANCH  15  16
ENDBRANCH   1  15
TORSDOF 3
ENDMDL
MODEL 6
REMARK VINA RESULT:      -7.4      2.011      4.904
REMARK  3 active torsions:
REMARK  status: ('A' for Active; 'I' for Inactive)
REMARK    1  A    between atoms: C_5  and  N_6 
REMARK       I    between atoms: N_6  and  C_7 
REMARK    2  A    between atoms: C_7  and  C_8 
REMARK    3  A    between atoms: C_8  and  C_9 
ROOT
HETATM    1  C   UNL     1      42.373 -14.816   4.634  1.00  0.00     0.286 C 
HETATM    2  N   UNL     1      42.642 -16.318   4.735  1.00  0.00    -0.056 N 
HETATM    3  H   UNL     1      41.891 -16.731   5.299  1.00  0.00     0.278 HD
HETATM    4  H   UNL     1      42.503 -16.719   3.785  1.00  0.00     0.278 HD
HETATM    5  C   UNL     1      43.993 -16.665   5.302  1.00  0.00     0.209 C 
HETATM    6  C   UNL     1      44.100 -16.037   6.713  1.00  0.00     0.115 C 
HETATM    7  N   UNL     1      43.764 -14.614   6.697  1.00  0.00    -0.353 N 
HETATM    8  C   UNL     1      42.826 -14.035   5.879  1.00  0.00     0.249 C 
HETATM    9  O   UNL     1      42.439 -12.892   6.103  1.00  0.00    -0.271 OA
HETATM   10  C   UNL     1      44.167 -18.182   5.314  1.00  0.00     0.035 C 
HETATM   11  C   UNL     1      43.297 -18.883   6.354  1.00  0.00     0.002 C 
HETATM   12  C   UNL     1      43.479 -18.274   7.741  1.00  0.00     0.002 C 
HETATM   13  C   UNL     1      43.221 -16.770   7.739  1.00  0.00     0.027 C 
HETATM   14  H   UNL     1      44.016 -14.043   7.503  1.00  0.00     0.163 HD
ENDROOT
BRANCH   1  15
HETATM   15  C   UNL     1      43.032 -14.202   3.386  1.00  0.00     0.146 C 
BRANCH  15  16
HETATM   16  C   UNL     1      42.127 -14.330   2.191  1.00  0.00     0.224 C 
HETATM   17  N   UNL     1      42.072 -15.448   1.426  1.00  0.00    -0.327 N 
HETATM   18  H   UNL     1      41.493 -15.307   0.601  1.00  0.00     0.169 HD
HETATM   19  O   UNL     1      41.383 -13.379   1.910  1.00  0.00    -0.273 OA
BRANCH  17  20
HETATM   20  C   UNL     1      42.615 -16.741   1.544  1.00  0.00     0.034 A 
HETATM   21  C   UNL     1      43.971 -17.062   1.500  1.00  0.00     0.030 A 
HETATM   22  C   UNL     1      44.396 -18.387   1.671  1.00  0.00     0.009 A 
HETATM   23  C   UNL     1      43.475 -19.416   1.882  1.00  0.00    -0.062 A 
HETATM   24  C   UNL     1      43.937 -20.824   2.114  1.00  0.00     0.048 C 
HETATM   25  C   UNL     1      42.118 -19.096   1.945  1.00  0.00     0.009 A 
HETATM   26  C   UNL     1      41.696 -17.774   1.778  1.00  0.00     0.030 A 
ENDBRANCH  17  20
ENDBRANCH  15  16
ENDBRANCH   1  15
TORSDOF 3
ENDMDL
MODEL 7
REMARK VINA RESULT:      -7.3      3.748      5.325
REMARK  3 active torsions:
REMARK  status: ('A' for Active; 'I' for Inactive)
REMARK    1  A    between atoms: C_5  and  N_6 
REMARK       I    between atoms: N_6  and  C_7 
REMARK    2  A    between atoms: C_7  and  C_8 
REMARK    3  A    between atoms: C_8  and  C_9 
ROOT
HETATM    1  C   UNL     1      40.603 -13.614   0.843  1.00  0.00     0.286 C 
HETATM    2  N   UNL     1      41.436 -13.144  -0.350  1.00  0.00    -0.056 N 
HETATM    3  H   UNL     1      41.185 -12.167  -0.540  1.00  0.00     0.278 HD
HETATM    4  H   UNL     1      42.427 -13.099  -0.033  1.00  0.00     0.278 HD
HETATM    5  C   UNL     1      41.278 -13.991  -1.584  1.00  0.00     0.209 C 
HETATM    6  C   UNL     1      39.781 -13.988  -1.982  1.00  0.00     0.115 C 
HETATM    7  N   UNL     1      38.923 -14.342  -0.852  1.00  0.00    -0.353 N 
HETATM    8  C   UNL     1      39.170 -14.018   0.458  1.00  0.00     0.249 C 
HETATM    9  O   UNL     1      38.284 -14.140   1.298  1.00  0.00    -0.271 OA
HETATM   10  C   UNL     1      42.185 -13.457  -2.690  1.00  0.00     0.035 C 
HETATM   11  C   UNL     1      41.717 -12.124  -3.267  1.00  0.00     0.002 C 
HETATM   12  C   UNL     1      40.257 -12.183  -3.703  1.00  0.00     0.002 C 
HETATM   13  C   UNL     1      39.343 -12.636  -2.568  1.00  0.00     0.027 C 
HETATM   14  H   UNL     1      37.954 -14.599  -1.037  1.00  0.00     0.163 HD
ENDROOT
BRANCH   1  15
HETATM   15  C   UNL     1      41.276 -14.783   1.583  1.00  0.00     0.146 C 
BRANCH  15  16
HETATM   16  C   UNL     1      42.562 -14.336   2.224  1.00  0.00     0.224 C 
HETATM   17  N   UNL     1      43.467 -15.204   2.740  1.00  0.00    -0.327 N 
HETATM   18  H   UNL     1      44.214 -14.717   3.230  1.00  0.00     0.169 HD
HETATM   19  O   UNL     1      42.815 -13.124   2.256  1.00  0.00    -0.273 OA
BRANCH  17  20
HETATM   20  C   UNL     1      43.600 -16.606   2.720  1.00  0.00     0.034 A 
HETATM   21  C   UNL     1      43.516 -17.447   3.829  1.00  0.00     0.030 A 
HETATM   22  C   UNL     1      43.624 -18.836   3.679  1.00  0.00     0.009 A 
HETATM   23  C   UNL     1      43.824 -19.410   2.421  1.00  0.00    -0.062 A 
HETATM   24  C   UNL     1      43.890 -20.900   2.258  1.00  0.00     0.048 C 
HETATM   25  C   UNL     1      43.891 -18.573   1.307  1.00  0.00     0.009 A 
HETATM   26  C   UNL     1      43.779 -17.188   1.457  1.00  0.00     0.030 A 
ENDBRANCH  17  20
ENDBRANCH  15  16
ENDBRANCH   1  15
TORSDOF 3
ENDMDL
MODEL 8
REMARK VINA RESULT:      -7.2      2.307      5.350
REMARK  3 active torsions:
REMARK  status: ('A' for Active; 'I' for Inactive)
REMARK    1  A    between atoms: C_5  and  N_6 
REMARK       I    between atoms: N_6  and  C_7 
REMARK    2  A    between atoms: C_7  and  C_8 
REMARK    3  A    between atoms: C_8  and  C_9 
ROOT
HETATM    1  C   UNL     1      44.497 -18.508   6.094  1.00  0.00     0.286 C 
HETATM    2  N   UNL     1      44.332 -17.260   5.226  1.00  0.00    -0.056 N 
HETATM    3  H   UNL     1      45.130 -16.642   5.414  1.00  0.00     0.278 HD
HETATM    4  H   UNL     1      44.461 -17.556   4.237  1.00  0.00     0.278 HD
HETATM    5  C   UNL     1      43.030 -16.534   5.432  1.00  0.00     0.209 C 
HETATM    6  C   UNL     1      42.935 -16.128   6.924  1.00  0.00     0.115 C 
HETATM    7  N   UNL     1      43.176 -17.266   7.809  1.00  0.00    -0.353 N 
HETATM    8  C   UNL     1      44.042 -18.299   7.548  1.00  0.00     0.249 C 
HETATM    9  O   UNL     1      44.360 -19.072   8.445  1.00  0.00    -0.271 OA
HETATM   10  C   UNL     1      42.957 -15.338   4.487  1.00  0.00     0.035 C 
HETATM   11  C   UNL     1      43.910 -14.207   4.866  1.00  0.00     0.002 C 
HETATM   12  C   UNL     1      43.741 -13.796   6.325  1.00  0.00     0.002 C 
HETATM   13  C   UNL     1      43.899 -14.982   7.272  1.00  0.00     0.027 C 
HETATM   14  H   UNL     1      42.917 -17.184   8.791  1.00  0.00     0.163 HD
ENDROOT
BRANCH   1  15
HETATM   15  C   UNL     1      43.753 -19.717   5.501  1.00  0.00     0.146 C 
BRANCH  15  16
HETATM   16  C   UNL     1      44.567 -20.360   4.411  1.00  0.00     0.224 C 
HETATM   17  N   UNL     1      44.462 -20.004   3.108  1.00  0.00    -0.327 N 
HETATM   18  H   UNL     1      45.002 -20.623   2.507  1.00  0.00     0.169 HD
HETATM   19  O   UNL     1      45.386 -21.235   4.725  1.00  0.00    -0.273 OA
BRANCH  17  20
HETATM   20  C   UNL     1      43.796 -18.966   2.427  1.00  0.00     0.034 A 
HETATM   21  C   UNL     1      44.408 -17.887   1.792  1.00  0.00     0.030 A 
HETATM   22  C   UNL     1      43.640 -16.933   1.108  1.00  0.00     0.009 A 
HETATM   23  C   UNL     1      42.248 -17.037   1.053  1.00  0.00    -0.062 A 
HETATM   24  C   UNL     1      41.434 -16.042   0.280  1.00  0.00     0.048 C 
HETATM   25  C   UNL     1      41.634 -18.126   1.673  1.00  0.00     0.009 A 
HETATM   26  C   UNL     1      42.401 -19.078   2.351  1.00  0.00     0.030 A 
ENDBRANCH  17  20
ENDBRANCH  15  16
ENDBRANCH   1  15
TORSDOF 3
ENDMDL
MODEL 9
REMARK VINA RESULT:      -7.2      2.646      6.786
REMARK  3 active torsions:
REMARK  status: ('A' for Active; 'I' for Inactive)
REMARK    1  A    between atoms: C_5  and  N_6 
REMARK       I    between atoms: N_6  and  C_7 
REMARK    2  A    between atoms: C_7  and  C_8 
REMARK    3  A    between atoms: C_8  and  C_9 
ROOT
HETATM    1  C   UNL     1      43.041 -18.062   3.650  1.00  0.00     0.286 C 
HETATM    2  N   UNL     1      43.347 -19.438   3.058  1.00  0.00    -0.056 N 
HETATM    3  H   UNL     1      42.712 -20.115   3.498  1.00  0.00     0.278 HD
HETATM    4  H   UNL     1      43.049 -19.415   2.060  1.00  0.00     0.278 HD
HETATM    5  C   UNL     1      44.781 -19.870   3.208  1.00  0.00     0.209 C 
HETATM    6  C   UNL     1      45.124 -19.883   4.718  1.00  0.00     0.115 C 
HETATM    7  N   UNL     1      44.769 -18.620   5.363  1.00  0.00    -0.353 N 
HETATM    8  C   UNL     1      43.693 -17.837   5.025  1.00  0.00     0.249 C 
HETATM    9  O   UNL     1      43.335 -16.933   5.772  1.00  0.00    -0.271 OA
HETATM   10  C   UNL     1      44.977 -21.230   2.544  1.00  0.00     0.035 C 
HETATM   11  C   UNL     1      44.314 -22.376   3.304  1.00  0.00     0.002 C 
HETATM   12  C   UNL     1      44.727 -22.390   4.772  1.00  0.00     0.002 C 
HETATM   13  C   UNL     1      44.450 -21.053   5.453  1.00  0.00     0.027 C 
HETATM   14  H   UNL     1      45.150 -18.419   6.287  1.00  0.00     0.163 HD
ENDROOT
BRANCH   1  15
HETATM   15  C   UNL     1      43.462 -16.927   2.701  1.00  0.00     0.146 C 
BRANCH  15  16
HETATM   16  C   UNL     1      43.064 -17.244   1.285  1.00  0.00     0.224 C 
HETATM   17  N   UNL     1      41.966 -16.713   0.693  1.00  0.00    -0.327 N 
HETATM   18  H   UNL     1      41.796 -17.129  -0.220  1.00  0.00     0.169 HD
HETATM   19  O   UNL     1      43.786 -18.004   0.625  1.00  0.00    -0.273 OA
BRANCH  17  20
HETATM   20  C   UNL     1      41.047 -15.710   1.057  1.00  0.00     0.034 A 
HETATM   21  C   UNL     1      39.962 -15.875   1.917  1.00  0.00     0.030 A 
HETATM   22  C   UNL     1      39.136 -14.788   2.238  1.00  0.00     0.009 A 
HETATM   23  C   UNL     1      39.375 -13.520   1.702  1.00  0.00    -0.062 A 
HETATM   24  C   UNL     1      38.520 -12.350   2.088  1.00  0.00     0.048 C 
HETATM   25  C   UNL     1      40.472 -13.348   0.856  1.00  0.00     0.009 A 
HETATM   26  C   UNL     1      41.296 -14.431   0.539  1.00  0.00     0.030 A 
ENDBRANCH  17  20
ENDBRANCH  15  16
ENDBRANCH   1  15
TORSDOF 3
ENDMDL
MODEL 10
REMARK VINA RESULT:      -7.2      2.338      6.669
REMARK  3 active torsions:
REMARK  status: ('A' for Active; 'I' for Inactive)
REMARK    1  A    between atoms: C_5  and  N_6 
REMARK       I    between atoms: N_6  and  C_7 
REMARK    2  A    between atoms: C_7  and  C_8 
REMARK    3  A    between atoms: C_8  and  C_9 
ROOT
HETATM    1  C   UNL     1      42.896 -17.194   4.379  1.00  0.00     0.286 C 
HETATM    2  N   UNL     1      43.107 -18.688   4.629  1.00  0.00    -0.056 N 
HETATM    3  H   UNL     1      42.350 -19.010   5.243  1.00  0.00     0.278 HD
HETATM    4  H   UNL     1      42.934 -19.177   3.726  1.00  0.00     0.278 HD
HETATM    5  C   UNL     1      44.453 -19.033   5.207  1.00  0.00     0.209 C 
HETATM    6  C   UNL     1      44.612 -18.269   6.546  1.00  0.00     0.115 C 
HETATM    7  N   UNL     1      44.333 -16.843   6.389  1.00  0.00    -0.353 N 
HETATM    8  C   UNL     1      43.403 -16.310   5.531  1.00  0.00     0.249 C 
HETATM    9  O   UNL     1      43.067 -15.136   5.643  1.00  0.00    -0.271 OA
HETATM   10  C   UNL     1      44.566 -20.546   5.372  1.00  0.00     0.035 C 
HETATM   11  C   UNL     1      43.688 -21.101   6.491  1.00  0.00     0.002 C 
HETATM   12  C   UNL     1      43.921 -20.363   7.805  1.00  0.00     0.002 C 
HETATM   13  C   UNL     1      43.724 -18.857   7.654  1.00  0.00     0.027 C 
HETATM   14  H   UNL     1      44.623 -16.204   7.129  1.00  0.00     0.163 HD
ENDROOT
BRANCH   1  15
HETATM   15  C   UNL     1      43.556 -16.738   3.065  1.00  0.00     0.146 C 
BRANCH  15  16
HETATM   16  C   UNL     1      43.166 -17.648   1.932  1.00  0.00     0.224 C 
HETATM   17  N   UNL     1      42.069 -17.436   1.163  1.00  0.00    -0.327 N 
HETATM   18  H   UNL     1      41.905 -18.212   0.526  1.00  0.00     0.169 HD
HETATM   19  O   UNL     1      43.894 -18.617   1.675  1.00  0.00    -0.273 OA
BRANCH  17  20
HETATM   20  C   UNL     1      41.145 -16.380   1.046  1.00  0.00     0.034 A 
HETATM   21  C   UNL     1      41.136 -15.413   0.042  1.00  0.00     0.030 A 
HETATM   22  C   UNL     1      40.136 -14.431   0.008  1.00  0.00     0.009 A 
HETATM   23  C   UNL     1      39.132 -14.393   0.978  1.00  0.00    -0.062 A 
HETATM   24  C   UNL     1      38.036 -13.371   0.909  1.00  0.00     0.048 C 
HETATM   25  C   UNL     1      39.127 -15.371   1.974  1.00  0.00     0.009 A 
HETATM   26  C   UNL     1      40.122 -16.352   2.005  1.00  0.00     0.030 A 
ENDBRANCH  17  20
ENDBRANCH  15  16
ENDBRANCH   1  15
TORSDOF 3
ENDMDL
