MODEL 1
REMARK VINA RESULT:      -8.8      0.000      0.000
REMARK  6 active torsions:
REMARK  status: ('A' for Active; 'I' for Inactive)
REMARK    1  A    between atoms: C_2  and  C_3 
REMARK    2  A    between atoms: C_3  and  C_4 
REMARK    3  A    between atoms: C_3  and  C_10 
REMARK    4  A    between atoms: C_10  and  C_11 
REMARK       I    between atoms: C_11  and  N_12 
REMARK    5  A    between atoms: N_12  and  C_13 
REMARK    6  A    between atoms: C_20  and  C_21 
REMARK       I    between atoms: C_21  and  N_22 
ROOT
HETATM    1  C   UNL     1      40.129 -15.571   1.530  1.00  0.00     0.035 A 
HETATM    2  C   UNL     1      40.708 -15.400   0.265  1.00  0.00     0.046 A 
HETATM    3  C   UNL     1      40.183 -14.428  -0.617  1.00  0.00     0.030 A 
HETATM    4  C   UNL     1      39.097 -13.666  -0.206  1.00  0.00     0.063 A 
HETATM    5  N   UNL     1      38.816 -12.838  -1.255  1.00  0.00    -0.277 N 
HETATM    6  H   UNL     1      38.077 -12.145  -1.310  1.00  0.00     0.189 HD
HETATM    7  N   UNL     1      39.630 -12.983  -2.313  1.00  0.00    -0.168 NA
HETATM    8  C   UNL     1      40.484 -13.961  -1.933  1.00  0.00     0.156 A 
HETATM    9  C   UNL     1      38.499 -13.805   1.047  1.00  0.00     0.034 A 
HETATM   10  C   UNL     1      39.042 -14.769   1.906  1.00  0.00     0.032 A 
ENDROOT
BRANCH   1  11
HETATM   11  N   UNL     1      40.578 -16.512   2.480  1.00  0.00    -0.327 N 
HETATM   12  C   UNL     1      41.430 -16.293   3.554  1.00  0.00     0.222 C 
HETATM   13  O   UNL     1      41.961 -15.232   3.853  1.00  0.00    -0.273 OA
HETATM   14  H   UNL     1      40.287 -17.468   2.327  1.00  0.00     0.169 HD
BRANCH  12  15
HETATM   15  C   UNL     1      41.659 -17.576   4.343  1.00  0.00     0.113 C 
BRANCH  15  16
HETATM   16  C   UNL     1      43.151 -17.887   4.609  1.00  0.00     0.030 C 
BRANCH  16  17
HETATM   17  C   UNL     1      43.519 -17.919   6.127  1.00  0.00    -0.014 C 
HETATM   18  C   UNL     1      42.397 -17.334   6.994  1.00  0.00     0.010 C 
HETATM   19  C   UNL     1      44.846 -17.249   6.492  1.00  0.00     0.010 C 
ENDBRANCH  16  17
BRANCH  16  20
HETATM   20  C   UNL     1      43.588 -19.137   3.845  1.00  0.00    -0.053 A 
HETATM   21  C   UNL     1      43.213 -19.372   2.513  1.00  0.00     0.007 A 
HETATM   22  C   UNL     1      43.638 -20.520   1.842  1.00  0.00     0.001 A 
HETATM   23  C   UNL     1      44.446 -21.451   2.492  1.00  0.00     0.000 A 
HETATM   24  C   UNL     1      44.826 -21.234   3.813  1.00  0.00     0.001 A 
HETATM   25  C   UNL     1      44.401 -20.086   4.485  1.00  0.00     0.007 A 
ENDBRANCH  16  20
ENDBRANCH  15  16
ENDBRANCH  12  15
ENDBRANCH   1  11
BRANCH   8  26
HETATM   26  C   UNL     1      41.559 -14.419  -2.825  1.00  0.00     0.270 C 
HETATM   27  N   UNL     1      42.669 -13.618  -2.817  1.00  0.00    -0.365 N 
HETATM   28  H   UNL     1      42.674 -12.803  -2.215  1.00  0.00     0.159 HD
HETATM   29  H   UNL     1      43.461 -13.858  -3.390  1.00  0.00     0.159 HD
HETATM   30  O   UNL     1      41.508 -15.424  -3.526  1.00  0.00    -0.266 OA
ENDBRANCH   8  26
TORSDOF 6
ENDMDL
MODEL 2
REMARK VINA RESULT:      -8.3      1.371      3.275
REMARK  6 active torsions:
REMARK  status: ('A' for Active; 'I' for Inactive)
REMARK    1  A    between atoms: C_2  and  C_3 
REMARK    2  A    between atoms: C_3  and  C_4 
REMARK    3  A    between atoms: C_3  and  C_10 
REMARK    4  A    between atoms: C_10  and  C_11 
REMARK       I    between atoms: C_11  and  N_12 
REMARK    5  A    between atoms: N_12  and  C_13 
REMARK    6  A    between atoms: C_20  and  C_21 
REMARK       I    between atoms: C_21  and  N_22 
ROOT
HETATM    1  C   UNL     1      41.672 -16.989   1.132  1.00  0.00     0.035 A 
HETATM    2  C   UNL     1      41.661 -16.417  -0.149  1.00  0.00     0.046 A 
HETATM    3  C   UNL     1      40.704 -15.426  -0.462  1.00  0.00     0.030 A 
HETATM    4  C   UNL     1      39.789 -15.046   0.511  1.00  0.00     0.063 A 
HETATM    5  N   UNL     1      39.002 -14.099  -0.080  1.00  0.00    -0.277 N 
HETATM    6  H   UNL     1      38.222 -13.601   0.336  1.00  0.00     0.189 HD
HETATM    7  N   UNL     1      39.330 -13.816  -1.352  1.00  0.00    -0.168 NA
HETATM    8  C   UNL     1      40.382 -14.628  -1.602  1.00  0.00     0.156 A 
HETATM    9  C   UNL     1      39.773 -15.589   1.797  1.00  0.00     0.034 A 
HETATM   10  C   UNL     1      40.736 -16.564   2.085  1.00  0.00     0.032 A 
ENDROOT
BRANCH   1  11
HETATM   11  N   UNL     1      42.585 -17.983   1.541  1.00  0.00    -0.327 N 
HETATM   12  C   UNL     1      43.787 -17.806   2.213  1.00  0.00     0.222 C 
HETATM   13  O   UNL     1      44.278 -16.737   2.551  1.00  0.00    -0.273 OA
HETATM   14  H   UNL     1      42.361 -18.930   1.265  1.00  0.00     0.169 HD
BRANCH  12  15
HETATM   15  C   UNL     1      44.471 -19.143   2.475  1.00  0.00     0.113 C 
BRANCH  15  16
HETATM   16  C   UNL     1      43.954 -19.869   3.739  1.00  0.00     0.030 C 
BRANCH  16  17
HETATM   17  C   UNL     1      44.722 -21.192   4.054  1.00  0.00    -0.014 C 
HETATM   18  C   UNL     1      44.446 -22.272   2.999  1.00  0.00     0.010 C 
HETATM   19  C   UNL     1      44.480 -21.772   5.451  1.00  0.00     0.010 C 
ENDBRANCH  16  17
BRANCH  16  20
HETATM   20  C   UNL     1      43.880 -18.906   4.924  1.00  0.00    -0.053 A 
HETATM   21  C   UNL     1      45.025 -18.463   5.604  1.00  0.00     0.007 A 
HETATM   22  C   UNL     1      44.922 -17.575   6.677  1.00  0.00     0.001 A 
HETATM   23  C   UNL     1      43.672 -17.116   7.086  1.00  0.00     0.000 A 
HETATM   24  C   UNL     1      42.525 -17.546   6.424  1.00  0.00     0.001 A 
HETATM   25  C   UNL     1      42.628 -18.434   5.351  1.00  0.00     0.007 A 
ENDBRANCH  16  20
ENDBRANCH  15  16
ENDBRANCH  12  15
ENDBRANCH   1  11
BRANCH   8  26
HETATM   26  C   UNL     1      41.054 -14.618  -2.910  1.00  0.00     0.270 C 
HETATM   27  N   UNL     1      42.294 -14.039  -2.895  1.00  0.00    -0.365 N 
HETATM   28  H   UNL     1      42.651 -13.679  -2.019  1.00  0.00     0.159 HD
HETATM   29  H   UNL     1      42.833 -13.995  -3.745  1.00  0.00     0.159 HD
HETATM   30  O   UNL     1      40.582 -15.080  -3.943  1.00  0.00    -0.266 OA
ENDBRANCH   8  26
TORSDOF 6
ENDMDL
MODEL 3
REMARK VINA RESULT:      -8.3      1.892      2.401
REMARK  6 active torsions:
REMARK  status: ('A' for Active; 'I' for Inactive)
REMARK    1  A    between atoms: C_2  and  C_3 
REMARK    2  A    between atoms: C_3  and  C_4 
REMARK    3  A    between atoms: C_3  and  C_10 
REMARK    4  A    between atoms: C_10  and  C_11 
REMARK       I    between atoms: C_11  and  N_12 
REMARK    5  A    between atoms: N_12  and  C_13 
REMARK    6  A    between atoms: C_20  and  C_21 
REMARK       I    between atoms: C_21  and  N_22 
ROOT
HETATM    1  C   UNL     1      41.399 -14.891   0.041  1.00  0.00     0.035 A 
HETATM    2  C   UNL     1      40.715 -15.096  -1.167  1.00  0.00     0.046 A 
HETATM    3  C   UNL     1      39.655 -14.232  -1.523  1.00  0.00     0.030 A 
HETATM    4  C   UNL     1      39.312 -13.200  -0.660  1.00  0.00     0.063 A 
HETATM    5  N   UNL     1      38.266 -12.557  -1.260  1.00  0.00    -0.277 N 
HETATM    6  H   UNL     1      37.757 -11.753  -0.909  1.00  0.00     0.189 HD
HETATM    7  N   UNL     1      37.903 -13.071  -2.446  1.00  0.00    -0.168 NA
HETATM    8  C   UNL     1      38.754 -14.107  -2.624  1.00  0.00     0.156 A 
HETATM    9  C   UNL     1      39.972 -12.963   0.547  1.00  0.00     0.034 A 
HETATM   10  C   UNL     1      41.024 -13.828   0.874  1.00  0.00     0.032 A 
ENDROOT
BRANCH   1  11
HETATM   11  N   UNL     1      42.468 -15.697   0.485  1.00  0.00    -0.327 N 
HETATM   12  C   UNL     1      42.414 -17.012   0.924  1.00  0.00     0.222 C 
HETATM   13  O   UNL     1      41.409 -17.703   1.021  1.00  0.00    -0.273 OA
HETATM   14  H   UNL     1      43.371 -15.242   0.540  1.00  0.00     0.169 HD
BRANCH  12  15
HETATM   15  C   UNL     1      43.798 -17.519   1.310  1.00  0.00     0.113 C 
BRANCH  15  16
HETATM   16  C   UNL     1      43.907 -17.979   2.782  1.00  0.00     0.030 C 
BRANCH  16  17
HETATM   17  C   UNL     1      42.775 -17.411   3.696  1.00  0.00    -0.014 C 
HETATM   18  C   UNL     1      43.163 -16.056   4.303  1.00  0.00     0.010 C 
HETATM   19  C   UNL     1      42.301 -18.350   4.810  1.00  0.00     0.010 C 
ENDBRANCH  16  17
BRANCH  16  20
HETATM   20  C   UNL     1      44.059 -19.497   2.866  1.00  0.00    -0.053 A 
HETATM   21  C   UNL     1      43.549 -20.358   1.881  1.00  0.00     0.007 A 
HETATM   22  C   UNL     1      43.715 -21.741   1.984  1.00  0.00     0.001 A 
HETATM   23  C   UNL     1      44.394 -22.284   3.072  1.00  0.00     0.000 A 
HETATM   24  C   UNL     1      44.905 -21.445   4.058  1.00  0.00     0.001 A 
HETATM   25  C   UNL     1      44.740 -20.063   3.956  1.00  0.00     0.007 A 
ENDBRANCH  16  20
ENDBRANCH  15  16
ENDBRANCH  12  15
ENDBRANCH   1  11
BRANCH   8  26
HETATM   26  C   UNL     1      38.692 -14.941  -3.834  1.00  0.00     0.270 C 
HETATM   27  N   UNL     1      37.524 -14.816  -4.537  1.00  0.00    -0.365 N 
HETATM   28  H   UNL     1      36.817 -14.178  -4.193  1.00  0.00     0.159 HD
HETATM   29  H   UNL     1      37.395 -15.342  -5.386  1.00  0.00     0.159 HD
HETATM   30  O   UNL     1      39.584 -15.690  -4.215  1.00  0.00    -0.266 OA
ENDBRANCH   8  26
TORSDOF 6
ENDMDL
MODEL 4
REMARK VINA RESULT:      -8.2      5.248      8.440
REMARK  6 active torsions:
REMARK  status: ('A' for Active; 'I' for Inactive)
REMARK    1  A    between atoms: C_2  and  C_3 
REMARK    2  A    between atoms: C_3  and  C_4 
REMARK    3  A    between atoms: C_3  and  C_10 
REMARK    4  A    between atoms: C_10  and  C_11 
REMARK       I    between atoms: C_11  and  N_12 
REMARK    5  A    between atoms: N_12  and  C_13 
REMARK    6  A    between atoms: C_20  and  C_21 
REMARK       I    between atoms: C_21  and  N_22 
ROOT
HETATM    1  C   UNL     1      44.741 -13.826   7.150  1.00  0.00     0.035 A 
HETATM    2  C   UNL     1      44.058 -13.263   8.238  1.00  0.00     0.046 A 
HETATM    3  C   UNL     1      44.694 -12.277   9.026  1.00  0.00     0.030 A 
HETATM    4  C   UNL     1      45.989 -11.892   8.704  1.00  0.00     0.063 A 
HETATM    5  N   UNL     1      46.331 -10.952   9.633  1.00  0.00    -0.277 N 
HETATM    6  H   UNL     1      47.212 -10.454   9.707  1.00  0.00     0.189 HD
HETATM    7  N   UNL     1      45.369 -10.677  10.528  1.00  0.00    -0.168 NA
HETATM    8  C   UNL     1      44.348 -11.487  10.164  1.00  0.00     0.156 A 
HETATM    9  C   UNL     1      46.698 -12.427   7.627  1.00  0.00     0.034 A 
HETATM   10  C   UNL     1      46.043 -13.397   6.856  1.00  0.00     0.032 A 
ENDROOT
BRANCH   1  11
HETATM   11  N   UNL     1      44.195 -14.814   6.305  1.00  0.00    -0.327 N 
HETATM   12  C   UNL     1      43.566 -14.631   5.081  1.00  0.00     0.222 C 
HETATM   13  O   UNL     1      43.357 -13.560   4.527  1.00  0.00    -0.273 OA
HETATM   14  H   UNL     1      44.218 -15.761   6.660  1.00  0.00     0.169 HD
BRANCH  12  15
HETATM   15  C   UNL     1      43.126 -15.963   4.486  1.00  0.00     0.113 C 
BRANCH  15  16
HETATM   16  C   UNL     1      43.532 -17.190   5.335  1.00  0.00     0.030 C 
BRANCH  16  17
HETATM   17  C   UNL     1      42.473 -17.579   6.414  1.00  0.00    -0.014 C 
HETATM   18  C   UNL     1      41.150 -16.830   6.205  1.00  0.00     0.010 C 
HETATM   19  C   UNL     1      42.927 -17.412   7.867  1.00  0.00     0.010 C 
ENDBRANCH  16  17
BRANCH  16  20
HETATM   20  C   UNL     1      43.950 -18.355   4.437  1.00  0.00    -0.053 A 
HETATM   21  C   UNL     1      44.696 -19.443   4.917  1.00  0.00     0.007 A 
HETATM   22  C   UNL     1      45.051 -20.495   4.070  1.00  0.00     0.001 A 
HETATM   23  C   UNL     1      44.666 -20.477   2.732  1.00  0.00     0.000 A 
HETATM   24  C   UNL     1      43.927 -19.405   2.239  1.00  0.00     0.001 A 
HETATM   25  C   UNL     1      43.571 -18.352   3.084  1.00  0.00     0.007 A 
ENDBRANCH  16  20
ENDBRANCH  15  16
ENDBRANCH  12  15
ENDBRANCH   1  11
BRANCH   8  26
HETATM   26  C   UNL     1      43.077 -11.483  10.903  1.00  0.00     0.270 C 
HETATM   27  N   UNL     1      43.123 -12.151  12.096  1.00  0.00    -0.365 N 
HETATM   28  H   UNL     1      43.997 -12.578  12.379  1.00  0.00     0.159 HD
HETATM   29  H   UNL     1      42.300 -12.193  12.676  1.00  0.00     0.159 HD
HETATM   30  O   UNL     1      42.047 -10.938  10.522  1.00  0.00    -0.266 OA
ENDBRANCH   8  26
TORSDOF 6
ENDMDL
MODEL 5
REMARK VINA RESULT:      -8.1      1.883      2.981
REMARK  6 active torsions:
REMARK  status: ('A' for Active; 'I' for Inactive)
REMARK    1  A    between atoms: C_2  and  C_3 
REMARK    2  A    between atoms: C_3  and  C_4 
REMARK    3  A    between atoms: C_3  and  C_10 
REMARK    4  A    between atoms: C_10  and  C_11 
REMARK       I    between atoms: C_11  and  N_12 
REMARK    5  A    between atoms: N_12  and  C_13 
REMARK    6  A    between atoms: C_20  and  C_21 
REMARK       I    between atoms: C_21  and  N_22 
ROOT
HETATM    1  C   UNL     1      41.028 -16.192   1.522  1.00  0.00     0.035 A 
HETATM    2  C   UNL     1      40.083 -15.168   1.680  1.00  0.00     0.046 A 
HETATM    3  C   UNL     1      39.726 -14.370   0.569  1.00  0.00     0.030 A 
HETATM    4  C   UNL     1      40.328 -14.620  -0.657  1.00  0.00     0.063 A 
HETATM    5  N   UNL     1      39.799 -13.699  -1.516  1.00  0.00    -0.277 N 
HETATM    6  H   UNL     1      40.014 -13.583  -2.500  1.00  0.00     0.189 HD
HETATM    7  N   UNL     1      38.894 -12.877  -0.962  1.00  0.00    -0.168 NA
HETATM    8  C   UNL     1      38.835 -13.280   0.327  1.00  0.00     0.156 A 
HETATM    9  C   UNL     1      41.268 -15.633  -0.853  1.00  0.00     0.034 A 
HETATM   10  C   UNL     1      41.600 -16.415   0.261  1.00  0.00     0.032 A 
ENDROOT
BRANCH   1  11
HETATM   11  N   UNL     1      41.450 -17.041   2.567  1.00  0.00    -0.327 N 
HETATM   12  C   UNL     1      42.569 -16.898   3.376  1.00  0.00     0.222 C 
HETATM   13  O   UNL     1      43.405 -16.007   3.306  1.00  0.00    -0.273 OA
HETATM   14  H   UNL     1      40.900 -17.879   2.705  1.00  0.00     0.169 HD
BRANCH  12  15
HETATM   15  C   UNL     1      42.660 -18.031   4.391  1.00  0.00     0.113 C 
BRANCH  15  16
HETATM   16  C   UNL     1      44.076 -18.639   4.521  1.00  0.00     0.030 C 
BRANCH  16  17
HETATM   17  C   UNL     1      44.566 -18.764   5.999  1.00  0.00    -0.014 C 
HETATM   18  C   UNL     1      43.483 -19.362   6.906  1.00  0.00     0.010 C 
HETATM   19  C   UNL     1      45.096 -17.470   6.624  1.00  0.00     0.010 C 
ENDBRANCH  16  17
BRANCH  16  20
HETATM   20  C   UNL     1      44.180 -19.942   3.729  1.00  0.00    -0.053 A 
HETATM   21  C   UNL     1      44.721 -21.114   4.279  1.00  0.00     0.007 A 
HETATM   22  C   UNL     1      44.792 -22.291   3.529  1.00  0.00     0.001 A 
HETATM   23  C   UNL     1      44.322 -22.313   2.218  1.00  0.00     0.000 A 
HETATM   24  C   UNL     1      43.783 -21.159   1.656  1.00  0.00     0.001 A 
HETATM   25  C   UNL     1      43.711 -19.983   2.405  1.00  0.00     0.007 A 
ENDBRANCH  16  20
ENDBRANCH  15  16
ENDBRANCH  12  15
ENDBRANCH   1  11
BRANCH   8  26
HETATM   26  C   UNL     1      37.935 -12.626   1.287  1.00  0.00     0.270 C 
HETATM   27  N   UNL     1      36.626 -12.590   0.888  1.00  0.00    -0.365 N 
HETATM   28  H   UNL     1      36.379 -13.007  -0.001  1.00  0.00     0.159 HD
HETATM   29  H   UNL     1      35.934 -12.169   1.487  1.00  0.00     0.159 HD
HETATM   30  O   UNL     1      38.283 -12.147   2.361  1.00  0.00    -0.266 OA
ENDBRANCH   8  26
TORSDOF 6
ENDMDL
MODEL 6
REMARK VINA RESULT:      -8.1      3.396      5.162
REMARK  6 active torsions:
REMARK  status: ('A' for Active; 'I' for Inactive)
REMARK    1  A    between atoms: C_2  and  C_3 
REMARK    2  A    between atoms: C_3  and  C_4 
REMARK    3  A    between atoms: C_3  and  C_10 
REMARK    4  A    between atoms: C_10  and  C_11 
REMARK       I    between atoms: C_11  and  N_12 
REMARK    5  A    between atoms: N_12  and  C_13 
REMARK    6  A    between atoms: C_20  and  C_21 
REMARK       I    between atoms: C_21  and  N_22 
ROOT
HETATM    1  C   UNL     1      40.225 -14.688   4.016  1.00  0.00     0.035 A 
HETATM    2  C   UNL     1      40.166 -13.926   5.192  1.00  0.00     0.046 A 
HETATM    3  C   UNL     1      39.622 -12.622   5.151  1.00  0.00     0.030 A 
HETATM    4  C   UNL     1      39.163 -12.125   3.938  1.00  0.00     0.063 A 
HETATM    5  N   UNL     1      38.715 -10.863   4.210  1.00  0.00    -0.277 N 
HETATM    6  H   UNL     1      38.313 -10.200   3.555  1.00  0.00     0.189 HD
HETATM    7  N   UNL     1      38.828 -10.496   5.496  1.00  0.00    -0.168 NA
HETATM    8  C   UNL     1      39.386 -11.574   6.092  1.00  0.00     0.156 A 
HETATM    9  C   UNL     1      39.202 -12.855   2.750  1.00  0.00     0.034 A 
HETATM   10  C   UNL     1      39.738 -14.148   2.818  1.00  0.00     0.032 A 
ENDROOT
BRANCH   1  11
HETATM   11  N   UNL     1      40.749 -15.997   3.953  1.00  0.00    -0.327 N 
HETATM   12  C   UNL     1      42.075 -16.373   3.788  1.00  0.00     0.222 C 
HETATM   13  O   UNL     1      43.030 -15.620   3.647  1.00  0.00    -0.273 OA
HETATM   14  H   UNL     1      40.070 -16.746   3.977  1.00  0.00     0.169 HD
BRANCH  12  15
HETATM   15  C   UNL     1      42.218 -17.890   3.780  1.00  0.00     0.113 C 
BRANCH  15  16
HETATM   16  C   UNL     1      43.617 -18.387   4.213  1.00  0.00     0.030 C 
BRANCH  16  17
HETATM   17  C   UNL     1      43.843 -18.344   5.758  1.00  0.00    -0.014 C 
HETATM   18  C   UNL     1      42.518 -18.211   6.520  1.00  0.00     0.010 C 
HETATM   19  C   UNL     1      44.820 -17.271   6.246  1.00  0.00     0.010 C 
ENDBRANCH  16  17
BRANCH  16  20
HETATM   20  C   UNL     1      43.926 -19.746   3.585  1.00  0.00    -0.053 A 
HETATM   21  C   UNL     1      43.618 -20.043   2.248  1.00  0.00     0.007 A 
HETATM   22  C   UNL     1      43.924 -21.293   1.704  1.00  0.00     0.001 A 
HETATM   23  C   UNL     1      44.543 -22.263   2.488  1.00  0.00     0.000 A 
HETATM   24  C   UNL     1      44.854 -21.986   3.816  1.00  0.00     0.001 A 
HETATM   25  C   UNL     1      44.549 -20.738   4.361  1.00  0.00     0.007 A 
ENDBRANCH  16  20
ENDBRANCH  15  16
ENDBRANCH  12  15
ENDBRANCH   1  11
BRANCH   8  26
HETATM   26  C   UNL     1      39.672 -11.581   7.534  1.00  0.00     0.270 C 
HETATM   27  N   UNL     1      39.023 -12.567   8.227  1.00  0.00    -0.365 N 
HETATM   28  H   UNL     1      38.421 -13.202   7.717  1.00  0.00     0.159 HD
HETATM   29  H   UNL     1      39.166 -12.655   9.220  1.00  0.00     0.159 HD
HETATM   30  O   UNL     1      40.422 -10.795   8.104  1.00  0.00    -0.266 OA
ENDBRANCH   8  26
TORSDOF 6
ENDMDL
MODEL 7
REMARK VINA RESULT:      -8.1      2.211      3.093
REMARK  6 active torsions:
REMARK  status: ('A' for Active; 'I' for Inactive)
REMARK    1  A    between atoms: C_2  and  C_3 
REMARK    2  A    between atoms: C_3  and  C_4 
REMARK    3  A    between atoms: C_3  and  C_10 
REMARK    4  A    between atoms: C_10  and  C_11 
REMARK       I    between atoms: C_11  and  N_12 
REMARK    5  A    between atoms: N_12  and  C_13 
REMARK    6  A    between atoms: C_20  and  C_21 
REMARK       I    between atoms: C_21  and  N_22 
ROOT
HETATM    1  C   UNL     1      41.519 -15.255  -0.471  1.00  0.00     0.035 A 
HETATM    2  C   UNL     1      41.939 -13.918  -0.509  1.00  0.00     0.046 A 
HETATM    3  C   UNL     1      41.922 -13.215  -1.735  1.00  0.00     0.030 A 
HETATM    4  C   UNL     1      41.492 -13.874  -2.880  1.00  0.00     0.063 A 
HETATM    5  N   UNL     1      41.596 -12.958  -3.887  1.00  0.00    -0.277 N 
HETATM    6  H   UNL     1      41.371 -13.094  -4.867  1.00  0.00     0.189 HD
HETATM    7  N   UNL     1      42.045 -11.753  -3.501  1.00  0.00    -0.168 NA
HETATM    8  C   UNL     1      42.249 -11.895  -2.171  1.00  0.00     0.156 A 
HETATM    9  C   UNL     1      41.063 -15.202  -2.879  1.00  0.00     0.034 A 
HETATM   10  C   UNL     1      41.082 -15.874  -1.651  1.00  0.00     0.032 A 
ENDROOT
BRANCH   1  11
HETATM   11  N   UNL     1      41.500 -16.040   0.700  1.00  0.00    -0.327 N 
HETATM   12  C   UNL     1      40.508 -16.092   1.670  1.00  0.00     0.222 C 
HETATM   13  O   UNL     1      39.473 -15.439   1.684  1.00  0.00    -0.273 OA
HETATM   14  H   UNL     1      42.331 -16.589   0.879  1.00  0.00     0.169 HD
BRANCH  12  15
HETATM   15  C   UNL     1      40.872 -17.077   2.774  1.00  0.00     0.113 C 
BRANCH  15  16
HETATM   16  C   UNL     1      42.327 -16.940   3.278  1.00  0.00     0.030 C 
BRANCH  16  17
HETATM   17  C   UNL     1      42.438 -16.273   4.687  1.00  0.00    -0.014 C 
HETATM   18  C   UNL     1      41.064 -16.128   5.354  1.00  0.00     0.010 C 
HETATM   19  C   UNL     1      43.163 -14.925   4.716  1.00  0.00     0.010 C 
ENDBRANCH  16  17
BRANCH  16  20
HETATM   20  C   UNL     1      43.065 -18.274   3.172  1.00  0.00    -0.053 A 
HETATM   21  C   UNL     1      43.921 -18.741   4.182  1.00  0.00     0.007 A 
HETATM   22  C   UNL     1      44.573 -19.970   4.056  1.00  0.00     0.001 A 
HETATM   23  C   UNL     1      44.377 -20.752   2.919  1.00  0.00     0.000 A 
HETATM   24  C   UNL     1      43.532 -20.303   1.908  1.00  0.00     0.001 A 
HETATM   25  C   UNL     1      42.881 -19.075   2.032  1.00  0.00     0.007 A 
ENDBRANCH  16  20
ENDBRANCH  15  16
ENDBRANCH  12  15
ENDBRANCH   1  11
BRANCH   8  26
HETATM   26  C   UNL     1      42.741 -10.775  -1.355  1.00  0.00     0.270 C 
HETATM   27  N   UNL     1      41.849  -9.745  -1.227  1.00  0.00    -0.365 N 
HETATM   28  H   UNL     1      40.946  -9.826  -1.679  1.00  0.00     0.159 HD
HETATM   29  H   UNL     1      42.096  -8.938  -0.677  1.00  0.00     0.159 HD
HETATM   30  O   UNL     1      43.841 -10.731  -0.817  1.00  0.00    -0.266 OA
ENDBRANCH   8  26
TORSDOF 6
ENDMDL
MODEL 8
REMARK VINA RESULT:      -7.8      1.433      2.864
REMARK  6 active torsions:
REMARK  status: ('A' for Active; 'I' for Inactive)
REMARK    1  A    between atoms: C_2  and  C_3 
REMARK    2  A    between atoms: C_3  and  C_4 
REMARK    3  A    between atoms: C_3  and  C_10 
REMARK    4  A    between atoms: C_10  and  C_11 
REMARK       I    between atoms: C_11  and  N_12 
REMARK    5  A    between atoms: N_12  and  C_13 
REMARK    6  A    between atoms: C_20  and  C_21 
REMARK       I    between atoms: C_21  and  N_22 
ROOT
HETATM    1  C   UNL     1      39.777 -14.664   0.978  1.00  0.00     0.035 A 
HETATM    2  C   UNL     1      40.350 -14.543  -0.295  1.00  0.00     0.046 A 
HETATM    3  C   UNL     1      39.618 -13.921  -1.333  1.00  0.00     0.030 A 
HETATM    4  C   UNL     1      38.341 -13.449  -1.064  1.00  0.00     0.063 A 
HETATM    5  N   UNL     1      37.892 -12.922  -2.241  1.00  0.00    -0.277 N 
HETATM    6  H   UNL     1      36.991 -12.490  -2.417  1.00  0.00     0.189 HD
HETATM    7  N   UNL     1      38.769 -12.996  -3.255  1.00  0.00    -0.168 NA
HETATM    8  C   UNL     1      39.844 -13.610  -2.709  1.00  0.00     0.156 A 
HETATM    9  C   UNL     1      37.740 -13.548   0.192  1.00  0.00     0.034 A 
HETATM   10  C   UNL     1      38.488 -14.160   1.206  1.00  0.00     0.032 A 
ENDROOT
BRANCH   1  11
HETATM   11  N   UNL     1      40.423 -15.266   2.078  1.00  0.00    -0.327 N 
HETATM   12  C   UNL     1      40.472 -16.616   2.399  1.00  0.00     0.222 C 
HETATM   13  O   UNL     1      39.935 -17.527   1.782  1.00  0.00    -0.273 OA
HETATM   14  H   UNL     1      40.857 -14.633   2.737  1.00  0.00     0.169 HD
BRANCH  12  15
HETATM   15  C   UNL     1      41.283 -16.850   3.667  1.00  0.00     0.113 C 
BRANCH  15  16
HETATM   16  C   UNL     1      42.310 -18.000   3.548  1.00  0.00     0.030 C 
BRANCH  16  17
HETATM   17  C   UNL     1      42.961 -18.108   2.132  1.00  0.00    -0.014 C 
HETATM   18  C   UNL     1      43.428 -19.539   1.832  1.00  0.00     0.010 C 
HETATM   19  C   UNL     1      44.109 -17.132   1.864  1.00  0.00     0.010 C 
ENDBRANCH  16  17
BRANCH  16  20
HETATM   20  C   UNL     1      43.327 -17.938   4.687  1.00  0.00    -0.053 A 
HETATM   21  C   UNL     1      44.175 -19.013   4.995  1.00  0.00     0.007 A 
HETATM   22  C   UNL     1      45.100 -18.918   6.038  1.00  0.00     0.001 A 
HETATM   23  C   UNL     1      45.192 -17.747   6.786  1.00  0.00     0.000 A 
HETATM   24  C   UNL     1      44.357 -16.672   6.495  1.00  0.00     0.001 A 
HETATM   25  C   UNL     1      43.432 -16.765   5.454  1.00  0.00     0.007 A 
ENDBRANCH  16  20
ENDBRANCH  15  16
ENDBRANCH  12  15
ENDBRANCH   1  11
BRANCH   8  26
HETATM   26  C   UNL     1      41.051 -13.876  -3.504  1.00  0.00     0.270 C 
HETATM   27  N   UNL     1      41.728 -12.749  -3.884  1.00  0.00    -0.365 N 
HETATM   28  H   UNL     1      41.369 -11.847  -3.596  1.00  0.00     0.159 HD
HETATM   29  H   UNL     1      42.574 -12.835  -4.425  1.00  0.00     0.159 HD
HETATM   30  O   UNL     1      41.452 -14.992  -3.817  1.00  0.00    -0.266 OA
ENDBRANCH   8  26
TORSDOF 6
ENDMDL
MODEL 9
REMARK VINA RESULT:      -7.8      5.176      8.462
REMARK  6 active torsions:
REMARK  status: ('A' for Active; 'I' for Inactive)
REMARK    1  A    between atoms: C_2  and  C_3 
REMARK    2  A    between atoms: C_3  and  C_4 
REMARK    3  A    between atoms: C_3  and  C_10 
REMARK    4  A    between atoms: C_10  and  C_11 
REMARK       I    between atoms: C_11  and  N_12 
REMARK    5  A    between atoms: N_12  and  C_13 
REMARK    6  A    between atoms: C_20  and  C_21 
REMARK       I    between atoms: C_21  and  N_22 
ROOT
HETATM    1  C   UNL     1      44.547 -14.282   7.117  1.00  0.00     0.035 A 
HETATM    2  C   UNL     1      44.086 -13.497   8.184  1.00  0.00     0.046 A 
HETATM    3  C   UNL     1      44.882 -12.431   8.660  1.00  0.00     0.030 A 
HETATM    4  C   UNL     1      46.111 -12.190   8.059  1.00  0.00     0.063 A 
HETATM    5  N   UNL     1      46.642 -11.126   8.730  1.00  0.00    -0.277 N 
HETATM    6  H   UNL     1      47.537 -10.678   8.563  1.00  0.00     0.189 HD
HETATM    7  N   UNL     1      45.863 -10.640   9.710  1.00  0.00    -0.168 NA
HETATM    8  C   UNL     1      44.769 -11.435   9.678  1.00  0.00     0.156 A 
HETATM    9  C   UNL     1      46.600 -12.947   6.993  1.00  0.00     0.034 A 
HETATM   10  C   UNL     1      45.789 -13.993   6.534  1.00  0.00     0.032 A 
ENDROOT
BRANCH   1  11
HETATM   11  N   UNL     1      43.829 -15.366   6.571  1.00  0.00    -0.327 N 
HETATM   12  C   UNL     1      43.396 -16.512   7.223  1.00  0.00     0.222 C 
HETATM   13  O   UNL     1      43.585 -16.791   8.400  1.00  0.00    -0.273 OA
HETATM   14  H   UNL     1      43.657 -15.325   5.575  1.00  0.00     0.169 HD
BRANCH  12  15
HETATM   15  C   UNL     1      42.646 -17.435   6.271  1.00  0.00     0.113 C 
BRANCH  15  16
HETATM   16  C   UNL     1      43.542 -18.069   5.181  1.00  0.00     0.030 C 
BRANCH  16  17
HETATM   17  C   UNL     1      43.783 -19.598   5.385  1.00  0.00    -0.014 C 
HETATM   18  C   UNL     1      43.745 -19.985   6.869  1.00  0.00     0.010 C 
HETATM   19  C   UNL     1      45.063 -20.148   4.749  1.00  0.00     0.010 C 
ENDBRANCH  16  17
BRANCH  16  20
HETATM   20  C   UNL     1      43.032 -17.709   3.786  1.00  0.00    -0.053 A 
HETATM   21  C   UNL     1      41.675 -17.470   3.521  1.00  0.00     0.007 A 
HETATM   22  C   UNL     1      41.245 -17.134   2.235  1.00  0.00     0.001 A 
HETATM   23  C   UNL     1      42.166 -17.029   1.196  1.00  0.00     0.000 A 
HETATM   24  C   UNL     1      43.516 -17.263   1.441  1.00  0.00     0.001 A 
HETATM   25  C   UNL     1      43.947 -17.600   2.725  1.00  0.00     0.007 A 
ENDBRANCH  16  20
ENDBRANCH  15  16
ENDBRANCH  12  15
ENDBRANCH   1  11
BRANCH   8  26
HETATM   26  C   UNL     1      43.650 -11.223  10.607  1.00  0.00     0.270 C 
HETATM   27  N   UNL     1      43.532 -12.192  11.567  1.00  0.00    -0.365 N 
HETATM   28  H   UNL     1      44.202 -12.951  11.575  1.00  0.00     0.159 HD
HETATM   29  H   UNL     1      42.799 -12.125  12.255  1.00  0.00     0.159 HD
HETATM   30  O   UNL     1      42.872 -10.276  10.564  1.00  0.00    -0.266 OA
ENDBRANCH   8  26
TORSDOF 6
ENDMDL
MODEL 10
REMARK VINA RESULT:      -7.7      3.282      8.245
REMARK  6 active torsions:
REMARK  status: ('A' for Active; 'I' for Inactive)
REMARK    1  A    between atoms: C_2  and  C_3 
REMARK    2  A    between atoms: C_3  and  C_4 
REMARK    3  A    between atoms: C_3  and  C_10 
REMARK    4  A    between atoms: C_10  and  C_11 
REMARK       I    between atoms: C_11  and  N_12 
REMARK    5  A    between atoms: N_12  and  C_13 
REMARK    6  A    between atoms: C_20  and  C_21 
REMARK       I    between atoms: C_21  and  N_22 
ROOT
HETATM    1  C   UNL     1      43.186 -17.717   2.191  1.00  0.00     0.035 A 
HETATM    2  C   UNL     1      43.543 -19.072   2.210  1.00  0.00     0.046 A 
HETATM    3  C   UNL     1      44.084 -19.634   3.389  1.00  0.00     0.030 A 
HETATM    4  C   UNL     1      44.254 -18.822   4.502  1.00  0.00     0.063 A 
HETATM    5  N   UNL     1      44.796 -19.629   5.462  1.00  0.00    -0.277 N 
HETATM    6  H   UNL     1      45.057 -19.369   6.407  1.00  0.00     0.189 HD
HETATM    7  N   UNL     1      44.984 -20.902   5.078  1.00  0.00    -0.168 NA
HETATM    8  C   UNL     1      44.546 -20.922   3.799  1.00  0.00     0.156 A 
HETATM    9  C   UNL     1      43.906 -17.470   4.521  1.00  0.00     0.034 A 
HETATM   10  C   UNL     1      43.364 -16.939   3.344  1.00  0.00     0.032 A 
ENDROOT
BRANCH   1  11
HETATM   11  N   UNL     1      42.640 -17.064   1.066  1.00  0.00    -0.327 N 
HETATM   12  C   UNL     1      41.308 -16.748   0.831  1.00  0.00     0.222 C 
HETATM   13  O   UNL     1      40.363 -17.005   1.565  1.00  0.00    -0.273 OA
HETATM   14  H   UNL     1      43.289 -16.849   0.321  1.00  0.00     0.169 HD
BRANCH  12  15
HETATM   15  C   UNL     1      41.141 -16.035  -0.504  1.00  0.00     0.113 C 
BRANCH  15  16
HETATM   16  C   UNL     1      41.726 -14.603  -0.525  1.00  0.00     0.030 C 
BRANCH  16  17
HETATM   17  C   UNL     1      41.512 -13.863  -1.883  1.00  0.00    -0.014 C 
HETATM   18  C   UNL     1      41.294 -14.849  -3.038  1.00  0.00     0.010 C 
HETATM   19  C   UNL     1      42.612 -12.868  -2.265  1.00  0.00     0.010 C 
ENDBRANCH  16  17
BRANCH  16  20
HETATM   20  C   UNL     1      41.249 -13.807   0.690  1.00  0.00    -0.053 A 
HETATM   21  C   UNL     1      42.119 -13.417   1.720  1.00  0.00     0.007 A 
HETATM   22  C   UNL     1      41.651 -12.681   2.811  1.00  0.00     0.001 A 
HETATM   23  C   UNL     1      40.308 -12.322   2.887  1.00  0.00     0.000 A 
HETATM   24  C   UNL     1      39.431 -12.701   1.875  1.00  0.00     0.001 A 
HETATM   25  C   UNL     1      39.897 -13.437   0.784  1.00  0.00     0.007 A 
ENDBRANCH  16  20
ENDBRANCH  15  16
ENDBRANCH  12  15
ENDBRANCH   1  11
BRANCH   8  26
HETATM   26  C   UNL     1      44.574 -22.161   3.007  1.00  0.00     0.270 C 
HETATM   27  N   UNL     1      44.808 -23.289   3.745  1.00  0.00    -0.365 N 
HETATM   28  H   UNL     1      44.933 -23.196   4.745  1.00  0.00     0.159 HD
HETATM   29  H   UNL     1      44.835 -24.186   3.288  1.00  0.00     0.159 HD
HETATM   30  O   UNL     1      44.402 -22.221   1.794  1.00  0.00    -0.266 OA
ENDBRANCH   8  26
TORSDOF 6
ENDMDL
