MODEL 1
REMARK VINA RESULT:      -9.3      0.000      0.000
REMARK  4 active torsions:
REMARK  status: ('A' for Active; 'I' for Inactive)
REMARK    1  A    between atoms: C_5  and  C_6 
REMARK    2  A    between atoms: C_6  and  N_7 
REMARK    3  A    between atoms: N_13  and  C_15 
REMARK    4  A    between atoms: C_19  and  C_20 
ROOT
HETATM    1  N   UNL     1      43.227 -13.755   5.960  1.00  0.00    -0.064 N 
HETATM    2  H   UNL     1      43.052 -12.746   6.127  1.00  0.00     0.280 HD
HETATM    3  C   UNL     1      43.787 -13.837   4.573  1.00  0.00     0.236 C 
HETATM    4  C   UNL     1      43.913 -15.293   4.113  1.00  0.00     0.039 C 
HETATM    5  C   UNL     1      42.641 -16.170   4.308  1.00  0.00    -0.013 C 
HETATM    6  C   UNL     1      41.551 -15.888   3.234  1.00  0.00     0.245 C 
HETATM    7  N   UNL     1      41.945 -16.392   1.864  1.00  0.00    -0.065 N 
HETATM    8  H   UNL     1      42.785 -15.903   1.524  1.00  0.00     0.280 HD
HETATM    9  C   UNL     1      42.271 -17.884   1.848  1.00  0.00     0.244 C 
HETATM   10  C   UNL     1      43.406 -18.160   2.836  1.00  0.00     0.045 C 
HETATM   11  C   UNL     1      43.020 -17.678   4.244  1.00  0.00     0.022 C 
HETATM   12  C   UNL     1      42.060 -15.914   5.733  1.00  0.00     0.039 C 
HETATM   13  C   UNL     1      41.912 -14.445   6.107  1.00  0.00     0.236 C 
ENDROOT
BRANCH   7  14
HETATM   14  C   UNL     1      40.861 -16.110   0.856  1.00  0.00     0.188 A 
HETATM   15  C   UNL     1      40.997 -14.853   0.044  1.00  0.00     0.035 A 
HETATM   16  C   UNL     1      41.242 -16.191  -0.594  1.00  0.00     0.035 A 
ENDBRANCH   7  14
BRANCH  10  17
HETATM   17  C   UNL     1      43.797 -19.624   2.838  1.00  0.00    -0.052 A 
HETATM   18  C   UNL     1      44.445 -20.166   3.959  1.00  0.00     0.007 A 
HETATM   19  C   UNL     1      44.808 -21.513   3.990  1.00  0.00     0.001 A 
HETATM   20  C   UNL     1      44.530 -22.336   2.902  1.00  0.00     0.000 A 
HETATM   21  C   UNL     1      43.889 -21.814   1.782  1.00  0.00     0.001 A 
HETATM   22  C   UNL     1      43.524 -20.466   1.748  1.00  0.00     0.007 A 
ENDBRANCH  10  17
BRANCH   1  23
HETATM   23  C   UNL     1      44.244 -14.072   7.083  1.00  0.00     0.323 C 
BRANCH  23  24
HETATM   24  C   UNL     1      44.337 -12.973   8.072  1.00  0.00     0.198 A 
HETATM   25  O   UNL     1      43.485 -11.927   7.929  1.00  0.00    -0.194 OA
HETATM   26  N   UNL     1      43.797 -11.037   8.952  1.00  0.00    -0.112 NA
HETATM   27  C   UNL     1      44.806 -11.635   9.598  1.00  0.00     0.152 A 
HETATM   28  C   UNL     1      45.494 -11.011  10.747  1.00  0.00     0.096 C 
HETATM   29  N   UNL     1      45.162 -12.867   9.091  1.00  0.00    -0.208 NA
ENDBRANCH  23  24
ENDBRANCH   1  23
TORSDOF 4
ENDMDL
MODEL 2
REMARK VINA RESULT:      -8.3      3.501      7.023
REMARK  4 active torsions:
REMARK  status: ('A' for Active; 'I' for Inactive)
REMARK    1  A    between atoms: C_5  and  C_6 
REMARK    2  A    between atoms: C_6  and  N_7 
REMARK    3  A    between atoms: N_13  and  C_15 
REMARK    4  A    between atoms: C_19  and  C_20 
ROOT
HETATM    1  N   UNL     1      40.393 -14.242   0.999  1.00  0.00    -0.064 N 
HETATM    2  H   UNL     1      39.915 -13.321   1.017  1.00  0.00     0.280 HD
HETATM    3  C   UNL     1      40.000 -14.919   2.277  1.00  0.00     0.236 C 
HETATM    4  C   UNL     1      40.791 -16.216   2.481  1.00  0.00     0.039 C 
HETATM    5  C   UNL     1      42.334 -16.094   2.308  1.00  0.00    -0.013 C 
HETATM    6  C   UNL     1      43.023 -15.437   3.539  1.00  0.00     0.245 C 
HETATM    7  N   UNL     1      43.018 -16.339   4.753  1.00  0.00    -0.065 N 
HETATM    8  H   UNL     1      42.055 -16.531   5.060  1.00  0.00     0.280 HD
HETATM    9  C   UNL     1      43.673 -17.694   4.493  1.00  0.00     0.244 C 
HETATM   10  C   UNL     1      42.944 -18.390   3.342  1.00  0.00     0.045 C 
HETATM   11  C   UNL     1      42.955 -17.503   2.086  1.00  0.00     0.022 C 
HETATM   12  C   UNL     1      42.638 -15.262   1.024  1.00  0.00     0.039 C 
HETATM   13  C   UNL     1      41.856 -13.960   0.908  1.00  0.00     0.236 C 
ENDROOT
BRANCH   7  14
HETATM   14  C   UNL     1      43.703 -15.672   5.918  1.00  0.00     0.188 A 
HETATM   15  C   UNL     1      43.266 -16.088   7.294  1.00  0.00     0.035 A 
HETATM   16  C   UNL     1      44.600 -16.531   6.763  1.00  0.00     0.035 A 
ENDBRANCH   7  14
BRANCH  10  17
HETATM   17  C   UNL     1      43.530 -19.758   3.060  1.00  0.00    -0.052 A 
HETATM   18  C   UNL     1      44.327 -20.384   4.033  1.00  0.00     0.007 A 
HETATM   19  C   UNL     1      44.872 -21.647   3.802  1.00  0.00     0.001 A 
HETATM   20  C   UNL     1      44.630 -22.303   2.598  1.00  0.00     0.000 A 
HETATM   21  C   UNL     1      43.843 -21.697   1.623  1.00  0.00     0.001 A 
HETATM   22  C   UNL     1      43.296 -20.432   1.850  1.00  0.00     0.007 A 
ENDBRANCH  10  17
BRANCH   1  23
HETATM   23  C   UNL     1      39.784 -14.873  -0.276  1.00  0.00     0.323 C 
BRANCH  23  24
HETATM   24  C   UNL     1      40.433 -14.366  -1.507  1.00  0.00     0.198 A 
HETATM   25  O   UNL     1      41.072 -15.266  -2.296  1.00  0.00    -0.194 OA
HETATM   26  N   UNL     1      41.609 -14.537  -3.352  1.00  0.00    -0.112 NA
HETATM   27  C   UNL     1      41.245 -13.275  -3.086  1.00  0.00     0.152 A 
HETATM   28  C   UNL     1      41.648 -12.136  -3.936  1.00  0.00     0.096 C 
HETATM   29  N   UNL     1      40.483 -13.127  -1.946  1.00  0.00    -0.208 NA
ENDBRANCH  23  24
ENDBRANCH   1  23
TORSDOF 4
ENDMDL
MODEL 3
REMARK VINA RESULT:      -8.3      3.385      6.327
REMARK  4 active torsions:
REMARK  status: ('A' for Active; 'I' for Inactive)
REMARK    1  A    between atoms: C_5  and  C_6 
REMARK    2  A    between atoms: C_6  and  N_7 
REMARK    3  A    between atoms: N_13  and  C_15 
REMARK    4  A    between atoms: C_19  and  C_20 
ROOT
HETATM    1  N   UNL     1      40.782 -14.064   2.429  1.00  0.00    -0.064 N 
HETATM    2  H   UNL     1      40.338 -13.150   2.645  1.00  0.00     0.280 HD
HETATM    3  C   UNL     1      40.335 -14.990   3.518  1.00  0.00     0.236 C 
HETATM    4  C   UNL     1      41.072 -16.332   3.439  1.00  0.00     0.039 C 
HETATM    5  C   UNL     1      42.623 -16.239   3.318  1.00  0.00    -0.013 C 
HETATM    6  C   UNL     1      43.309 -15.900   4.672  1.00  0.00     0.245 C 
HETATM    7  N   UNL     1      43.244 -17.048   5.655  1.00  0.00    -0.065 N 
HETATM    8  H   UNL     1      42.268 -17.264   5.899  1.00  0.00     0.280 HD
HETATM    9  C   UNL     1      43.853 -18.338   5.108  1.00  0.00     0.244 C 
HETATM   10  C   UNL     1      43.124 -18.730   3.821  1.00  0.00     0.045 C 
HETATM   11  C   UNL     1      43.195 -17.587   2.795  1.00  0.00     0.022 C 
HETATM   12  C   UNL     1      42.985 -15.155   2.255  1.00  0.00     0.039 C 
HETATM   13  C   UNL     1      42.256 -13.829   2.422  1.00  0.00     0.236 C 
ENDROOT
BRANCH   7  14
HETATM   14  C   UNL     1      43.927 -16.686   6.948  1.00  0.00     0.188 A 
HETATM   15  C   UNL     1      43.234 -17.085   8.220  1.00  0.00     0.035 A 
HETATM   16  C   UNL     1      44.466 -17.819   7.773  1.00  0.00     0.035 A 
ENDBRANCH   7  14
BRANCH  10  17
HETATM   17  C   UNL     1      43.664 -20.024   3.249  1.00  0.00    -0.052 A 
HETATM   18  C   UNL     1      44.441 -20.868   4.059  1.00  0.00     0.007 A 
HETATM   19  C   UNL     1      44.944 -22.070   3.560  1.00  0.00     0.001 A 
HETATM   20  C   UNL     1      44.679 -22.446   2.246  1.00  0.00     0.000 A 
HETATM   21  C   UNL     1      43.912 -21.620   1.429  1.00  0.00     0.001 A 
HETATM   22  C   UNL     1      43.407 -20.416   1.925  1.00  0.00     0.007 A 
ENDBRANCH  10  17
BRANCH   1  23
HETATM   23  C   UNL     1      40.177 -14.369   1.038  1.00  0.00     0.323 C 
BRANCH  23  24
HETATM   24  C   UNL     1      40.705 -13.461  -0.006  1.00  0.00     0.198 A 
HETATM   25  O   UNL     1      40.256 -12.181  -0.011  1.00  0.00    -0.194 OA
HETATM   26  N   UNL     1      40.877 -11.561  -1.091  1.00  0.00    -0.112 NA
HETATM   27  C   UNL     1      41.628 -12.532  -1.628  1.00  0.00     0.152 A 
HETATM   28  C   UNL     1      42.436 -12.329  -2.847  1.00  0.00     0.096 C 
HETATM   29  N   UNL     1      41.567 -13.738  -0.961  1.00  0.00    -0.208 NA
ENDBRANCH  23  24
ENDBRANCH   1  23
TORSDOF 4
ENDMDL
MODEL 4
REMARK VINA RESULT:      -7.9      3.166      7.942
REMARK  4 active torsions:
REMARK  status: ('A' for Active; 'I' for Inactive)
REMARK    1  A    between atoms: C_5  and  C_6 
REMARK    2  A    between atoms: C_6  and  N_7 
REMARK    3  A    between atoms: N_13  and  C_15 
REMARK    4  A    between atoms: C_19  and  C_20 
ROOT
HETATM    1  N   UNL     1      41.103 -14.151   2.097  1.00  0.00    -0.064 N 
HETATM    2  H   UNL     1      40.645 -14.615   1.289  1.00  0.00     0.280 HD
HETATM    3  C   UNL     1      42.492 -14.710   2.141  1.00  0.00     0.236 C 
HETATM    4  C   UNL     1      43.228 -14.260   3.408  1.00  0.00     0.039 C 
HETATM    5  C   UNL     1      42.450 -14.460   4.743  1.00  0.00    -0.013 C 
HETATM    6  C   UNL     1      42.455 -15.941   5.221  1.00  0.00     0.245 C 
HETATM    7  N   UNL     1      43.817 -16.387   5.704  1.00  0.00    -0.065 N 
HETATM    8  H   UNL     1      44.504 -16.353   4.938  1.00  0.00     0.280 HD
HETATM    9  C   UNL     1      44.370 -15.509   6.826  1.00  0.00     0.244 C 
HETATM   10  C   UNL     1      44.454 -14.062   6.335  1.00  0.00     0.045 C 
HETATM   11  C   UNL     1      43.076 -13.576   5.859  1.00  0.00     0.022 C 
HETATM   12  C   UNL     1      40.981 -13.970   4.553  1.00  0.00     0.039 C 
HETATM   13  C   UNL     1      40.290 -14.495   3.300  1.00  0.00     0.236 C 
ENDROOT
BRANCH   7  14
HETATM   14  C   UNL     1      43.778 -17.820   6.168  1.00  0.00     0.188 A 
HETATM   15  C   UNL     1      44.443 -18.839   5.287  1.00  0.00     0.035 A 
HETATM   16  C   UNL     1      45.083 -18.435   6.585  1.00  0.00     0.035 A 
ENDBRANCH   7  14
BRANCH  10  17
HETATM   17  C   UNL     1      45.030 -13.149   7.397  1.00  0.00    -0.052 A 
HETATM   18  C   UNL     1      46.356 -12.702   7.283  1.00  0.00     0.007 A 
HETATM   19  C   UNL     1      46.907 -11.853   8.243  1.00  0.00     0.001 A 
HETATM   20  C   UNL     1      46.143 -11.439   9.331  1.00  0.00     0.000 A 
HETATM   21  C   UNL     1      44.827 -11.874   9.460  1.00  0.00     0.001 A 
HETATM   22  C   UNL     1      44.272 -12.724   8.501  1.00  0.00     0.007 A 
ENDBRANCH  10  17
BRANCH   1  23
HETATM   23  C   UNL     1      41.022 -12.664   1.675  1.00  0.00     0.323 C 
BRANCH  23  24
HETATM   24  C   UNL     1      41.744 -12.409   0.407  1.00  0.00     0.198 A 
HETATM   25  O   UNL     1      42.734 -11.481   0.423  1.00  0.00    -0.194 OA
HETATM   26  N   UNL     1      43.220 -11.417  -0.878  1.00  0.00    -0.112 NA
HETATM   27  C   UNL     1      42.469 -12.305  -1.544  1.00  0.00     0.152 A 
HETATM   28  C   UNL     1      42.610 -12.534  -2.996  1.00  0.00     0.096 C 
HETATM   29  N   UNL     1      41.544 -12.969  -0.766  1.00  0.00    -0.208 NA
ENDBRANCH  23  24
ENDBRANCH   1  23
TORSDOF 4
ENDMDL
MODEL 5
REMARK VINA RESULT:      -7.8      4.164      8.444
REMARK  4 active torsions:
REMARK  status: ('A' for Active; 'I' for Inactive)
REMARK    1  A    between atoms: C_5  and  C_6 
REMARK    2  A    between atoms: C_6  and  N_7 
REMARK    3  A    between atoms: N_13  and  C_15 
REMARK    4  A    between atoms: C_19  and  C_20 
ROOT
HETATM    1  N   UNL     1      39.535 -13.622  -0.956  1.00  0.00    -0.064 N 
HETATM    2  H   UNL     1      38.979 -12.796  -1.248  1.00  0.00     0.280 HD
HETATM    3  C   UNL     1      39.099 -13.918   0.446  1.00  0.00     0.236 C 
HETATM    4  C   UNL     1      39.980 -15.000   1.082  1.00  0.00     0.039 C 
HETATM    5  C   UNL     1      41.516 -14.773   0.958  1.00  0.00    -0.013 C 
HETATM    6  C   UNL     1      42.044 -13.704   1.958  1.00  0.00     0.245 C 
HETATM    7  N   UNL     1      42.019 -14.191   3.389  1.00  0.00    -0.065 N 
HETATM    8  H   UNL     1      41.054 -14.383   3.692  1.00  0.00     0.280 HD
HETATM    9  C   UNL     1      42.807 -15.483   3.595  1.00  0.00     0.244 C 
HETATM   10  C   UNL     1      42.236 -16.569   2.680  1.00  0.00     0.045 C 
HETATM   11  C   UNL     1      42.272 -16.108   1.214  1.00  0.00     0.022 C 
HETATM   12  C   UNL     1      41.849 -14.341  -0.504  1.00  0.00     0.039 C 
HETATM   13  C   UNL     1      40.971 -13.227  -1.057  1.00  0.00     0.236 C 
ENDROOT
BRANCH   7  14
HETATM   14  C   UNL     1      42.547 -13.134   4.324  1.00  0.00     0.188 A 
HETATM   15  C   UNL     1      41.717 -12.819   5.536  1.00  0.00     0.035 A 
HETATM   16  C   UNL     1      42.998 -13.590   5.682  1.00  0.00     0.035 A 
ENDBRANCH   7  14
BRANCH  10  17
HETATM   17  C   UNL     1      42.958 -17.887   2.865  1.00  0.00    -0.052 A 
HETATM   18  C   UNL     1      42.907 -18.855   1.849  1.00  0.00     0.007 A 
HETATM   19  C   UNL     1      43.571 -20.074   1.991  1.00  0.00     0.001 A 
HETATM   20  C   UNL     1      44.294 -20.344   3.150  1.00  0.00     0.000 A 
HETATM   21  C   UNL     1      44.354 -19.397   4.168  1.00  0.00     0.001 A 
HETATM   22  C   UNL     1      43.690 -18.175   4.029  1.00  0.00     0.007 A 
ENDBRANCH  10  17
BRANCH   1  23
HETATM   23  C   UNL     1      39.087 -14.671  -2.003  1.00  0.00     0.323 C 
BRANCH  23  24
HETATM   24  C   UNL     1      38.053 -14.132  -2.917  1.00  0.00     0.198 A 
HETATM   25  O   UNL     1      37.908 -12.784  -2.976  1.00  0.00    -0.194 OA
HETATM   26  N   UNL     1      36.870 -12.550  -3.872  1.00  0.00    -0.112 NA
HETATM   27  C   UNL     1      36.493 -13.777  -4.253  1.00  0.00     0.152 A 
HETATM   28  C   UNL     1      35.367 -14.011  -5.179  1.00  0.00     0.096 C 
HETATM   29  N   UNL     1      37.229 -14.801  -3.693  1.00  0.00    -0.208 NA
ENDBRANCH  23  24
ENDBRANCH   1  23
TORSDOF 4
ENDMDL
MODEL 6
REMARK VINA RESULT:      -7.8      3.081      3.748
REMARK  4 active torsions:
REMARK  status: ('A' for Active; 'I' for Inactive)
REMARK    1  A    between atoms: C_5  and  C_6 
REMARK    2  A    between atoms: C_6  and  N_7 
REMARK    3  A    between atoms: N_13  and  C_15 
REMARK    4  A    between atoms: C_19  and  C_20 
ROOT
HETATM    1  N   UNL     1      40.270 -11.696   5.613  1.00  0.00    -0.064 N 
HETATM    2  H   UNL     1      39.794 -10.784   5.475  1.00  0.00     0.280 HD
HETATM    3  C   UNL     1      41.306 -11.771   4.534  1.00  0.00     0.236 C 
HETATM    4  C   UNL     1      41.960 -13.157   4.492  1.00  0.00     0.039 C 
HETATM    5  C   UNL     1      40.974 -14.364   4.474  1.00  0.00    -0.013 C 
HETATM    6  C   UNL     1      40.328 -14.586   3.076  1.00  0.00     0.245 C 
HETATM    7  N   UNL     1      41.318 -15.109   2.059  1.00  0.00    -0.065 N 
HETATM    8  H   UNL     1      42.070 -14.425   1.898  1.00  0.00     0.280 HD
HETATM    9  C   UNL     1      41.995 -16.407   2.497  1.00  0.00     0.244 C 
HETATM   10  C   UNL     1      42.711 -16.174   3.829  1.00  0.00     0.045 C 
HETATM   11  C   UNL     1      41.721 -15.664   4.888  1.00  0.00     0.022 C 
HETATM   12  C   UNL     1      39.861 -14.126   5.541  1.00  0.00     0.039 C 
HETATM   13  C   UNL     1      39.216 -12.747   5.495  1.00  0.00     0.236 C 
ENDROOT
BRANCH   7  14
HETATM   14  C   UNL     1      40.653 -15.322   0.724  1.00  0.00     0.188 A 
HETATM   15  C   UNL     1      41.347 -14.755  -0.481  1.00  0.00     0.035 A 
HETATM   16  C   UNL     1      41.346 -16.238  -0.243  1.00  0.00     0.035 A 
ENDBRANCH   7  14
BRANCH  10  17
HETATM   17  C   UNL     1      43.432 -17.422   4.297  1.00  0.00    -0.052 A 
HETATM   18  C   UNL     1      43.574 -18.509   3.420  1.00  0.00     0.007 A 
HETATM   19  C   UNL     1      44.241 -19.667   3.823  1.00  0.00     0.001 A 
HETATM   20  C   UNL     1      44.773 -19.755   5.106  1.00  0.00     0.000 A 
HETATM   21  C   UNL     1      44.639 -18.687   5.988  1.00  0.00     0.001 A 
HETATM   22  C   UNL     1      43.973 -17.526   5.589  1.00  0.00     0.007 A 
ENDBRANCH  10  17
BRANCH   1  23
HETATM   23  C   UNL     1      40.841 -11.523   7.041  1.00  0.00     0.323 C 
BRANCH  23  24
HETATM   24  C   UNL     1      39.917 -10.767   7.918  1.00  0.00     0.198 A 
HETATM   25  O   UNL     1      39.070  -9.887   7.328  1.00  0.00    -0.194 OA
HETATM   26  N   UNL     1      38.346  -9.300   8.361  1.00  0.00    -0.112 NA
HETATM   27  C   UNL     1      38.837  -9.880   9.464  1.00  0.00     0.152 A 
HETATM   28  C   UNL     1      38.383  -9.516  10.822  1.00  0.00     0.096 C 
HETATM   29  N   UNL     1      39.812 -10.827   9.228  1.00  0.00    -0.208 NA
ENDBRANCH  23  24
ENDBRANCH   1  23
TORSDOF 4
ENDMDL
MODEL 7
REMARK VINA RESULT:      -7.7      2.504      5.321
REMARK  4 active torsions:
REMARK  status: ('A' for Active; 'I' for Inactive)
REMARK    1  A    between atoms: C_5  and  C_6 
REMARK    2  A    between atoms: C_6  and  N_7 
REMARK    3  A    between atoms: N_13  and  C_15 
REMARK    4  A    between atoms: C_19  and  C_20 
ROOT
HETATM    1  N   UNL     1      41.246 -13.616   5.934  1.00  0.00    -0.064 N 
HETATM    2  H   UNL     1      41.272 -13.745   6.964  1.00  0.00     0.280 HD
HETATM    3  C   UNL     1      40.674 -14.889   5.388  1.00  0.00     0.236 C 
HETATM    4  C   UNL     1      40.759 -14.921   3.858  1.00  0.00     0.039 C 
HETATM    5  C   UNL     1      42.153 -14.574   3.256  1.00  0.00    -0.013 C 
HETATM    6  C   UNL     1      43.164 -15.751   3.373  1.00  0.00     0.245 C 
HETATM    7  N   UNL     1      42.819 -16.902   2.454  1.00  0.00    -0.065 N 
HETATM    8  H   UNL     1      41.908 -17.309   2.706  1.00  0.00     0.280 HD
HETATM    9  C   UNL     1      42.721 -16.486   0.987  1.00  0.00     0.244 C 
HETATM   10  C   UNL     1      41.663 -15.390   0.847  1.00  0.00     0.045 C 
HETATM   11  C   UNL     1      42.003 -14.197   1.754  1.00  0.00     0.022 C 
HETATM   12  C   UNL     1      42.720 -13.315   3.981  1.00  0.00     0.039 C 
HETATM   13  C   UNL     1      42.653 -13.369   5.502  1.00  0.00     0.236 C 
ENDROOT
BRANCH   7  14
HETATM   14  C   UNL     1      43.825 -18.015   2.588  1.00  0.00     0.188 A 
HETATM   15  C   UNL     1      43.465 -19.153   3.501  1.00  0.00     0.035 A 
HETATM   16  C   UNL     1      43.445 -19.349   2.012  1.00  0.00     0.035 A 
ENDBRANCH   7  14
BRANCH  10  17
HETATM   17  C   UNL     1      41.497 -14.961  -0.596  1.00  0.00    -0.052 A 
HETATM   18  C   UNL     1      41.815 -13.645  -0.969  1.00  0.00     0.007 A 
HETATM   19  C   UNL     1      41.680 -13.226  -2.293  1.00  0.00     0.001 A 
HETATM   20  C   UNL     1      41.224 -14.115  -3.263  1.00  0.00     0.000 A 
HETATM   21  C   UNL     1      40.903 -15.423  -2.910  1.00  0.00     0.001 A 
HETATM   22  C   UNL     1      41.038 -15.845  -1.586  1.00  0.00     0.007 A 
ENDBRANCH  10  17
BRANCH   1  23
HETATM   23  C   UNL     1      40.314 -12.387   5.808  1.00  0.00     0.323 C 
BRANCH  23  24
HETATM   24  C   UNL     1      40.185 -11.658   7.091  1.00  0.00     0.198 A 
HETATM   25  O   UNL     1      39.041 -11.831   7.799  1.00  0.00    -0.194 OA
HETATM   26  N   UNL     1      39.163 -11.026   8.927  1.00  0.00    -0.112 NA
HETATM   27  C   UNL     1      40.362 -10.447   8.777  1.00  0.00     0.152 A 
HETATM   28  C   UNL     1      40.890  -9.456   9.737  1.00  0.00     0.096 C 
HETATM   29  N   UNL     1      41.048 -10.835   7.646  1.00  0.00    -0.208 NA
ENDBRANCH  23  24
ENDBRANCH   1  23
TORSDOF 4
ENDMDL
MODEL 8
REMARK VINA RESULT:      -7.6      1.571      2.021
REMARK  4 active torsions:
REMARK  status: ('A' for Active; 'I' for Inactive)
REMARK    1  A    between atoms: C_5  and  C_6 
REMARK    2  A    between atoms: C_6  and  N_7 
REMARK    3  A    between atoms: N_13  and  C_15 
REMARK    4  A    between atoms: C_19  and  C_20 
ROOT
HETATM    1  N   UNL     1      42.068 -13.036   5.042  1.00  0.00    -0.064 N 
HETATM    2  H   UNL     1      41.805 -12.032   5.070  1.00  0.00     0.280 HD
HETATM    3  C   UNL     1      42.947 -13.182   3.837  1.00  0.00     0.236 C 
HETATM    4  C   UNL     1      43.256 -14.656   3.554  1.00  0.00     0.039 C 
HETATM    5  C   UNL     1      42.021 -15.606   3.524  1.00  0.00    -0.013 C 
HETATM    6  C   UNL     1      41.206 -15.485   2.205  1.00  0.00     0.245 C 
HETATM    7  N   UNL     1      41.943 -16.062   1.016  1.00  0.00    -0.065 N 
HETATM    8  H   UNL     1      42.812 -15.541   0.839  1.00  0.00     0.280 HD
HETATM    9  C   UNL     1      42.341 -17.524   1.212  1.00  0.00     0.244 C 
HETATM   10  C   UNL     1      43.219 -17.641   2.460  1.00  0.00     0.045 C 
HETATM   11  C   UNL     1      42.483 -17.082   3.688  1.00  0.00     0.022 C 
HETATM   12  C   UNL     1      41.103 -15.285   4.745  1.00  0.00     0.039 C 
HETATM   13  C   UNL     1      40.794 -13.806   4.939  1.00  0.00     0.236 C 
ENDROOT
BRANCH   7  14
HETATM   14  C   UNL     1      41.118 -15.936  -0.238  1.00  0.00     0.188 A 
HETATM   15  C   UNL     1      40.278 -14.699  -0.380  1.00  0.00     0.035 A 
HETATM   16  C   UNL     1      41.518 -14.865  -1.211  1.00  0.00     0.035 A 
ENDBRANCH   7  14
BRANCH  10  17
HETATM   17  C   UNL     1      43.674 -19.068   2.686  1.00  0.00    -0.052 A 
HETATM   18  C   UNL     1      43.360 -20.054   1.737  1.00  0.00     0.007 A 
HETATM   19  C   UNL     1      43.774 -21.374   1.918  1.00  0.00     0.001 A 
HETATM   20  C   UNL     1      44.507 -21.728   3.047  1.00  0.00     0.000 A 
HETATM   21  C   UNL     1      44.825 -20.763   3.998  1.00  0.00     0.001 A 
HETATM   22  C   UNL     1      44.412 -19.441   3.822  1.00  0.00     0.007 A 
ENDBRANCH  10  17
BRANCH   1  23
HETATM   23  C   UNL     1      42.802 -13.192   6.395  1.00  0.00     0.323 C 
BRANCH  23  24
HETATM   24  C   UNL     1      42.643 -11.995   7.252  1.00  0.00     0.198 A 
HETATM   25  O   UNL     1      43.556 -11.801   8.237  1.00  0.00    -0.194 OA
HETATM   26  N   UNL     1      43.164 -10.642   8.899  1.00  0.00    -0.112 NA
HETATM   27  C   UNL     1      42.055 -10.263   8.251  1.00  0.00     0.152 A 
HETATM   28  C   UNL     1      41.262  -9.084   8.656  1.00  0.00     0.096 C 
HETATM   29  N   UNL     1      41.705 -11.075   7.192  1.00  0.00    -0.208 NA
ENDBRANCH  23  24
ENDBRANCH   1  23
TORSDOF 4
ENDMDL
MODEL 9
REMARK VINA RESULT:      -7.5      4.321      8.014
REMARK  4 active torsions:
REMARK  status: ('A' for Active; 'I' for Inactive)
REMARK    1  A    between atoms: C_5  and  C_6 
REMARK    2  A    between atoms: C_6  and  N_7 
REMARK    3  A    between atoms: N_13  and  C_15 
REMARK    4  A    between atoms: C_19  and  C_20 
ROOT
HETATM    1  N   UNL     1      42.750 -17.619   3.118  1.00  0.00    -0.064 N 
HETATM    2  H   UNL     1      42.718 -18.189   3.985  1.00  0.00     0.280 HD
HETATM    3  C   UNL     1      42.987 -16.212   3.576  1.00  0.00     0.236 C 
HETATM    4  C   UNL     1      42.862 -15.224   2.411  1.00  0.00     0.039 C 
HETATM    5  C   UNL     1      41.578 -15.371   1.541  1.00  0.00    -0.013 C 
HETATM    6  C   UNL     1      40.317 -14.775   2.230  1.00  0.00     0.245 C 
HETATM    7  N   UNL     1      40.354 -13.264   2.294  1.00  0.00    -0.065 N 
HETATM    8  H   UNL     1      41.146 -12.943   2.867  1.00  0.00     0.280 HD
HETATM    9  C   UNL     1      40.515 -12.612   0.922  1.00  0.00     0.244 C 
HETATM   10  C   UNL     1      41.803 -13.124   0.272  1.00  0.00     0.045 C 
HETATM   11  C   UNL     1      41.780 -14.658   0.173  1.00  0.00     0.022 C 
HETATM   12  C   UNL     1      41.347 -16.882   1.230  1.00  0.00     0.039 C 
HETATM   13  C   UNL     1      41.434 -17.804   2.439  1.00  0.00     0.236 C 
ENDROOT
BRANCH   7  14
HETATM   14  C   UNL     1      39.113 -12.726   2.957  1.00  0.00     0.188 A 
HETATM   15  C   UNL     1      39.308 -11.895   4.194  1.00  0.00     0.035 A 
HETATM   16  C   UNL     1      38.905 -11.239   2.904  1.00  0.00     0.035 A 
ENDBRANCH   7  14
BRANCH  10  17
HETATM   17  C   UNL     1      42.033 -12.484  -1.081  1.00  0.00    -0.052 A 
HETATM   18  C   UNL     1      42.654 -11.226  -1.156  1.00  0.00     0.007 A 
HETATM   19  C   UNL     1      42.885 -10.619  -2.391  1.00  0.00     0.001 A 
HETATM   20  C   UNL     1      42.500 -11.257  -3.567  1.00  0.00     0.000 A 
HETATM   21  C   UNL     1      41.883 -12.503  -3.510  1.00  0.00     0.001 A 
HETATM   22  C   UNL     1      41.649 -13.115  -2.276  1.00  0.00     0.007 A 
ENDBRANCH  10  17
BRANCH   1  23
HETATM   23  C   UNL     1      43.947 -18.263   2.379  1.00  0.00     0.323 C 
BRANCH  23  24
HETATM   24  C   UNL     1      44.228 -19.632   2.871  1.00  0.00     0.198 A 
HETATM   25  O   UNL     1      44.022 -20.663   2.014  1.00  0.00    -0.194 OA
HETATM   26  N   UNL     1      44.329 -21.819   2.724  1.00  0.00    -0.112 NA
HETATM   27  C   UNL     1      44.680 -21.366   3.935  1.00  0.00     0.152 A 
HETATM   28  C   UNL     1      45.044 -22.269   5.046  1.00  0.00     0.096 C 
HETATM   29  N   UNL     1      44.653 -19.993   4.063  1.00  0.00    -0.208 NA
ENDBRANCH  23  24
ENDBRANCH   1  23
TORSDOF 4
ENDMDL
MODEL 10
REMARK VINA RESULT:      -7.4      3.924      6.849
REMARK  4 active torsions:
REMARK  status: ('A' for Active; 'I' for Inactive)
REMARK    1  A    between atoms: C_5  and  C_6 
REMARK    2  A    between atoms: C_6  and  N_7 
REMARK    3  A    between atoms: N_13  and  C_15 
REMARK    4  A    between atoms: C_19  and  C_20 
ROOT
HETATM    1  N   UNL     1      43.039 -16.623   4.640  1.00  0.00    -0.064 N 
HETATM    2  H   UNL     1      43.399 -16.611   5.614  1.00  0.00     0.280 HD
HETATM    3  C   UNL     1      43.236 -15.230   4.125  1.00  0.00     0.236 C 
HETATM    4  C   UNL     1      42.567 -15.047   2.758  1.00  0.00     0.039 C 
HETATM    5  C   UNL     1      41.087 -15.525   2.667  1.00  0.00    -0.013 C 
HETATM    6  C   UNL     1      40.094 -14.526   3.327  1.00  0.00     0.245 C 
HETATM    7  N   UNL     1      39.950 -13.246   2.535  1.00  0.00    -0.065 N 
HETATM    8  H   UNL     1      40.846 -12.741   2.493  1.00  0.00     0.280 HD
HETATM    9  C   UNL     1      39.515 -13.484   1.090  1.00  0.00     0.244 C 
HETATM   10  C   UNL     1      40.535 -14.395   0.403  1.00  0.00     0.045 C 
HETATM   11  C   UNL     1      40.682 -15.714   1.176  1.00  0.00     0.022 C 
HETATM   12  C   UNL     1      40.962 -16.924   3.346  1.00  0.00     0.039 C 
HETATM   13  C   UNL     1      41.603 -17.024   4.724  1.00  0.00     0.236 C 
ENDROOT
BRANCH   7  14
HETATM   14  C   UNL     1      38.974 -12.311   3.200  1.00  0.00     0.188 A 
HETATM   15  C   UNL     1      39.509 -10.987   3.667  1.00  0.00     0.035 A 
HETATM   16  C   UNL     1      38.622 -11.054   2.457  1.00  0.00     0.035 A 
ENDBRANCH   7  14
BRANCH  10  17
HETATM   17  C   UNL     1      40.172 -14.638  -1.048  1.00  0.00    -0.052 A 
HETATM   18  C   UNL     1      40.920 -15.554  -1.805  1.00  0.00     0.007 A 
HETATM   19  C   UNL     1      40.601 -15.803  -3.140  1.00  0.00     0.001 A 
HETATM   20  C   UNL     1      39.532 -15.142  -3.738  1.00  0.00     0.000 A 
HETATM   21  C   UNL     1      38.781 -14.229  -3.002  1.00  0.00     0.001 A 
HETATM   22  C   UNL     1      39.097 -13.977  -1.665  1.00  0.00     0.007 A 
ENDBRANCH  10  17
BRANCH   1  23
HETATM   23  C   UNL     1      43.961 -17.684   3.992  1.00  0.00     0.323 C 
BRANCH  23  24
HETATM   24  C   UNL     1      44.074 -18.902   4.828  1.00  0.00     0.198 A 
HETATM   25  O   UNL     1      44.745 -19.960   4.308  1.00  0.00    -0.194 OA
HETATM   26  N   UNL     1      44.680 -20.964   5.269  1.00  0.00    -0.112 NA
HETATM   27  C   UNL     1      43.972 -20.411   6.262  1.00  0.00     0.152 A 
HETATM   28  C   UNL     1      43.611 -21.151   7.488  1.00  0.00     0.096 C 
HETATM   29  N   UNL     1      43.591 -19.105   6.034  1.00  0.00    -0.208 NA
ENDBRANCH  23  24
ENDBRANCH   1  23
TORSDOF 4
ENDMDL
