MODEL 1
REMARK VINA RESULT:      -9.6      0.000      0.000
REMARK  4 active torsions:
REMARK  status: ('A' for Active; 'I' for Inactive)
REMARK    1  A    between atoms: C_2  and  N_3 
REMARK       I    between atoms: N_3  and  C_4 
REMARK       I    between atoms: C_4  and  N_5 
REMARK    2  A    between atoms: N_5  and  C_6 
REMARK    3  A    between atoms: C_17  and  C_18 
REMARK    4  A    between atoms: C_19  and  O_20 
ROOT
HETATM    1  C   UNL     1      41.492 -12.774   4.520  1.00  0.00     0.120 C 
HETATM    2  C   UNL     1      42.221 -14.010   5.088  1.00  0.00     0.202 C 
HETATM    3  N   UNL     1      41.159 -14.935   5.438  1.00  0.00    -0.332 N 
HETATM    4  C   UNL     1      41.325 -16.265   5.714  1.00  0.00     0.257 C 
HETATM    5  O   UNL     1      40.380 -17.024   5.909  1.00  0.00    -0.267 OA
HETATM    6  C   UNL     1      42.707 -16.800   5.765  1.00  0.00     0.059 A 
HETATM    7  C   UNL     1      43.779 -16.136   6.384  1.00  0.00     0.050 A 
HETATM    8  N   UNL     1      43.755 -14.808   6.861  1.00  0.00    -0.324 N 
HETATM    9  C   UNL     1      43.037 -13.747   6.354  1.00  0.00     0.247 C 
HETATM   10  O   UNL     1      43.178 -12.631   6.854  1.00  0.00    -0.271 OA
HETATM   11  C   UNL     1      42.875 -18.104   5.270  1.00  0.00     0.031 A 
HETATM   12  C   UNL     1      44.102 -18.774   5.374  1.00  0.00    -0.022 A 
HETATM   13  C   UNL     1      45.144 -18.125   6.049  1.00  0.00     0.014 A 
HETATM   14  C   UNL     1      44.982 -16.832   6.559  1.00  0.00     0.031 A 
HETATM   15  C   UNL     1      39.885 -14.264   5.554  1.00  0.00     0.129 C 
HETATM   16  C   UNL     1      39.989 -13.099   4.592  1.00  0.00     0.048 C 
HETATM   17  H   UNL     1      44.462 -14.521   7.527  1.00  0.00     0.169 HD
ENDROOT
BRANCH   1  18
HETATM   18  N   UNL     1      41.892 -12.408   3.154  1.00  0.00    -0.336 N 
HETATM   19  C   UNL     1      42.181 -13.168   2.065  1.00  0.00     0.316 C 
HETATM   20  N   UNL     1      42.053 -14.515   2.214  1.00  0.00    -0.339 N 
HETATM   21  O   UNL     1      42.590 -12.618   1.050  1.00  0.00    -0.247 OA
HETATM   22  H   UNL     1      41.374 -14.832   2.887  1.00  0.00     0.164 HD
HETATM   23  H   UNL     1      42.033 -11.423   2.965  1.00  0.00     0.164 HD
BRANCH  20  24
HETATM   24  C   UNL     1      42.439 -15.494   1.205  1.00  0.00     0.078 C 
HETATM   25  C   UNL     1      41.249 -15.987   0.383  1.00  0.00     0.032 C 
HETATM   26  C   UNL     1      43.235 -16.652   1.796  1.00  0.00     0.032 C 
ENDBRANCH  20  24
ENDBRANCH   1  18
BRANCH  12  27
HETATM   27  C   UNL     1      44.272 -20.119   4.790  1.00  0.00     0.009 A 
HETATM   28  C   UNL     1      44.504 -21.264   5.590  1.00  0.00     0.079 A 
HETATM   29  C   UNL     1      44.698 -22.512   4.983  1.00  0.00     0.039 A 
HETATM   30  C   UNL     1      44.663 -22.637   3.592  1.00  0.00     0.026 A 
HETATM   31  C   UNL     1      44.432 -21.517   2.802  1.00  0.00     0.035 A 
HETATM   32 CL   UNL     1      44.395 -21.673   1.090  1.00  0.00    -0.084 Cl
HETATM   33  C   UNL     1      44.237 -20.270   3.390  1.00  0.00     0.039 A 
BRANCH  28  34
HETATM   34  O   UNL     1      44.549 -21.057   6.947  1.00  0.00    -0.355 OA
HETATM   35  C   UNL     1      43.340 -21.190   7.681  1.00  0.00     0.210 C 
ENDBRANCH  28  34
ENDBRANCH  12  27
TORSDOF 4
ENDMDL
MODEL 2
REMARK VINA RESULT:      -9.0      2.962      5.136
REMARK  4 active torsions:
REMARK  status: ('A' for Active; 'I' for Inactive)
REMARK    1  A    between atoms: C_2  and  N_3 
REMARK       I    between atoms: N_3  and  C_4 
REMARK       I    between atoms: C_4  and  N_5 
REMARK    2  A    between atoms: N_5  and  C_6 
REMARK    3  A    between atoms: C_17  and  C_18 
REMARK    4  A    between atoms: C_19  and  O_20 
ROOT
HETATM    1  C   UNL     1      41.232 -11.140   6.180  1.00  0.00     0.120 C 
HETATM    2  C   UNL     1      41.057 -12.642   5.870  1.00  0.00     0.202 C 
HETATM    3  N   UNL     1      41.366 -12.764   4.457  1.00  0.00    -0.332 N 
HETATM    4  C   UNL     1      41.620 -13.938   3.800  1.00  0.00     0.257 C 
HETATM    5  O   UNL     1      41.973 -13.975   2.625  1.00  0.00    -0.267 OA
HETATM    6  C   UNL     1      41.468 -15.206   4.552  1.00  0.00     0.059 A 
HETATM    7  C   UNL     1      40.403 -15.471   5.429  1.00  0.00     0.050 A 
HETATM    8  N   UNL     1      39.452 -14.528   5.872  1.00  0.00    -0.324 N 
HETATM    9  C   UNL     1      39.640 -13.179   6.078  1.00  0.00     0.247 C 
HETATM   10  O   UNL     1      38.715 -12.504   6.529  1.00  0.00    -0.271 OA
HETATM   11  C   UNL     1      42.393 -16.217   4.238  1.00  0.00     0.031 A 
HETATM   12  C   UNL     1      42.284 -17.503   4.783  1.00  0.00    -0.022 A 
HETATM   13  C   UNL     1      41.183 -17.772   5.606  1.00  0.00     0.014 A 
HETATM   14  C   UNL     1      40.248 -16.776   5.913  1.00  0.00     0.031 A 
HETATM   15  C   UNL     1      41.290 -11.488   3.783  1.00  0.00     0.129 C 
HETATM   16  C   UNL     1      41.649 -10.479   4.854  1.00  0.00     0.048 C 
HETATM   17  H   UNL     1      38.581 -14.867   6.264  1.00  0.00     0.169 HD
ENDROOT
BRANCH   1  18
HETATM   18  N   UNL     1      42.200 -10.850   7.246  1.00  0.00    -0.336 N 
HETATM   19  C   UNL     1      42.030 -10.543   8.559  1.00  0.00     0.316 C 
HETATM   20  N   UNL     1      40.748 -10.528   9.018  1.00  0.00    -0.339 N 
HETATM   21  O   UNL     1      43.011 -10.245   9.231  1.00  0.00    -0.247 OA
HETATM   22  H   UNL     1      40.095 -11.136   8.551  1.00  0.00     0.164 HD
HETATM   23  H   UNL     1      43.178 -10.820   6.984  1.00  0.00     0.164 HD
BRANCH  20  24
HETATM   24  C   UNL     1      40.358 -10.098  10.356  1.00  0.00     0.078 C 
HETATM   25  C   UNL     1      40.398 -11.240  11.371  1.00  0.00     0.032 C 
HETATM   26  C   UNL     1      39.013  -9.380  10.364  1.00  0.00     0.032 C 
ENDBRANCH  20  24
ENDBRANCH   1  18
BRANCH  12  27
HETATM   27  C   UNL     1      43.304 -18.529   4.488  1.00  0.00     0.009 A 
HETATM   28  C   UNL     1      44.427 -18.738   5.324  1.00  0.00     0.079 A 
HETATM   29  C   UNL     1      45.386 -19.698   4.977  1.00  0.00     0.039 A 
HETATM   30  C   UNL     1      45.244 -20.454   3.811  1.00  0.00     0.026 A 
HETATM   31  C   UNL     1      44.142 -20.256   2.988  1.00  0.00     0.035 A 
HETATM   32 CL   UNL     1      43.971 -21.184   1.550  1.00  0.00    -0.084 Cl
HETATM   33  C   UNL     1      43.179 -19.306   3.319  1.00  0.00     0.039 A 
BRANCH  28  34
HETATM   34  O   UNL     1      44.510 -17.940   6.438  1.00  0.00    -0.355 OA
HETATM   35  C   UNL     1      44.268 -18.538   7.705  1.00  0.00     0.210 C 
ENDBRANCH  28  34
ENDBRANCH  12  27
TORSDOF 4
ENDMDL
MODEL 3
REMARK VINA RESULT:      -9.0      3.251      7.290
REMARK  4 active torsions:
REMARK  status: ('A' for Active; 'I' for Inactive)
REMARK    1  A    between atoms: C_2  and  N_3 
REMARK       I    between atoms: N_3  and  C_4 
REMARK       I    between atoms: C_4  and  N_5 
REMARK    2  A    between atoms: N_5  and  C_6 
REMARK    3  A    between atoms: C_17  and  C_18 
REMARK    4  A    between atoms: C_19  and  O_20 
ROOT
HETATM    1  C   UNL     1      43.349 -17.130   6.293  1.00  0.00     0.120 C 
HETATM    2  C   UNL     1      42.515 -16.376   5.236  1.00  0.00     0.202 C 
HETATM    3  N   UNL     1      42.986 -15.005   5.306  1.00  0.00    -0.332 N 
HETATM    4  C   UNL     1      42.744 -14.035   4.372  1.00  0.00     0.257 C 
HETATM    5  O   UNL     1      43.249 -12.917   4.432  1.00  0.00    -0.267 OA
HETATM    6  C   UNL     1      41.843 -14.363   3.241  1.00  0.00     0.059 A 
HETATM    7  C   UNL     1      40.642 -15.078   3.382  1.00  0.00     0.050 A 
HETATM    8  N   UNL     1      40.220 -15.748   4.550  1.00  0.00    -0.324 N 
HETATM    9  C   UNL     1      41.009 -16.358   5.500  1.00  0.00     0.247 C 
HETATM   10  O   UNL     1      40.474 -16.956   6.433  1.00  0.00    -0.271 OA
HETATM   11  C   UNL     1      42.186 -13.794   2.003  1.00  0.00     0.031 A 
HETATM   12  C   UNL     1      41.352 -13.922   0.883  1.00  0.00    -0.022 A 
HETATM   13  C   UNL     1      40.129 -14.583   1.054  1.00  0.00     0.014 A 
HETATM   14  C   UNL     1      39.772 -15.140   2.287  1.00  0.00     0.031 A 
HETATM   15  C   UNL     1      43.683 -14.744   6.545  1.00  0.00     0.129 C 
HETATM   16  C   UNL     1      44.283 -16.082   6.924  1.00  0.00     0.048 C 
HETATM   17  H   UNL     1      39.239 -15.987   4.642  1.00  0.00     0.169 HD
ENDROOT
BRANCH   1  18
HETATM   18  N   UNL     1      44.109 -18.271   5.764  1.00  0.00    -0.336 N 
HETATM   19  C   UNL     1      44.326 -18.699   4.493  1.00  0.00     0.316 C 
HETATM   20  N   UNL     1      43.789 -17.940   3.498  1.00  0.00    -0.339 N 
HETATM   21  O   UNL     1      44.927 -19.751   4.315  1.00  0.00    -0.247 OA
HETATM   22  H   UNL     1      43.677 -16.958   3.690  1.00  0.00     0.164 HD
HETATM   23  H   UNL     1      44.524 -18.901   6.441  1.00  0.00     0.164 HD
BRANCH  20  24
HETATM   24  C   UNL     1      43.804 -18.305   2.086  1.00  0.00     0.078 C 
HETATM   25  C   UNL     1      43.520 -17.114   1.172  1.00  0.00     0.032 C 
HETATM   26  C   UNL     1      42.884 -19.483   1.782  1.00  0.00     0.032 C 
ENDBRANCH  20  24
ENDBRANCH   1  18
BRANCH  12  27
HETATM   27  C   UNL     1      41.763 -13.370  -0.422  1.00  0.00     0.009 A 
HETATM   28  C   UNL     1      41.609 -14.095  -1.629  1.00  0.00     0.079 A 
HETATM   29  C   UNL     1      42.052 -13.542  -2.837  1.00  0.00     0.039 A 
HETATM   30  C   UNL     1      42.645 -12.277  -2.863  1.00  0.00     0.026 A 
HETATM   31  C   UNL     1      42.796 -11.559  -1.682  1.00  0.00     0.035 A 
HETATM   32 CL   UNL     1      43.530 -10.005  -1.715  1.00  0.00    -0.084 Cl
HETATM   33  C   UNL     1      42.360 -12.095  -0.473  1.00  0.00     0.039 A 
BRANCH  28  34
HETATM   34  O   UNL     1      41.041 -15.341  -1.520  1.00  0.00    -0.355 OA
HETATM   35  C   UNL     1      40.641 -15.997  -2.716  1.00  0.00     0.210 C 
ENDBRANCH  28  34
ENDBRANCH  12  27
TORSDOF 4
ENDMDL
MODEL 4
REMARK VINA RESULT:      -8.8      2.972      4.287
REMARK  4 active torsions:
REMARK  status: ('A' for Active; 'I' for Inactive)
REMARK    1  A    between atoms: C_2  and  N_3 
REMARK       I    between atoms: N_3  and  C_4 
REMARK       I    between atoms: C_4  and  N_5 
REMARK    2  A    between atoms: N_5  and  C_6 
REMARK    3  A    between atoms: C_17  and  C_18 
REMARK    4  A    between atoms: C_19  and  O_20 
ROOT
HETATM    1  C   UNL     1      40.539 -13.019  -0.541  1.00  0.00     0.120 C 
HETATM    2  C   UNL     1      41.096 -13.721   0.717  1.00  0.00     0.202 C 
HETATM    3  N   UNL     1      40.073 -14.683   1.083  1.00  0.00    -0.332 N 
HETATM    4  C   UNL     1      40.239 -15.722   1.958  1.00  0.00     0.257 C 
HETATM    5  O   UNL     1      39.370 -16.565   2.158  1.00  0.00    -0.267 OA
HETATM    6  C   UNL     1      41.531 -15.828   2.679  1.00  0.00     0.059 A 
HETATM    7  C   UNL     1      42.202 -14.731   3.243  1.00  0.00     0.050 A 
HETATM    8  N   UNL     1      41.867 -13.375   3.044  1.00  0.00    -0.324 N 
HETATM    9  C   UNL     1      41.314 -12.802   1.919  1.00  0.00     0.247 C 
HETATM   10  O   UNL     1      41.140 -11.585   1.887  1.00  0.00    -0.271 OA
HETATM   11  C   UNL     1      42.002 -17.134   2.897  1.00  0.00     0.031 A 
HETATM   12  C   UNL     1      43.144 -17.379   3.673  1.00  0.00    -0.022 A 
HETATM   13  C   UNL     1      43.767 -16.281   4.281  1.00  0.00     0.014 A 
HETATM   14  C   UNL     1      43.296 -14.979   4.082  1.00  0.00     0.031 A 
HETATM   15  C   UNL     1      38.800 -14.366   0.476  1.00  0.00     0.129 C 
HETATM   16  C   UNL     1      39.169 -13.663  -0.814  1.00  0.00     0.048 C 
HETATM   17  H   UNL     1      42.221 -12.688   3.700  1.00  0.00     0.169 HD
ENDROOT
BRANCH   1  18
HETATM   18  N   UNL     1      41.412 -13.105  -1.719  1.00  0.00    -0.336 N 
HETATM   19  C   UNL     1      42.293 -12.221  -2.255  1.00  0.00     0.316 C 
HETATM   20  N   UNL     1      42.452 -11.044  -1.589  1.00  0.00    -0.339 N 
HETATM   21  O   UNL     1      42.840 -12.496  -3.316  1.00  0.00    -0.247 OA
HETATM   22  H   UNL     1      42.297 -11.064  -0.594  1.00  0.00     0.164 HD
HETATM   23  H   UNL     1      41.339 -13.942  -2.285  1.00  0.00     0.164 HD
BRANCH  20  24
HETATM   24  C   UNL     1      43.251  -9.925  -2.075  1.00  0.00     0.078 C 
HETATM   25  C   UNL     1      43.892  -9.128  -0.940  1.00  0.00     0.032 C 
HETATM   26  C   UNL     1      42.468  -9.024  -3.025  1.00  0.00     0.032 C 
ENDBRANCH  20  24
ENDBRANCH   1  18
BRANCH  12  27
HETATM   27  C   UNL     1      43.656 -18.754   3.836  1.00  0.00     0.009 A 
HETATM   28  C   UNL     1      44.121 -19.242   5.081  1.00  0.00     0.079 A 
HETATM   29  C   UNL     1      44.635 -20.542   5.173  1.00  0.00     0.039 A 
HETATM   30  C   UNL     1      44.691 -21.364   4.045  1.00  0.00     0.026 A 
HETATM   31  C   UNL     1      44.232 -20.892   2.821  1.00  0.00     0.035 A 
HETATM   32 CL   UNL     1      44.307 -21.904   1.433  1.00  0.00    -0.084 Cl
HETATM   33  C   UNL     1      43.718 -19.602   2.712  1.00  0.00     0.039 A 
BRANCH  28  34
HETATM   34  O   UNL     1      44.057 -18.367   6.137  1.00  0.00    -0.355 OA
HETATM   35  C   UNL     1      43.932 -18.910   7.445  1.00  0.00     0.210 C 
ENDBRANCH  28  34
ENDBRANCH  12  27
TORSDOF 4
ENDMDL
MODEL 5
REMARK VINA RESULT:      -8.8      2.750      7.118
REMARK  4 active torsions:
REMARK  status: ('A' for Active; 'I' for Inactive)
REMARK    1  A    between atoms: C_2  and  N_3 
REMARK       I    between atoms: N_3  and  C_4 
REMARK       I    between atoms: C_4  and  N_5 
REMARK    2  A    between atoms: N_5  and  C_6 
REMARK    3  A    between atoms: C_17  and  C_18 
REMARK    4  A    between atoms: C_19  and  O_20 
ROOT
HETATM    1  C   UNL     1      43.509 -17.682   6.490  1.00  0.00     0.120 C 
HETATM    2  C   UNL     1      42.660 -16.801   5.547  1.00  0.00     0.202 C 
HETATM    3  N   UNL     1      43.383 -15.545   5.469  1.00  0.00    -0.332 N 
HETATM    4  C   UNL     1      43.168 -14.564   4.539  1.00  0.00     0.257 C 
HETATM    5  O   UNL     1      43.874 -13.563   4.458  1.00  0.00    -0.267 OA
HETATM    6  C   UNL     1      42.042 -14.735   3.591  1.00  0.00     0.059 A 
HETATM    7  C   UNL     1      40.771 -15.204   3.964  1.00  0.00     0.050 A 
HETATM    8  N   UNL     1      40.438 -15.759   5.218  1.00  0.00    -0.324 N 
HETATM    9  C   UNL     1      41.252 -16.491   6.055  1.00  0.00     0.247 C 
HETATM   10  O   UNL     1      40.784 -16.958   7.093  1.00  0.00    -0.271 OA
HETATM   11  C   UNL     1      42.266 -14.266   2.286  1.00  0.00     0.031 A 
HETATM   12  C   UNL     1      41.243 -14.253   1.327  1.00  0.00    -0.022 A 
HETATM   13  C   UNL     1      39.966 -14.664   1.730  1.00  0.00     0.014 A 
HETATM   14  C   UNL     1      39.729 -15.119   3.033  1.00  0.00     0.031 A 
HETATM   15  C   UNL     1      44.318 -15.399   6.561  1.00  0.00     0.129 C 
HETATM   16  C   UNL     1      44.715 -16.820   6.904  1.00  0.00     0.048 C 
HETATM   17  H   UNL     1      39.461 -15.804   5.483  1.00  0.00     0.169 HD
ENDROOT
BRANCH   1  18
HETATM   18  N   UNL     1      43.942 -18.956   5.901  1.00  0.00    -0.336 N 
HETATM   19  C   UNL     1      44.165 -19.325   4.613  1.00  0.00     0.316 C 
HETATM   20  N   UNL     1      44.005 -18.358   3.669  1.00  0.00    -0.339 N 
HETATM   21  O   UNL     1      44.433 -20.496   4.369  1.00  0.00    -0.247 OA
HETATM   22  H   UNL     1      44.176 -17.409   3.961  1.00  0.00     0.164 HD
HETATM   23  H   UNL     1      44.063 -19.738   6.535  1.00  0.00     0.164 HD
BRANCH  20  24
HETATM   24  C   UNL     1      44.073 -18.593   2.231  1.00  0.00     0.078 C 
HETATM   25  C   UNL     1      44.211 -17.296   1.434  1.00  0.00     0.032 C 
HETATM   26  C   UNL     1      42.913 -19.445   1.727  1.00  0.00     0.032 C 
ENDBRANCH  20  24
ENDBRANCH   1  18
BRANCH  12  27
HETATM   27  C   UNL     1      41.519 -13.814  -0.055  1.00  0.00     0.009 A 
HETATM   28  C   UNL     1      42.089 -12.550  -0.345  1.00  0.00     0.079 A 
HETATM   29  C   UNL     1      42.294 -12.166  -1.676  1.00  0.00     0.039 A 
HETATM   30  C   UNL     1      41.942 -13.021  -2.724  1.00  0.00     0.026 A 
HETATM   31  C   UNL     1      41.386 -14.264  -2.445  1.00  0.00     0.035 A 
HETATM   32 CL   UNL     1      40.949 -15.313  -3.736  1.00  0.00    -0.084 Cl
HETATM   33  C   UNL     1      41.176 -14.661  -1.127  1.00  0.00     0.039 A 
BRANCH  28  34
HETATM   34  O   UNL     1      42.385 -11.757   0.736  1.00  0.00    -0.355 OA
HETATM   35  C   UNL     1      41.566 -10.618   0.970  1.00  0.00     0.210 C 
ENDBRANCH  28  34
ENDBRANCH  12  27
TORSDOF 4
ENDMDL
MODEL 6
REMARK VINA RESULT:      -8.7      3.224      5.844
REMARK  4 active torsions:
REMARK  status: ('A' for Active; 'I' for Inactive)
REMARK    1  A    between atoms: C_2  and  N_3 
REMARK       I    between atoms: N_3  and  C_4 
REMARK       I    between atoms: C_4  and  N_5 
REMARK    2  A    between atoms: N_5  and  C_6 
REMARK    3  A    between atoms: C_17  and  C_18 
REMARK    4  A    between atoms: C_19  and  O_20 
ROOT
HETATM    1  C   UNL     1      41.472 -10.767   6.877  1.00  0.00     0.120 C 
HETATM    2  C   UNL     1      41.173 -12.205   6.401  1.00  0.00     0.202 C 
HETATM    3  N   UNL     1      41.196 -12.125   4.952  1.00  0.00    -0.332 N 
HETATM    4  C   UNL     1      41.264 -13.193   4.100  1.00  0.00     0.257 C 
HETATM    5  O   UNL     1      41.379 -13.065   2.884  1.00  0.00    -0.267 OA
HETATM    6  C   UNL     1      41.205 -14.555   4.682  1.00  0.00     0.059 A 
HETATM    7  C   UNL     1      40.320 -14.928   5.707  1.00  0.00     0.050 A 
HETATM    8  N   UNL     1      39.516 -14.045   6.458  1.00  0.00    -0.324 N 
HETATM    9  C   UNL     1      39.801 -12.743   6.809  1.00  0.00     0.247 C 
HETATM   10  O   UNL     1      39.013 -12.126   7.525  1.00  0.00    -0.271 OA
HETATM   11  C   UNL     1      42.004 -15.524   4.052  1.00  0.00     0.031 A 
HETATM   12  C   UNL     1      41.947 -16.874   4.422  1.00  0.00    -0.022 A 
HETATM   13  C   UNL     1      41.015 -17.242   5.402  1.00  0.00     0.014 A 
HETATM   14  C   UNL     1      40.203 -16.287   6.025  1.00  0.00     0.031 A 
HETATM   15  C   UNL     1      41.047 -10.763   4.491  1.00  0.00     0.129 C 
HETATM   16  C   UNL     1      41.652  -9.927   5.600  1.00  0.00     0.048 C 
HETATM   17  H   UNL     1      38.724 -14.423   6.964  1.00  0.00     0.169 HD
ENDROOT
BRANCH   1  18
HETATM   18  N   UNL     1      42.641 -10.652   7.759  1.00  0.00    -0.336 N 
HETATM   19  C   UNL     1      42.750 -10.632   9.113  1.00  0.00     0.316 C 
HETATM   20  N   UNL     1      41.594 -10.781   9.817  1.00  0.00    -0.339 N 
HETATM   21  O   UNL     1      43.847 -10.427   9.618  1.00  0.00    -0.247 OA
HETATM   22  H   UNL     1      40.862 -11.314   9.376  1.00  0.00     0.164 HD
HETATM   23  H   UNL     1      43.541 -10.515   7.314  1.00  0.00     0.164 HD
BRANCH  20  24
HETATM   24  C   UNL     1      41.492 -10.658  11.267  1.00  0.00     0.078 C 
HETATM   25  C   UNL     1      40.324 -11.461  11.840  1.00  0.00     0.032 C 
HETATM   26  C   UNL     1      41.456  -9.204  11.724  1.00  0.00     0.032 C 
ENDBRANCH  20  24
ENDBRANCH   1  18
BRANCH  12  27
HETATM   27  C   UNL     1      42.842 -17.863   3.789  1.00  0.00     0.009 A 
HETATM   28  C   UNL     1      43.044 -17.907   2.388  1.00  0.00     0.079 A 
HETATM   29  C   UNL     1      43.874 -18.890   1.834  1.00  0.00     0.039 A 
HETATM   30  C   UNL     1      44.506 -19.830   2.653  1.00  0.00     0.026 A 
HETATM   31  C   UNL     1      44.314 -19.788   4.029  1.00  0.00     0.035 A 
HETATM   32 CL   UNL     1      45.090 -20.947   5.035  1.00  0.00    -0.084 Cl
HETATM   33  C   UNL     1      43.493 -18.816   4.596  1.00  0.00     0.039 A 
BRANCH  28  34
HETATM   34  O   UNL     1      42.369 -16.968   1.648  1.00  0.00    -0.355 OA
HETATM   35  C   UNL     1      41.233 -17.395   0.908  1.00  0.00     0.210 C 
ENDBRANCH  28  34
ENDBRANCH  12  27
TORSDOF 4
ENDMDL
MODEL 7
REMARK VINA RESULT:      -8.4      3.239      5.827
REMARK  4 active torsions:
REMARK  status: ('A' for Active; 'I' for Inactive)
REMARK    1  A    between atoms: C_2  and  N_3 
REMARK       I    between atoms: N_3  and  C_4 
REMARK       I    between atoms: C_4  and  N_5 
REMARK    2  A    between atoms: N_5  and  C_6 
REMARK    3  A    between atoms: C_17  and  C_18 
REMARK    4  A    between atoms: C_19  and  O_20 
ROOT
HETATM    1  C   UNL     1      41.448 -12.031  -1.712  1.00  0.00     0.120 C 
HETATM    2  C   UNL     1      41.154 -13.190  -0.736  1.00  0.00     0.202 C 
HETATM    3  N   UNL     1      41.155 -14.380  -1.567  1.00  0.00    -0.332 N 
HETATM    4  C   UNL     1      41.219 -15.667  -1.107  1.00  0.00     0.257 C 
HETATM    5  O   UNL     1      41.316 -16.634  -1.857  1.00  0.00    -0.267 OA
HETATM    6  C   UNL     1      41.179 -15.888   0.359  1.00  0.00     0.059 A 
HETATM    7  C   UNL     1      40.312 -15.205   1.227  1.00  0.00     0.050 A 
HETATM    8  N   UNL     1      39.512 -14.095   0.882  1.00  0.00    -0.324 N 
HETATM    9  C   UNL     1      39.792 -13.114  -0.044  1.00  0.00     0.247 C 
HETATM   10  O   UNL     1      39.009 -12.175  -0.181  1.00  0.00    -0.271 OA
HETATM   11  C   UNL     1      41.976 -16.940   0.840  1.00  0.00     0.031 A 
HETATM   12  C   UNL     1      41.935 -17.335   2.184  1.00  0.00    -0.022 A 
HETATM   13  C   UNL     1      41.020 -16.688   3.025  1.00  0.00     0.014 A 
HETATM   14  C   UNL     1      40.210 -15.649   2.552  1.00  0.00     0.031 A 
HETATM   15  C   UNL     1      40.990 -14.054  -2.965  1.00  0.00     0.129 C 
HETATM   16  C   UNL     1      41.604 -12.676  -3.101  1.00  0.00     0.048 C 
HETATM   17  H   UNL     1      38.730 -13.857   1.481  1.00  0.00     0.169 HD
ENDROOT
BRANCH   1  18
HETATM   18  N   UNL     1      42.629 -11.230  -1.363  1.00  0.00    -0.336 N 
HETATM   19  C   UNL     1      42.781 -10.159  -0.539  1.00  0.00     0.316 C 
HETATM   20  N   UNL     1      41.669  -9.747   0.130  1.00  0.00    -0.339 N 
HETATM   21  O   UNL     1      43.868  -9.598  -0.490  1.00  0.00    -0.247 OA
HETATM   22  H   UNL     1      40.980 -10.451   0.337  1.00  0.00     0.164 HD
HETATM   23  H   UNL     1      43.496 -11.457  -1.836  1.00  0.00     0.164 HD
BRANCH  20  24
HETATM   24  C   UNL     1      41.604  -8.546   0.954  1.00  0.00     0.078 C 
HETATM   25  C   UNL     1      40.754  -8.744   2.209  1.00  0.00     0.032 C 
HETATM   26  C   UNL     1      41.162  -7.321   0.160  1.00  0.00     0.032 C 
ENDBRANCH  20  24
ENDBRANCH   1  18
BRANCH  12  27
HETATM   27  C   UNL     1      42.828 -18.400   2.679  1.00  0.00     0.009 A 
HETATM   28  C   UNL     1      43.587 -18.256   3.866  1.00  0.00     0.079 A 
HETATM   29  C   UNL     1      44.450 -19.282   4.271  1.00  0.00     0.039 A 
HETATM   30  C   UNL     1      44.569 -20.450   3.513  1.00  0.00     0.026 A 
HETATM   31  C   UNL     1      43.824 -20.599   2.349  1.00  0.00     0.035 A 
HETATM   32 CL   UNL     1      43.976 -22.034   1.415  1.00  0.00    -0.084 Cl
HETATM   33  C   UNL     1      42.961 -19.588   1.933  1.00  0.00     0.039 A 
BRANCH  28  34
HETATM   34  O   UNL     1      43.435 -17.071   4.542  1.00  0.00    -0.355 OA
HETATM   35  C   UNL     1      43.801 -17.037   5.915  1.00  0.00     0.210 C 
ENDBRANCH  28  34
ENDBRANCH  12  27
TORSDOF 4
ENDMDL
MODEL 8
REMARK VINA RESULT:      -8.2      3.481      5.142
REMARK  4 active torsions:
REMARK  status: ('A' for Active; 'I' for Inactive)
REMARK    1  A    between atoms: C_2  and  N_3 
REMARK       I    between atoms: N_3  and  C_4 
REMARK       I    between atoms: C_4  and  N_5 
REMARK    2  A    between atoms: N_5  and  C_6 
REMARK    3  A    between atoms: C_17  and  C_18 
REMARK    4  A    between atoms: C_19  and  O_20 
ROOT
HETATM    1  C   UNL     1      40.044 -12.707  -0.853  1.00  0.00     0.120 C 
HETATM    2  C   UNL     1      40.614 -13.189   0.498  1.00  0.00     0.202 C 
HETATM    3  N   UNL     1      39.645 -14.156   0.981  1.00  0.00    -0.332 N 
HETATM    4  C   UNL     1      39.856 -15.051   1.995  1.00  0.00     0.257 C 
HETATM    5  O   UNL     1      39.036 -15.913   2.298  1.00  0.00    -0.267 OA
HETATM    6  C   UNL     1      41.134 -14.971   2.742  1.00  0.00     0.059 A 
HETATM    7  C   UNL     1      41.721 -13.764   3.157  1.00  0.00     0.050 A 
HETATM    8  N   UNL     1      41.307 -12.473   2.765  1.00  0.00    -0.324 N 
HETATM    9  C   UNL     1      40.745 -12.100   1.564  1.00  0.00     0.247 C 
HETATM   10  O   UNL     1      40.496 -10.913   1.358  1.00  0.00    -0.271 OA
HETATM   11  C   UNL     1      41.681 -16.199   3.148  1.00  0.00     0.031 A 
HETATM   12  C   UNL     1      42.817 -16.259   3.967  1.00  0.00    -0.022 A 
HETATM   13  C   UNL     1      43.355 -15.049   4.425  1.00  0.00     0.014 A 
HETATM   14  C   UNL     1      42.808 -13.821   4.038  1.00  0.00     0.031 A 
HETATM   15  C   UNL     1      38.370 -14.010   0.316  1.00  0.00     0.129 C 
HETATM   16  C   UNL     1      38.724 -13.471  -1.054  1.00  0.00     0.048 C 
HETATM   17  H   UNL     1      41.601 -11.681   3.324  1.00  0.00     0.169 HD
ENDROOT
BRANCH   1  18
HETATM   18  N   UNL     1      40.949 -12.898  -1.995  1.00  0.00    -0.336 N 
HETATM   19  C   UNL     1      41.935 -12.115  -2.505  1.00  0.00     0.316 C 
HETATM   20  N   UNL     1      42.188 -10.951  -1.845  1.00  0.00    -0.339 N 
HETATM   21  O   UNL     1      42.492 -12.460  -3.540  1.00  0.00    -0.247 OA
HETATM   22  H   UNL     1      41.993 -10.941  -0.857  1.00  0.00     0.164 HD
HETATM   23  H   UNL     1      40.813 -13.732  -2.555  1.00  0.00     0.164 HD
BRANCH  20  24
HETATM   24  C   UNL     1      43.114  -9.925  -2.312  1.00  0.00     0.078 C 
HETATM   25  C   UNL     1      43.920  -9.305  -1.171  1.00  0.00     0.032 C 
HETATM   26  C   UNL     1      42.423  -8.863  -3.159  1.00  0.00     0.032 C 
ENDBRANCH  20  24
ENDBRANCH   1  18
BRANCH  12  27
HETATM   27  C   UNL     1      43.411 -17.561   4.329  1.00  0.00     0.009 A 
HETATM   28  C   UNL     1      44.096 -18.365   3.385  1.00  0.00     0.079 A 
HETATM   29  C   UNL     1      44.607 -19.611   3.770  1.00  0.00     0.039 A 
HETATM   30  C   UNL     1      44.448 -20.070   5.080  1.00  0.00     0.026 A 
HETATM   31  C   UNL     1      43.779 -19.284   6.011  1.00  0.00     0.035 A 
HETATM   32 CL   UNL     1      43.579 -19.852   7.622  1.00  0.00    -0.084 Cl
HETATM   33  C   UNL     1      43.265 -18.042   5.645  1.00  0.00     0.039 A 
BRANCH  28  34
HETATM   34  O   UNL     1      44.191 -17.858   2.112  1.00  0.00    -0.355 OA
HETATM   35  C   UNL     1      43.431 -18.485   1.088  1.00  0.00     0.210 C 
ENDBRANCH  28  34
ENDBRANCH  12  27
TORSDOF 4
ENDMDL
MODEL 9
REMARK VINA RESULT:      -8.1      2.825      5.253
REMARK  4 active torsions:
REMARK  status: ('A' for Active; 'I' for Inactive)
REMARK    1  A    between atoms: C_2  and  N_3 
REMARK       I    between atoms: N_3  and  C_4 
REMARK       I    between atoms: C_4  and  N_5 
REMARK    2  A    between atoms: N_5  and  C_6 
REMARK    3  A    between atoms: C_17  and  C_18 
REMARK    4  A    between atoms: C_19  and  O_20 
ROOT
HETATM    1  C   UNL     1      39.825 -11.897   5.156  1.00  0.00     0.120 C 
HETATM    2  C   UNL     1      40.191 -13.104   4.266  1.00  0.00     0.202 C 
HETATM    3  N   UNL     1      41.587 -12.901   3.927  1.00  0.00    -0.332 N 
HETATM    4  C   UNL     1      42.420 -13.847   3.394  1.00  0.00     0.257 C 
HETATM    5  O   UNL     1      43.618 -13.650   3.217  1.00  0.00    -0.267 OA
HETATM    6  C   UNL     1      41.839 -15.161   3.029  1.00  0.00     0.059 A 
HETATM    7  C   UNL     1      40.603 -15.316   2.378  1.00  0.00     0.050 A 
HETATM    8  N   UNL     1      39.659 -14.291   2.158  1.00  0.00    -0.324 N 
HETATM    9  C   UNL     1      39.408 -13.195   2.956  1.00  0.00     0.247 C 
HETATM   10  O   UNL     1      38.501 -12.423   2.649  1.00  0.00    -0.271 OA
HETATM   11  C   UNL     1      42.666 -16.276   3.247  1.00  0.00     0.031 A 
HETATM   12  C   UNL     1      42.289 -17.560   2.831  1.00  0.00    -0.022 A 
HETATM   13  C   UNL     1      41.084 -17.690   2.128  1.00  0.00     0.014 A 
HETATM   14  C   UNL     1      40.261 -16.583   1.892  1.00  0.00     0.031 A 
HETATM   15  C   UNL     1      41.992 -11.529   4.137  1.00  0.00     0.129 C 
HETATM   16  C   UNL     1      41.103 -11.048   5.265  1.00  0.00     0.048 C 
HETATM   17  H   UNL     1      38.948 -14.432   1.451  1.00  0.00     0.169 HD
ENDROOT
BRANCH   1  18
HETATM   18  N   UNL     1      39.310 -12.258   6.484  1.00  0.00    -0.336 N 
HETATM   19  C   UNL     1      39.430 -11.650   7.693  1.00  0.00     0.316 C 
HETATM   20  N   UNL     1      40.112 -10.472   7.714  1.00  0.00    -0.339 N 
HETATM   21  O   UNL     1      38.982 -12.209   8.686  1.00  0.00    -0.247 OA
HETATM   22  H   UNL     1      40.089  -9.921   6.871  1.00  0.00     0.164 HD
HETATM   23  H   UNL     1      38.809 -13.135   6.560  1.00  0.00     0.164 HD
BRANCH  20  24
HETATM   24  C   UNL     1      40.454  -9.741   8.929  1.00  0.00     0.078 C 
HETATM   25  C   UNL     1      40.379  -8.226   8.740  1.00  0.00     0.032 C 
HETATM   26  C   UNL     1      41.799 -10.172   9.506  1.00  0.00     0.032 C 
ENDBRANCH  20  24
ENDBRANCH   1  18
BRANCH  12  27
HETATM   27  C   UNL     1      43.146 -18.724   3.129  1.00  0.00     0.009 A 
HETATM   28  C   UNL     1      43.882 -18.830   4.335  1.00  0.00     0.079 A 
HETATM   29  C   UNL     1      44.712 -19.938   4.551  1.00  0.00     0.039 A 
HETATM   30  C   UNL     1      44.820 -20.943   3.586  1.00  0.00     0.026 A 
HETATM   31  C   UNL     1      44.097 -20.846   2.403  1.00  0.00     0.035 A 
HETATM   32 CL   UNL     1      44.235 -22.081   1.215  1.00  0.00    -0.084 Cl
HETATM   33  C   UNL     1      43.267 -19.751   2.172  1.00  0.00     0.039 A 
BRANCH  28  34
HETATM   34  O   UNL     1      43.743 -17.792   5.222  1.00  0.00    -0.355 OA
HETATM   35  C   UNL     1      44.636 -17.737   6.327  1.00  0.00     0.210 C 
ENDBRANCH  28  34
ENDBRANCH  12  27
TORSDOF 4
ENDMDL
MODEL 10
REMARK VINA RESULT:      -7.9      2.991      5.567
REMARK  4 active torsions:
REMARK  status: ('A' for Active; 'I' for Inactive)
REMARK    1  A    between atoms: C_2  and  N_3 
REMARK       I    between atoms: N_3  and  C_4 
REMARK       I    between atoms: C_4  and  N_5 
REMARK    2  A    between atoms: N_5  and  C_6 
REMARK    3  A    between atoms: C_17  and  C_18 
REMARK    4  A    between atoms: C_19  and  O_20 
ROOT
HETATM    1  C   UNL     1      41.344 -12.875  -0.936  1.00  0.00     0.120 C 
HETATM    2  C   UNL     1      41.084 -13.601   0.401  1.00  0.00     0.202 C 
HETATM    3  N   UNL     1      41.188 -15.013   0.078  1.00  0.00    -0.332 N 
HETATM    4  C   UNL     1      41.312 -16.027   0.989  1.00  0.00     0.257 C 
HETATM    5  O   UNL     1      41.495 -17.195   0.657  1.00  0.00    -0.267 OA
HETATM    6  C   UNL     1      41.230 -15.686   2.429  1.00  0.00     0.059 A 
HETATM    7  C   UNL     1      40.292 -14.790   2.967  1.00  0.00     0.050 A 
HETATM    8  N   UNL     1      39.440 -13.948   2.221  1.00  0.00    -0.324 N 
HETATM    9  C   UNL     1      39.695 -13.368   0.997  1.00  0.00     0.247 C 
HETATM   10  O   UNL     1      38.863 -12.605   0.508  1.00  0.00    -0.271 OA
HETATM   11  C   UNL     1      42.071 -16.423   3.279  1.00  0.00     0.031 A 
HETATM   12  C   UNL     1      42.003 -16.289   4.673  1.00  0.00    -0.022 A 
HETATM   13  C   UNL     1      41.021 -15.439   5.198  1.00  0.00     0.014 A 
HETATM   14  C   UNL     1      40.168 -14.712   4.360  1.00  0.00     0.031 A 
HETATM   15  C   UNL     1      41.055 -15.246  -1.342  1.00  0.00     0.129 C 
HETATM   16  C   UNL     1      41.590 -13.980  -1.979  1.00  0.00     0.048 C 
HETATM   17  H   UNL     1      38.624 -13.559   2.677  1.00  0.00     0.169 HD
ENDROOT
BRANCH   1  18
HETATM   18  N   UNL     1      42.461 -11.920  -0.899  1.00  0.00    -0.336 N 
HETATM   19  C   UNL     1      42.536 -10.637  -0.460  1.00  0.00     0.316 C 
HETATM   20  N   UNL     1      41.402 -10.115   0.085  1.00  0.00    -0.339 N 
HETATM   21  O   UNL     1      43.576 -10.011  -0.629  1.00  0.00    -0.247 OA
HETATM   22  H   UNL     1      40.774 -10.766   0.528  1.00  0.00     0.164 HD
HETATM   23  H   UNL     1      43.338 -12.223  -1.307  1.00  0.00     0.164 HD
BRANCH  20  24
HETATM   24  C   UNL     1      41.250  -8.723   0.491  1.00  0.00     0.078 C 
HETATM   25  C   UNL     1      41.149  -8.565   2.008  1.00  0.00     0.032 C 
HETATM   26  C   UNL     1      40.096  -8.032  -0.227  1.00  0.00     0.032 C 
ENDBRANCH  20  24
ENDBRANCH   1  18
BRANCH  12  27
HETATM   27  C   UNL     1      42.940 -17.027   5.542  1.00  0.00     0.009 A 
HETATM   28  C   UNL     1      43.981 -16.378   6.250  1.00  0.00     0.079 A 
HETATM   29  C   UNL     1      44.868 -17.130   7.031  1.00  0.00     0.039 A 
HETATM   30  C   UNL     1      44.734 -18.518   7.119  1.00  0.00     0.026 A 
HETATM   31  C   UNL     1      43.712 -19.160   6.430  1.00  0.00     0.035 A 
HETATM   32 CL   UNL     1      43.551 -20.868   6.537  1.00  0.00    -0.084 Cl
HETATM   33  C   UNL     1      42.821 -18.426   5.650  1.00  0.00     0.039 A 
BRANCH  28  34
HETATM   34  O   UNL     1      44.064 -15.016   6.093  1.00  0.00    -0.355 OA
HETATM   35  C   UNL     1      44.805 -14.279   7.056  1.00  0.00     0.210 C 
ENDBRANCH  28  34
ENDBRANCH  12  27
TORSDOF 4
ENDMDL
