MODEL 1
REMARK VINA RESULT:      -9.4      0.000      0.000
REMARK  7 active torsions:
REMARK  status: ('A' for Active; 'I' for Inactive)
REMARK    1  A    between atoms: O_2  and  C_3 
REMARK    2  A    between atoms: C_5  and  C_6 
REMARK       I    between atoms: C_6  and  N_7 
REMARK    3  A    between atoms: N_7  and  C_8 
REMARK    4  A    between atoms: C_8  and  N_9 
REMARK    5  A    between atoms: N_9  and  C_10 
REMARK    6  A    between atoms: C_13  and  N_14 
REMARK       I    between atoms: N_17  and  C_18 
REMARK    7  A    between atoms: C_18  and  C_19 
ROOT
HETATM    1  C   UNL     1      40.418 -11.555   6.452  1.00  0.00     0.034 A 
HETATM    2  C   UNL     1      41.500 -11.437   5.581  1.00  0.00     0.032 A 
HETATM    3  C   UNL     1      41.863 -12.497   4.736  1.00  0.00     0.031 A 
HETATM    4  C   UNL     1      41.176 -13.721   4.737  1.00  0.00     0.030 A 
HETATM    5  C   UNL     1      40.085 -13.809   5.622  1.00  0.00     0.031 A 
HETATM    6  C   UNL     1      39.699 -12.744   6.455  1.00  0.00     0.032 A 
ENDROOT
BRANCH   1   7
HETATM    7  N   UNL     1      40.205 -10.500   7.370  1.00  0.00    -0.333 N 
HETATM    8  H   UNL     1      40.520  -9.598   7.034  1.00  0.00     0.168 HD
BRANCH   7   9
HETATM    9  C   UNL     1      40.082 -10.578   8.716  1.00  0.00     0.179 C 
HETATM   10  S   UNL     1      38.676 -10.037   9.445  1.00  0.00    -0.040 SA
BRANCH   9  11
HETATM   11  N   UNL     1      41.037 -11.156   9.495  1.00  0.00    -0.299 N 
HETATM   12  C   UNL     1      42.165 -10.446   9.889  1.00  0.00     0.257 C 
HETATM   13  O   UNL     1      42.136  -9.410  10.544  1.00  0.00    -0.267 OA
HETATM   14  H   UNL     1      41.222 -12.085   9.154  1.00  0.00     0.171 HD
BRANCH  12  15
HETATM   15  C   UNL     1      43.501 -11.052   9.558  1.00  0.00     0.035 A 
HETATM   16  C   UNL     1      43.697 -11.987   8.531  1.00  0.00     0.053 A 
HETATM   17  C   UNL     1      44.974 -12.493   8.251  1.00  0.00     0.069 A 
HETATM   18  C   UNL     1      46.070 -12.045   8.985  1.00  0.00     0.037 A 
HETATM   19  C   UNL     1      45.892 -11.101   9.997  1.00  0.00     0.004 A 
HETATM   20  C   UNL     1      44.617 -10.610  10.283  1.00  0.00     0.017 A 
BRANCH  17  21
HETATM   21  O   UNL     1      45.007 -13.408   7.235  1.00  0.00    -0.356 OA
HETATM   22  C   UNL     1      44.220 -14.583   7.395  1.00  0.00     0.210 C 
ENDBRANCH  17  21
ENDBRANCH  12  15
ENDBRANCH   9  11
ENDBRANCH   7   9
ENDBRANCH   1   7
BRANCH   4  23
HETATM   23  N   UNL     1      41.584 -14.831   3.977  1.00  0.00    -0.378 N 
HETATM   24  C   UNL     1      41.852 -16.106   4.683  1.00  0.00     0.143 C 
HETATM   25  C   UNL     1      41.978 -17.285   3.701  1.00  0.00     0.146 C 
HETATM   26  N   UNL     1      42.919 -17.016   2.607  1.00  0.00    -0.345 N 
HETATM   27  C   UNL     1      43.485 -18.041   1.847  1.00  0.00     0.253 C 
HETATM   28  C   UNL     1      42.668 -15.746   1.923  1.00  0.00     0.146 C 
HETATM   29  O   UNL     1      43.747 -17.929   0.651  1.00  0.00    -0.267 OA
HETATM   30  C   UNL     1      42.566 -14.557   2.895  1.00  0.00     0.143 C 
BRANCH  27  31
HETATM   31  C   UNL     1      43.839 -19.317   2.514  1.00  0.00     0.032 A 
HETATM   32  C   UNL     1      43.630 -20.520   1.834  1.00  0.00     0.017 A 
HETATM   33  C   UNL     1      44.003 -21.727   2.428  1.00  0.00     0.001 A 
HETATM   34  C   UNL     1      44.597 -21.728   3.691  1.00  0.00     0.000 A 
HETATM   35  C   UNL     1      44.828 -20.526   4.360  1.00  0.00     0.001 A 
HETATM   36  C   UNL     1      44.458 -19.316   3.770  1.00  0.00     0.017 A 
ENDBRANCH  27  31
ENDBRANCH   4  23
TORSDOF 7
ENDMDL
MODEL 2
REMARK VINA RESULT:      -9.0      2.085      3.407
REMARK  7 active torsions:
REMARK  status: ('A' for Active; 'I' for Inactive)
REMARK    1  A    between atoms: O_2  and  C_3 
REMARK    2  A    between atoms: C_5  and  C_6 
REMARK       I    between atoms: C_6  and  N_7 
REMARK    3  A    between atoms: N_7  and  C_8 
REMARK    4  A    between atoms: C_8  and  N_9 
REMARK    5  A    between atoms: N_9  and  C_10 
REMARK    6  A    between atoms: C_13  and  N_14 
REMARK       I    between atoms: N_17  and  C_18 
REMARK    7  A    between atoms: C_18  and  C_19 
ROOT
HETATM    1  C   UNL     1      40.335 -11.838   6.761  1.00  0.00     0.034 A 
HETATM    2  C   UNL     1      39.493 -12.915   6.495  1.00  0.00     0.032 A 
HETATM    3  C   UNL     1      39.935 -14.002   5.725  1.00  0.00     0.031 A 
HETATM    4  C   UNL     1      41.225 -14.051   5.175  1.00  0.00     0.030 A 
HETATM    5  C   UNL     1      42.055 -12.953   5.465  1.00  0.00     0.031 A 
HETATM    6  C   UNL     1      41.630 -11.871   6.256  1.00  0.00     0.032 A 
ENDROOT
BRANCH   1   7
HETATM    7  N   UNL     1      39.773 -10.720   7.421  1.00  0.00    -0.333 N 
HETATM    8  H   UNL     1      39.266 -10.096   6.804  1.00  0.00     0.168 HD
BRANCH   7   9
HETATM    9  C   UNL     1      40.173 -10.148   8.580  1.00  0.00     0.179 C 
HETATM   10  S   UNL     1      39.539  -8.665   9.027  1.00  0.00    -0.040 SA
BRANCH   9  11
HETATM   11  N   UNL     1      41.022 -10.776   9.440  1.00  0.00    -0.299 N 
HETATM   12  C   UNL     1      40.647 -11.039  10.752  1.00  0.00     0.257 C 
HETATM   13  O   UNL     1      39.681 -11.724  11.071  1.00  0.00    -0.267 OA
HETATM   14  H   UNL     1      41.944 -10.384   9.336  1.00  0.00     0.171 HD
BRANCH  12  15
HETATM   15  C   UNL     1      41.547 -10.516  11.837  1.00  0.00     0.035 A 
HETATM   16  C   UNL     1      41.177 -10.449  13.188  1.00  0.00     0.053 A 
HETATM   17  C   UNL     1      42.073  -9.980  14.159  1.00  0.00     0.069 A 
HETATM   18  C   UNL     1      43.358  -9.596  13.784  1.00  0.00     0.037 A 
HETATM   19  C   UNL     1      43.746  -9.676  12.445  1.00  0.00     0.004 A 
HETATM   20  C   UNL     1      42.847 -10.130  11.479  1.00  0.00     0.017 A 
BRANCH  17  21
HETATM   21  O   UNL     1      41.566  -9.956  15.429  1.00  0.00    -0.356 OA
HETATM   22  C   UNL     1      41.755  -8.762  16.180  1.00  0.00     0.210 C 
ENDBRANCH  17  21
ENDBRANCH  12  15
ENDBRANCH   9  11
ENDBRANCH   7   9
ENDBRANCH   1   7
BRANCH   4  23
HETATM   23  N   UNL     1      41.655 -15.077   4.316  1.00  0.00    -0.378 N 
HETATM   24  C   UNL     1      41.860 -16.430   4.885  1.00  0.00     0.143 C 
HETATM   25  C   UNL     1      42.019 -17.494   3.784  1.00  0.00     0.146 C 
HETATM   26  N   UNL     1      43.024 -17.126   2.779  1.00  0.00    -0.345 N 
HETATM   27  C   UNL     1      43.613 -18.072   1.939  1.00  0.00     0.253 C 
HETATM   28  C   UNL     1      42.834 -15.782   2.231  1.00  0.00     0.146 C 
HETATM   29  O   UNL     1      43.942 -17.832   0.778  1.00  0.00    -0.267 OA
HETATM   30  C   UNL     1      42.700 -14.708   3.326  1.00  0.00     0.143 C 
BRANCH  27  31
HETATM   31  C   UNL     1      43.906 -19.424   2.474  1.00  0.00     0.032 A 
HETATM   32  C   UNL     1      43.589 -20.545   1.701  1.00  0.00     0.017 A 
HETATM   33  C   UNL     1      43.904 -21.822   2.169  1.00  0.00     0.001 A 
HETATM   34  C   UNL     1      44.546 -21.975   3.398  1.00  0.00     0.000 A 
HETATM   35  C   UNL     1      44.884 -20.856   4.159  1.00  0.00     0.001 A 
HETATM   36  C   UNL     1      44.573 -19.577   3.695  1.00  0.00     0.017 A 
ENDBRANCH  27  31
ENDBRANCH   4  23
TORSDOF 7
ENDMDL
MODEL 3
REMARK VINA RESULT:      -8.9      4.710      8.469
REMARK  7 active torsions:
REMARK  status: ('A' for Active; 'I' for Inactive)
REMARK    1  A    between atoms: O_2  and  C_3 
REMARK    2  A    between atoms: C_5  and  C_6 
REMARK       I    between atoms: C_6  and  N_7 
REMARK    3  A    between atoms: N_7  and  C_8 
REMARK    4  A    between atoms: C_8  and  N_9 
REMARK    5  A    between atoms: N_9  and  C_10 
REMARK    6  A    between atoms: C_13  and  N_14 
REMARK       I    between atoms: N_17  and  C_18 
REMARK    7  A    between atoms: C_18  and  C_19 
ROOT
HETATM    1  C   UNL     1      41.266 -16.595   5.439  1.00  0.00     0.034 A 
HETATM    2  C   UNL     1      41.413 -15.246   5.122  1.00  0.00     0.032 A 
HETATM    3  C   UNL     1      41.204 -14.786   3.813  1.00  0.00     0.031 A 
HETATM    4  C   UNL     1      40.858 -15.652   2.764  1.00  0.00     0.030 A 
HETATM    5  C   UNL     1      40.710 -17.007   3.114  1.00  0.00     0.031 A 
HETATM    6  C   UNL     1      40.894 -17.474   4.428  1.00  0.00     0.032 A 
ENDROOT
BRANCH   1   7
HETATM    7  N   UNL     1      41.633 -17.001   6.743  1.00  0.00    -0.333 N 
HETATM    8  H   UNL     1      41.131 -16.515   7.477  1.00  0.00     0.168 HD
BRANCH   7   9
HETATM    9  C   UNL     1      42.798 -17.560   7.145  1.00  0.00     0.179 C 
HETATM   10  S   UNL     1      43.581 -16.949   8.492  1.00  0.00    -0.040 SA
BRANCH   9  11
HETATM   11  N   UNL     1      43.320 -18.659   6.534  1.00  0.00    -0.299 N 
HETATM   12  C   UNL     1      44.447 -18.562   5.728  1.00  0.00     0.257 C 
HETATM   13  O   UNL     1      45.538 -18.152   6.111  1.00  0.00    -0.267 OA
HETATM   14  H   UNL     1      42.569 -19.206   6.144  1.00  0.00     0.171 HD
BRANCH  12  15
HETATM   15  C   UNL     1      44.328 -19.082   4.322  1.00  0.00     0.035 A 
HETATM   16  C   UNL     1      44.457 -20.437   3.982  1.00  0.00     0.053 A 
HETATM   17  C   UNL     1      44.304 -20.866   2.656  1.00  0.00     0.069 A 
HETATM   18  C   UNL     1      43.997 -19.939   1.663  1.00  0.00     0.037 A 
HETATM   19  C   UNL     1      43.846 -18.590   1.991  1.00  0.00     0.004 A 
HETATM   20  C   UNL     1      44.013 -18.165   3.309  1.00  0.00     0.017 A 
BRANCH  17  21
HETATM   21  O   UNL     1      44.475 -22.211   2.475  1.00  0.00    -0.356 OA
HETATM   22  C   UNL     1      44.692 -22.999   3.640  1.00  0.00     0.210 C 
ENDBRANCH  17  21
ENDBRANCH  12  15
ENDBRANCH   9  11
ENDBRANCH   7   9
ENDBRANCH   1   7
BRANCH   4  23
HETATM   23  N   UNL     1      40.744 -15.232   1.428  1.00  0.00    -0.378 N 
HETATM   24  C   UNL     1      39.458 -14.647   0.982  1.00  0.00     0.143 C 
HETATM   25  C   UNL     1      39.590 -13.958  -0.389  1.00  0.00     0.146 C 
HETATM   26  N   UNL     1      40.220 -14.818  -1.399  1.00  0.00    -0.345 N 
HETATM   27  C   UNL     1      40.089 -14.574  -2.766  1.00  0.00     0.253 C 
HETATM   28  C   UNL     1      41.480 -15.414  -0.951  1.00  0.00     0.146 C 
HETATM   29  O   UNL     1      40.978 -14.807  -3.583  1.00  0.00    -0.267 OA
HETATM   30  C   UNL     1      41.351 -16.127   0.407  1.00  0.00     0.143 C 
BRANCH  27  31
HETATM   31  C   UNL     1      38.800 -14.052  -3.281  1.00  0.00     0.032 A 
HETATM   32  C   UNL     1      38.620 -12.669  -3.387  1.00  0.00     0.017 A 
HETATM   33  C   UNL     1      37.432 -12.162  -3.917  1.00  0.00     0.001 A 
HETATM   34  C   UNL     1      36.434 -13.035  -4.351  1.00  0.00     0.000 A 
HETATM   35  C   UNL     1      36.622 -14.415  -4.268  1.00  0.00     0.001 A 
HETATM   36  C   UNL     1      37.809 -14.927  -3.741  1.00  0.00     0.017 A 
ENDBRANCH  27  31
ENDBRANCH   4  23
TORSDOF 7
ENDMDL
MODEL 4
REMARK VINA RESULT:      -8.7      3.086      9.712
REMARK  7 active torsions:
REMARK  status: ('A' for Active; 'I' for Inactive)
REMARK    1  A    between atoms: O_2  and  C_3 
REMARK    2  A    between atoms: C_5  and  C_6 
REMARK       I    between atoms: C_6  and  N_7 
REMARK    3  A    between atoms: N_7  and  C_8 
REMARK    4  A    between atoms: C_8  and  N_9 
REMARK    5  A    between atoms: N_9  and  C_10 
REMARK    6  A    between atoms: C_13  and  N_14 
REMARK       I    between atoms: N_17  and  C_18 
REMARK    7  A    between atoms: C_18  and  C_19 
ROOT
HETATM    1  C   UNL     1      41.917 -13.592   2.675  1.00  0.00     0.034 A 
HETATM    2  C   UNL     1      42.801 -13.715   3.744  1.00  0.00     0.032 A 
HETATM    3  C   UNL     1      42.528 -13.108   4.980  1.00  0.00     0.031 A 
HETATM    4  C   UNL     1      41.372 -12.341   5.194  1.00  0.00     0.030 A 
HETATM    5  C   UNL     1      40.494 -12.240   4.100  1.00  0.00     0.031 A 
HETATM    6  C   UNL     1      40.748 -12.863   2.865  1.00  0.00     0.032 A 
ENDROOT
BRANCH   1   7
HETATM    7  N   UNL     1      42.330 -14.109   1.425  1.00  0.00    -0.333 N 
HETATM    8  H   UNL     1      42.946 -13.489   0.912  1.00  0.00     0.168 HD
BRANCH   7   9
HETATM    9  C   UNL     1      41.705 -15.030   0.656  1.00  0.00     0.179 C 
HETATM   10  S   UNL     1      40.679 -14.521  -0.565  1.00  0.00    -0.040 SA
BRANCH   9  11
HETATM   11  N   UNL     1      41.943 -16.364   0.791  1.00  0.00    -0.299 N 
HETATM   12  C   UNL     1      41.392 -17.086   1.843  1.00  0.00     0.257 C 
HETATM   13  O   UNL     1      40.188 -17.192   2.053  1.00  0.00    -0.267 OA
HETATM   14  H   UNL     1      42.920 -16.542   0.623  1.00  0.00     0.171 HD
BRANCH  12  15
HETATM   15  C   UNL     1      42.345 -17.853   2.716  1.00  0.00     0.035 A 
HETATM   16  C   UNL     1      43.148 -18.906   2.251  1.00  0.00     0.053 A 
HETATM   17  C   UNL     1      44.041 -19.565   3.107  1.00  0.00     0.069 A 
HETATM   18  C   UNL     1      44.153 -19.155   4.434  1.00  0.00     0.037 A 
HETATM   19  C   UNL     1      43.375 -18.097   4.905  1.00  0.00     0.004 A 
HETATM   20  C   UNL     1      42.476 -17.453   4.053  1.00  0.00     0.017 A 
BRANCH  17  21
HETATM   21  O   UNL     1      44.743 -20.580   2.517  1.00  0.00    -0.356 OA
HETATM   22  C   UNL     1      43.988 -21.634   1.932  1.00  0.00     0.210 C 
ENDBRANCH  17  21
ENDBRANCH  12  15
ENDBRANCH   9  11
ENDBRANCH   7   9
ENDBRANCH   1   7
BRANCH   4  23
HETATM   23  N   UNL     1      41.127 -11.640   6.388  1.00  0.00    -0.378 N 
HETATM   24  C   UNL     1      42.250 -11.453   7.336  1.00  0.00     0.143 C 
HETATM   25  C   UNL     1      41.913 -10.414   8.421  1.00  0.00     0.146 C 
HETATM   26  N   UNL     1      40.630 -10.682   9.084  1.00  0.00    -0.345 N 
HETATM   27  C   UNL     1      40.311 -10.136  10.328  1.00  0.00     0.253 C 
HETATM   28  C   UNL     1      39.524 -10.889   8.148  1.00  0.00     0.146 C 
HETATM   29  O   UNL     1      39.170  -9.805  10.647  1.00  0.00    -0.267 OA
HETATM   30  C   UNL     1      39.844 -11.944   7.074  1.00  0.00     0.143 C 
BRANCH  27  31
HETATM   31  C   UNL     1      41.382  -9.987  11.343  1.00  0.00     0.032 A 
HETATM   32  C   UNL     1      41.833  -8.705  11.672  1.00  0.00     0.017 A 
HETATM   33  C   UNL     1      42.805  -8.544  12.660  1.00  0.00     0.001 A 
HETATM   34  C   UNL     1      43.313  -9.660  13.328  1.00  0.00     0.000 A 
HETATM   35  C   UNL     1      42.845 -10.938  13.017  1.00  0.00     0.001 A 
HETATM   36  C   UNL     1      41.872 -11.104  12.030  1.00  0.00     0.017 A 
ENDBRANCH  27  31
ENDBRANCH   4  23
TORSDOF 7
ENDMDL
MODEL 5
REMARK VINA RESULT:      -8.7      1.487      2.378
REMARK  7 active torsions:
REMARK  status: ('A' for Active; 'I' for Inactive)
REMARK    1  A    between atoms: O_2  and  C_3 
REMARK    2  A    between atoms: C_5  and  C_6 
REMARK       I    between atoms: C_6  and  N_7 
REMARK    3  A    between atoms: N_7  and  C_8 
REMARK    4  A    between atoms: C_8  and  N_9 
REMARK    5  A    between atoms: N_9  and  C_10 
REMARK    6  A    between atoms: C_13  and  N_14 
REMARK       I    between atoms: N_17  and  C_18 
REMARK    7  A    between atoms: C_18  and  C_19 
ROOT
HETATM    1  C   UNL     1      40.101 -11.850   6.401  1.00  0.00     0.034 A 
HETATM    2  C   UNL     1      39.298 -12.971   6.200  1.00  0.00     0.032 A 
HETATM    3  C   UNL     1      39.773 -14.077   5.478  1.00  0.00     0.031 A 
HETATM    4  C   UNL     1      41.057 -14.103   4.913  1.00  0.00     0.030 A 
HETATM    5  C   UNL     1      41.847 -12.960   5.137  1.00  0.00     0.031 A 
HETATM    6  C   UNL     1      41.389 -11.858   5.879  1.00  0.00     0.032 A 
ENDROOT
BRANCH   1   7
HETATM    7  N   UNL     1      39.503 -10.723   7.013  1.00  0.00    -0.333 N 
HETATM    8  H   UNL     1      39.003 -10.125   6.365  1.00  0.00     0.168 HD
BRANCH   7   9
HETATM    9  C   UNL     1      39.862 -10.112   8.166  1.00  0.00     0.179 C 
HETATM   10  S   UNL     1      39.675  -8.455   8.310  1.00  0.00    -0.040 SA
BRANCH   9  11
HETATM   11  N   UNL     1      40.300 -10.813   9.248  1.00  0.00    -0.299 N 
HETATM   12  C   UNL     1      40.139 -10.315  10.535  1.00  0.00     0.257 C 
HETATM   13  O   UNL     1      39.055 -10.047  11.043  1.00  0.00    -0.267 OA
HETATM   14  H   UNL     1      41.217 -11.182   9.050  1.00  0.00     0.171 HD
BRANCH  12  15
HETATM   15  C   UNL     1      41.378 -10.191  11.378  1.00  0.00     0.035 A 
HETATM   16  C   UNL     1      42.655 -10.575  10.943  1.00  0.00     0.053 A 
HETATM   17  C   UNL     1      43.778 -10.406  11.765  1.00  0.00     0.069 A 
HETATM   18  C   UNL     1      43.632  -9.827  13.023  1.00  0.00     0.037 A 
HETATM   19  C   UNL     1      42.369  -9.423  13.461  1.00  0.00     0.004 A 
HETATM   20  C   UNL     1      41.251  -9.606  12.646  1.00  0.00     0.017 A 
BRANCH  17  21
HETATM   21  O   UNL     1      44.952 -10.841  11.212  1.00  0.00    -0.356 OA
HETATM   22  C   UNL     1      44.869 -11.908  10.275  1.00  0.00     0.210 C 
ENDBRANCH  17  21
ENDBRANCH  12  15
ENDBRANCH   9  11
ENDBRANCH   7   9
ENDBRANCH   1   7
BRANCH   4  23
HETATM   23  N   UNL     1      41.516 -15.154   4.099  1.00  0.00    -0.378 N 
HETATM   24  C   UNL     1      41.734 -16.480   4.723  1.00  0.00     0.143 C 
HETATM   25  C   UNL     1      41.927 -17.582   3.664  1.00  0.00     0.146 C 
HETATM   26  N   UNL     1      42.942 -17.236   2.661  1.00  0.00    -0.345 N 
HETATM   27  C   UNL     1      43.559 -18.202   1.866  1.00  0.00     0.253 C 
HETATM   28  C   UNL     1      42.739 -15.916   2.061  1.00  0.00     0.146 C 
HETATM   29  O   UNL     1      43.903 -18.001   0.703  1.00  0.00    -0.267 OA
HETATM   30  C   UNL     1      42.572 -14.804   3.113  1.00  0.00     0.143 C 
BRANCH  27  31
HETATM   31  C   UNL     1      43.864 -19.528   2.456  1.00  0.00     0.032 A 
HETATM   32  C   UNL     1      43.572 -20.682   1.723  1.00  0.00     0.017 A 
HETATM   33  C   UNL     1      43.899 -21.936   2.243  1.00  0.00     0.001 A 
HETATM   34  C   UNL     1      44.529 -22.033   3.484  1.00  0.00     0.000 A 
HETATM   35  C   UNL     1      44.842 -20.881   4.206  1.00  0.00     0.001 A 
HETATM   36  C   UNL     1      44.518 -19.625   3.690  1.00  0.00     0.017 A 
ENDBRANCH  27  31
ENDBRANCH   4  23
TORSDOF 7
ENDMDL
MODEL 6
REMARK VINA RESULT:      -8.7      2.826     10.190
REMARK  7 active torsions:
REMARK  status: ('A' for Active; 'I' for Inactive)
REMARK    1  A    between atoms: O_2  and  C_3 
REMARK    2  A    between atoms: C_5  and  C_6 
REMARK       I    between atoms: C_6  and  N_7 
REMARK    3  A    between atoms: N_7  and  C_8 
REMARK    4  A    between atoms: C_8  and  N_9 
REMARK    5  A    between atoms: N_9  and  C_10 
REMARK    6  A    between atoms: C_13  and  N_14 
REMARK       I    between atoms: N_17  and  C_18 
REMARK    7  A    between atoms: C_18  and  C_19 
ROOT
HETATM    1  C   UNL     1      41.797 -13.966   3.566  1.00  0.00     0.034 A 
HETATM    2  C   UNL     1      40.550 -13.368   3.731  1.00  0.00     0.032 A 
HETATM    3  C   UNL     1      40.295 -12.520   4.819  1.00  0.00     0.031 A 
HETATM    4  C   UNL     1      41.266 -12.248   5.795  1.00  0.00     0.030 A 
HETATM    5  C   UNL     1      42.518 -12.860   5.600  1.00  0.00     0.031 A 
HETATM    6  C   UNL     1      42.790 -13.692   4.500  1.00  0.00     0.032 A 
ENDROOT
BRANCH   1   7
HETATM    7  N   UNL     1      41.931 -14.918   2.528  1.00  0.00    -0.333 N 
HETATM    8  H   UNL     1      41.640 -14.573   1.620  1.00  0.00     0.168 HD
BRANCH   7   9
HETATM    9  C   UNL     1      41.943 -16.267   2.630  1.00  0.00     0.179 C 
HETATM   10  S   UNL     1      40.638 -17.147   2.061  1.00  0.00    -0.040 SA
BRANCH   9  11
HETATM   11  N   UNL     1      43.022 -16.944   3.113  1.00  0.00    -0.299 N 
HETATM   12  C   UNL     1      43.838 -17.687   2.268  1.00  0.00     0.257 C 
HETATM   13  O   UNL     1      44.451 -17.221   1.314  1.00  0.00    -0.267 OA
HETATM   14  H   UNL     1      42.760 -17.413   3.965  1.00  0.00     0.171 HD
BRANCH  12  15
HETATM   15  C   UNL     1      44.041 -19.135   2.616  1.00  0.00     0.035 A 
HETATM   16  C   UNL     1      44.323 -19.590   3.913  1.00  0.00     0.053 A 
HETATM   17  C   UNL     1      44.472 -20.958   4.181  1.00  0.00     0.069 A 
HETATM   18  C   UNL     1      44.316 -21.884   3.152  1.00  0.00     0.037 A 
HETATM   19  C   UNL     1      44.017 -21.446   1.861  1.00  0.00     0.004 A 
HETATM   20  C   UNL     1      43.883 -20.083   1.595  1.00  0.00     0.017 A 
BRANCH  17  21
HETATM   21  O   UNL     1      44.761 -21.248   5.486  1.00  0.00    -0.356 OA
HETATM   22  C   UNL     1      43.978 -20.602   6.483  1.00  0.00     0.210 C 
ENDBRANCH  17  21
ENDBRANCH  12  15
ENDBRANCH   9  11
ENDBRANCH   7   9
ENDBRANCH   1   7
BRANCH   4  23
HETATM   23  N   UNL     1      41.003 -11.486   6.948  1.00  0.00    -0.378 N 
HETATM   24  C   UNL     1      42.109 -11.262   7.908  1.00  0.00     0.143 C 
HETATM   25  C   UNL     1      41.759 -10.168   8.934  1.00  0.00     0.146 C 
HETATM   26  N   UNL     1      40.460 -10.392   9.582  1.00  0.00    -0.345 N 
HETATM   27  C   UNL     1      40.120  -9.782  10.791  1.00  0.00     0.253 C 
HETATM   28  C   UNL     1      39.372 -10.635   8.634  1.00  0.00     0.146 C 
HETATM   29  O   UNL     1      38.977  -9.426  11.069  1.00  0.00    -0.267 OA
HETATM   30  C   UNL     1      39.704 -11.745   7.621  1.00  0.00     0.143 C 
BRANCH  27  31
HETATM   31  C   UNL     1      41.172  -9.593  11.819  1.00  0.00     0.032 A 
HETATM   32  C   UNL     1      41.679 -10.711  12.487  1.00  0.00     0.017 A 
HETATM   33  C   UNL     1      42.704 -10.556  13.422  1.00  0.00     0.001 A 
HETATM   34  C   UNL     1      43.229  -9.288  13.676  1.00  0.00     0.000 A 
HETATM   35  C   UNL     1      42.740  -8.174  12.993  1.00  0.00     0.001 A 
HETATM   36  C   UNL     1      41.716  -8.325  12.056  1.00  0.00     0.017 A 
ENDBRANCH  27  31
ENDBRANCH   4  23
TORSDOF 7
ENDMDL
MODEL 7
REMARK VINA RESULT:      -8.7      3.023      9.509
REMARK  7 active torsions:
REMARK  status: ('A' for Active; 'I' for Inactive)
REMARK    1  A    between atoms: O_2  and  C_3 
REMARK    2  A    between atoms: C_5  and  C_6 
REMARK       I    between atoms: C_6  and  N_7 
REMARK    3  A    between atoms: N_7  and  C_8 
REMARK    4  A    between atoms: C_8  and  N_9 
REMARK    5  A    between atoms: N_9  and  C_10 
REMARK    6  A    between atoms: C_13  and  N_14 
REMARK       I    between atoms: N_17  and  C_18 
REMARK    7  A    between atoms: C_18  and  C_19 
ROOT
HETATM    1  C   UNL     1      41.850 -13.681   2.212  1.00  0.00     0.034 A 
HETATM    2  C   UNL     1      42.824 -13.675   3.208  1.00  0.00     0.032 A 
HETATM    3  C   UNL     1      42.571 -13.092   4.460  1.00  0.00     0.031 A 
HETATM    4  C   UNL     1      41.346 -12.478   4.762  1.00  0.00     0.030 A 
HETATM    5  C   UNL     1      40.380 -12.504   3.740  1.00  0.00     0.031 A 
HETATM    6  C   UNL     1      40.615 -13.106   2.492  1.00  0.00     0.032 A 
ENDROOT
BRANCH   1   7
HETATM    7  N   UNL     1      42.228 -14.157   0.935  1.00  0.00    -0.333 N 
HETATM    8  H   UNL     1      42.763 -13.488   0.393  1.00  0.00     0.168 HD
BRANCH   7   9
HETATM    9  C   UNL     1      41.632 -15.120   0.194  1.00  0.00     0.179 C 
HETATM   10  S   UNL     1      40.627 -14.680  -1.070  1.00  0.00    -0.040 SA
BRANCH   9  11
HETATM   11  N   UNL     1      41.884 -16.443   0.392  1.00  0.00    -0.299 N 
HETATM   12  C   UNL     1      41.421 -17.097   1.527  1.00  0.00     0.257 C 
HETATM   13  O   UNL     1      40.237 -17.189   1.838  1.00  0.00    -0.267 OA
HETATM   14  H   UNL     1      42.846 -16.633   0.160  1.00  0.00     0.171 HD
BRANCH  12  15
HETATM   15  C   UNL     1      42.442 -17.810   2.369  1.00  0.00     0.035 A 
HETATM   16  C   UNL     1      42.771 -17.431   3.679  1.00  0.00     0.053 A 
HETATM   17  C   UNL     1      43.711 -18.155   4.425  1.00  0.00     0.069 A 
HETATM   18  C   UNL     1      44.312 -19.282   3.870  1.00  0.00     0.037 A 
HETATM   19  C   UNL     1      43.980 -19.682   2.575  1.00  0.00     0.004 A 
HETATM   20  C   UNL     1      43.054 -18.951   1.829  1.00  0.00     0.017 A 
BRANCH  17  21
HETATM   21  O   UNL     1      43.940 -17.656   5.678  1.00  0.00    -0.356 OA
HETATM   22  C   UNL     1      45.120 -18.094   6.343  1.00  0.00     0.210 C 
ENDBRANCH  17  21
ENDBRANCH  12  15
ENDBRANCH   9  11
ENDBRANCH   7   9
ENDBRANCH   1   7
BRANCH   4  23
HETATM   23  N   UNL     1      41.106 -11.798   5.969  1.00  0.00    -0.378 N 
HETATM   24  C   UNL     1      42.251 -11.555   6.878  1.00  0.00     0.143 C 
HETATM   25  C   UNL     1      41.897 -10.543   7.983  1.00  0.00     0.146 C 
HETATM   26  N   UNL     1      40.655 -10.884   8.689  1.00  0.00    -0.345 N 
HETATM   27  C   UNL     1      40.351 -10.364   9.948  1.00  0.00     0.253 C 
HETATM   28  C   UNL     1      39.529 -11.145   7.791  1.00  0.00     0.146 C 
HETATM   29  O   UNL     1      39.206 -10.097  10.309  1.00  0.00    -0.267 OA
HETATM   30  C   UNL     1      39.867 -12.175   6.698  1.00  0.00     0.143 C 
BRANCH  27  31
HETATM   31  C   UNL     1      41.448 -10.163  10.925  1.00  0.00     0.032 A 
HETATM   32  C   UNL     1      41.824  -8.860  11.266  1.00  0.00     0.017 A 
HETATM   33  C   UNL     1      42.821  -8.653  12.222  1.00  0.00     0.001 A 
HETATM   34  C   UNL     1      43.428  -9.745  12.843  1.00  0.00     0.000 A 
HETATM   35  C   UNL     1      43.036 -11.045  12.521  1.00  0.00     0.001 A 
HETATM   36  C   UNL     1      42.039 -11.257  11.567  1.00  0.00     0.017 A 
ENDBRANCH  27  31
ENDBRANCH   4  23
TORSDOF 7
ENDMDL
MODEL 8
REMARK VINA RESULT:      -8.6      2.919      9.904
REMARK  7 active torsions:
REMARK  status: ('A' for Active; 'I' for Inactive)
REMARK    1  A    between atoms: O_2  and  C_3 
REMARK    2  A    between atoms: C_5  and  C_6 
REMARK       I    between atoms: C_6  and  N_7 
REMARK    3  A    between atoms: N_7  and  C_8 
REMARK    4  A    between atoms: C_8  and  N_9 
REMARK    5  A    between atoms: N_9  and  C_10 
REMARK    6  A    between atoms: C_13  and  N_14 
REMARK       I    between atoms: N_17  and  C_18 
REMARK    7  A    between atoms: C_18  and  C_19 
ROOT
HETATM    1  C   UNL     1      42.269 -13.356   3.602  1.00  0.00     0.034 A 
HETATM    2  C   UNL     1      42.786 -13.735   4.838  1.00  0.00     0.032 A 
HETATM    3  C   UNL     1      42.440 -13.041   6.008  1.00  0.00     0.031 A 
HETATM    4  C   UNL     1      41.580 -11.932   5.990  1.00  0.00     0.030 A 
HETATM    5  C   UNL     1      41.068 -11.576   4.729  1.00  0.00     0.031 A 
HETATM    6  C   UNL     1      41.390 -12.280   3.555  1.00  0.00     0.032 A 
ENDROOT
BRANCH   1   7
HETATM    7  N   UNL     1      42.775 -14.012   2.456  1.00  0.00    -0.333 N 
HETATM    8  H   UNL     1      43.682 -13.671   2.159  1.00  0.00     0.168 HD
BRANCH   7   9
HETATM    9  C   UNL     1      42.081 -14.655   1.488  1.00  0.00     0.179 C 
HETATM   10  S   UNL     1      41.529 -13.794   0.163  1.00  0.00    -0.040 SA
BRANCH   9  11
HETATM   11  N   UNL     1      41.881 -16.002   1.516  1.00  0.00    -0.299 N 
HETATM   12  C   UNL     1      41.787 -16.686   2.722  1.00  0.00     0.257 C 
HETATM   13  O   UNL     1      40.944 -16.457   3.583  1.00  0.00    -0.267 OA
HETATM   14  H   UNL     1      42.477 -16.437   0.831  1.00  0.00     0.171 HD
BRANCH  12  15
HETATM   15  C   UNL     1      42.731 -17.838   2.929  1.00  0.00     0.035 A 
HETATM   16  C   UNL     1      43.485 -18.024   4.097  1.00  0.00     0.053 A 
HETATM   17  C   UNL     1      44.326 -19.136   4.242  1.00  0.00     0.069 A 
HETATM   18  C   UNL     1      44.399 -20.084   3.224  1.00  0.00     0.037 A 
HETATM   19  C   UNL     1      43.639 -19.921   2.065  1.00  0.00     0.004 A 
HETATM   20  C   UNL     1      42.814 -18.806   1.917  1.00  0.00     0.017 A 
BRANCH  17  21
HETATM   21  O   UNL     1      45.010 -19.174   5.426  1.00  0.00    -0.356 OA
HETATM   22  C   UNL     1      44.881 -18.048   6.286  1.00  0.00     0.210 C 
ENDBRANCH  17  21
ENDBRANCH  12  15
ENDBRANCH   9  11
ENDBRANCH   7   9
ENDBRANCH   1   7
BRANCH   4  23
HETATM   23  N   UNL     1      41.301 -11.158   7.130  1.00  0.00    -0.378 N 
HETATM   24  C   UNL     1      42.341 -11.058   8.182  1.00  0.00     0.143 C 
HETATM   25  C   UNL     1      42.020  -9.944   9.195  1.00  0.00     0.146 C 
HETATM   26  N   UNL     1      40.656 -10.039   9.731  1.00  0.00    -0.345 N 
HETATM   27  C   UNL     1      40.281  -9.410  10.919  1.00  0.00     0.253 C 
HETATM   28  C   UNL     1      39.631 -10.160   8.694  1.00  0.00     0.146 C 
HETATM   29  O   UNL     1      39.160  -8.940  11.109  1.00  0.00    -0.267 OA
HETATM   30  C   UNL     1      39.931 -11.289   7.690  1.00  0.00     0.143 C 
BRANCH  27  31
HETATM   31  C   UNL     1      41.257  -9.339  12.033  1.00  0.00     0.032 A 
HETATM   32  C   UNL     1      41.563 -10.503  12.744  1.00  0.00     0.017 A 
HETATM   33  C   UNL     1      42.517 -10.464  13.762  1.00  0.00     0.001 A 
HETATM   34  C   UNL     1      43.172  -9.268  14.058  1.00  0.00     0.000 A 
HETATM   35  C   UNL     1      42.885  -8.111  13.333  1.00  0.00     0.001 A 
HETATM   36  C   UNL     1      41.933  -8.145  12.312  1.00  0.00     0.017 A 
ENDBRANCH  27  31
ENDBRANCH   4  23
TORSDOF 7
ENDMDL
MODEL 9
REMARK VINA RESULT:      -8.4      4.912      7.870
REMARK  7 active torsions:
REMARK  status: ('A' for Active; 'I' for Inactive)
REMARK    1  A    between atoms: O_2  and  C_3 
REMARK    2  A    between atoms: C_5  and  C_6 
REMARK       I    between atoms: C_6  and  N_7 
REMARK    3  A    between atoms: N_7  and  C_8 
REMARK    4  A    between atoms: C_8  and  N_9 
REMARK    5  A    between atoms: N_9  and  C_10 
REMARK    6  A    between atoms: C_13  and  N_14 
REMARK       I    between atoms: N_17  and  C_18 
REMARK    7  A    between atoms: C_18  and  C_19 
ROOT
HETATM    1  C   UNL     1      38.454 -13.232   1.843  1.00  0.00     0.034 A 
HETATM    2  C   UNL     1      39.460 -12.738   2.671  1.00  0.00     0.032 A 
HETATM    3  C   UNL     1      40.550 -13.542   3.039  1.00  0.00     0.031 A 
HETATM    4  C   UNL     1      40.672 -14.874   2.612  1.00  0.00     0.030 A 
HETATM    5  C   UNL     1      39.645 -15.343   1.773  1.00  0.00     0.031 A 
HETATM    6  C   UNL     1      38.562 -14.539   1.379  1.00  0.00     0.032 A 
ENDROOT
BRANCH   1   7
HETATM    7  N   UNL     1      37.321 -12.412   1.635  1.00  0.00    -0.333 N 
HETATM    8  H   UNL     1      36.456 -12.818   1.974  1.00  0.00     0.168 HD
BRANCH   7   9
HETATM    9  C   UNL     1      37.150 -11.446   0.703  1.00  0.00     0.179 C 
HETATM   10  S   UNL     1      35.899 -10.348   0.876  1.00  0.00    -0.040 SA
BRANCH   9  11
HETATM   11  N   UNL     1      38.014 -11.287  -0.339  1.00  0.00    -0.299 N 
HETATM   12  C   UNL     1      37.900 -12.062  -1.486  1.00  0.00     0.257 C 
HETATM   13  O   UNL     1      36.906 -12.093  -2.205  1.00  0.00    -0.267 OA
HETATM   14  H   UNL     1      38.950 -11.203   0.022  1.00  0.00     0.171 HD
BRANCH  12  15
HETATM   15  C   UNL     1      39.117 -12.837  -1.909  1.00  0.00     0.035 A 
HETATM   16  C   UNL     1      39.094 -13.847  -2.883  1.00  0.00     0.053 A 
HETATM   17  C   UNL     1      40.269 -14.514  -3.257  1.00  0.00     0.069 A 
HETATM   18  C   UNL     1      41.483 -14.155  -2.673  1.00  0.00     0.037 A 
HETATM   19  C   UNL     1      41.521 -13.139  -1.718  1.00  0.00     0.004 A 
HETATM   20  C   UNL     1      40.348 -12.487  -1.337  1.00  0.00     0.017 A 
BRANCH  17  21
HETATM   21  O   UNL     1      40.089 -15.485  -4.204  1.00  0.00    -0.356 OA
HETATM   22  C   UNL     1      38.852 -16.187  -4.184  1.00  0.00     0.210 C 
ENDBRANCH  17  21
ENDBRANCH  12  15
ENDBRANCH   9  11
ENDBRANCH   7   9
ENDBRANCH   1   7
BRANCH   4  23
HETATM   23  N   UNL     1      41.698 -15.729   3.051  1.00  0.00    -0.378 N 
HETATM   24  C   UNL     1      41.763 -17.096   2.484  1.00  0.00     0.143 C 
HETATM   25  C   UNL     1      43.099 -17.787   2.815  1.00  0.00     0.146 C 
HETATM   26  N   UNL     1      43.427 -17.734   4.245  1.00  0.00    -0.345 N 
HETATM   27  C   UNL     1      44.347 -18.606   4.828  1.00  0.00     0.253 C 
HETATM   28  C   UNL     1      43.341 -16.386   4.811  1.00  0.00     0.146 C 
HETATM   29  O   UNL     1      45.089 -18.284   5.755  1.00  0.00    -0.267 OA
HETATM   30  C   UNL     1      41.999 -15.697   4.506  1.00  0.00     0.143 C 
BRANCH  27  31
HETATM   31  C   UNL     1      44.411 -20.007   4.348  1.00  0.00     0.032 A 
HETATM   32  C   UNL     1      44.343 -20.259   2.974  1.00  0.00     0.017 A 
HETATM   33  C   UNL     1      44.452 -21.568   2.503  1.00  0.00     0.001 A 
HETATM   34  C   UNL     1      44.643 -22.619   3.400  1.00  0.00     0.000 A 
HETATM   35  C   UNL     1      44.735 -22.366   4.770  1.00  0.00     0.001 A 
HETATM   36  C   UNL     1      44.628 -21.059   5.246  1.00  0.00     0.017 A 
ENDBRANCH  27  31
ENDBRANCH   4  23
TORSDOF 7
ENDMDL
MODEL 10
REMARK VINA RESULT:      -8.4      5.254      8.649
REMARK  7 active torsions:
REMARK  status: ('A' for Active; 'I' for Inactive)
REMARK    1  A    between atoms: O_2  and  C_3 
REMARK    2  A    between atoms: C_5  and  C_6 
REMARK       I    between atoms: C_6  and  N_7 
REMARK    3  A    between atoms: N_7  and  C_8 
REMARK    4  A    between atoms: C_8  and  N_9 
REMARK    5  A    between atoms: N_9  and  C_10 
REMARK    6  A    between atoms: C_13  and  N_14 
REMARK       I    between atoms: N_17  and  C_18 
REMARK    7  A    between atoms: C_18  and  C_19 
ROOT
HETATM    1  C   UNL     1      37.522 -12.132   0.216  1.00  0.00     0.034 A 
HETATM    2  C   UNL     1      37.321 -13.499   0.387  1.00  0.00     0.032 A 
HETATM    3  C   UNL     1      38.260 -14.286   1.072  1.00  0.00     0.031 A 
HETATM    4  C   UNL     1      39.443 -13.746   1.599  1.00  0.00     0.030 A 
HETATM    5  C   UNL     1      39.617 -12.361   1.417  1.00  0.00     0.031 A 
HETATM    6  C   UNL     1      38.671 -11.561   0.753  1.00  0.00     0.032 A 
ENDROOT
BRANCH   1   7
HETATM    7  N   UNL     1      36.605 -11.437  -0.607  1.00  0.00    -0.333 N 
HETATM    8  H   UNL     1      35.718 -11.245  -0.156  1.00  0.00     0.168 HD
BRANCH   7   9
HETATM    9  C   UNL     1      36.558 -11.402  -1.959  1.00  0.00     0.179 C 
HETATM   10  S   UNL     1      35.186 -10.819  -2.719  1.00  0.00    -0.040 SA
BRANCH   9  11
HETATM   11  N   UNL     1      37.626 -11.756  -2.728  1.00  0.00    -0.299 N 
HETATM   12  C   UNL     1      37.672 -12.992  -3.361  1.00  0.00     0.257 C 
HETATM   13  O   UNL     1      36.846 -13.382  -4.179  1.00  0.00    -0.267 OA
HETATM   14  H   UNL     1      38.474 -11.494  -2.252  1.00  0.00     0.171 HD
BRANCH  12  15
HETATM   15  C   UNL     1      38.870 -13.857  -3.080  1.00  0.00     0.035 A 
HETATM   16  C   UNL     1      39.943 -13.458  -2.269  1.00  0.00     0.053 A 
HETATM   17  C   UNL     1      41.018 -14.322  -2.020  1.00  0.00     0.069 A 
HETATM   18  C   UNL     1      41.014 -15.604  -2.565  1.00  0.00     0.037 A 
HETATM   19  C   UNL     1      39.944 -16.020  -3.358  1.00  0.00     0.004 A 
HETATM   20  C   UNL     1      38.881 -15.153  -3.615  1.00  0.00     0.017 A 
BRANCH  17  21
HETATM   21  O   UNL     1      41.997 -13.789  -1.227  1.00  0.00    -0.356 OA
HETATM   22  C   UNL     1      42.186 -12.380  -1.290  1.00  0.00     0.210 C 
ENDBRANCH  17  21
ENDBRANCH  12  15
ENDBRANCH   9  11
ENDBRANCH   7   9
ENDBRANCH   1   7
BRANCH   4  23
HETATM   23  N   UNL     1      40.445 -14.530   2.197  1.00  0.00    -0.378 N 
HETATM   24  C   UNL     1      40.935 -15.721   1.464  1.00  0.00     0.143 C 
HETATM   25  C   UNL     1      42.226 -16.283   2.089  1.00  0.00     0.146 C 
HETATM   26  N   UNL     1      42.110 -16.496   3.537  1.00  0.00    -0.345 N 
HETATM   27  C   UNL     1      42.975 -17.342   4.233  1.00  0.00     0.253 C 
HETATM   28  C   UNL     1      41.606 -15.326   4.258  1.00  0.00     0.146 C 
HETATM   29  O   UNL     1      43.341 -17.131   5.388  1.00  0.00    -0.267 OA
HETATM   30  C   UNL     1      40.301 -14.774   3.656  1.00  0.00     0.143 C 
BRANCH  27  31
HETATM   31  C   UNL     1      43.445 -18.585   3.576  1.00  0.00     0.032 A 
HETATM   32  C   UNL     1      44.462 -19.331   4.180  1.00  0.00     0.017 A 
HETATM   33  C   UNL     1      44.881 -20.530   3.601  1.00  0.00     0.001 A 
HETATM   34  C   UNL     1      44.275 -20.988   2.430  1.00  0.00     0.000 A 
HETATM   35  C   UNL     1      43.244 -20.256   1.839  1.00  0.00     0.001 A 
HETATM   36  C   UNL     1      42.820 -19.057   2.415  1.00  0.00     0.017 A 
ENDBRANCH  27  31
ENDBRANCH   4  23
TORSDOF 7
ENDMDL
