MODEL 1
REMARK VINA RESULT:      -9.5      0.000      0.000
REMARK  5 active torsions:
REMARK  status: ('A' for Active; 'I' for Inactive)
REMARK    1  A    between atoms: C_5  and  C_6 
REMARK    2  A    between atoms: C_11  and  C_12 
REMARK       I    between atoms: C_12  and  N_13 
REMARK    3  A    between atoms: N_13  and  C_14 
REMARK    4  A    between atoms: C_16  and  O_17 
REMARK    5  A    between atoms: C_23  and  C_24 
ROOT
HETATM    1  C   UNL     1      42.586 -16.285   2.671  1.00  0.00     0.118 C 
HETATM    2  N   UNL     1      43.563 -15.347   3.211  1.00  0.00    -0.366 N 
HETATM    3  C   UNL     1      43.458 -14.840   4.458  1.00  0.00     0.123 A 
HETATM    4  N   UNL     1      42.342 -15.029   5.222  1.00  0.00    -0.240 N 
HETATM    5  N   UNL     1      42.382 -14.394   6.411  1.00  0.00    -0.165 NA
HETATM    6  C   UNL     1      43.626 -13.859   6.439  1.00  0.00     0.148 A 
HETATM    7  C   UNL     1      44.320 -14.102   5.223  1.00  0.00     0.089 A 
HETATM    8  C   UNL     1      41.191 -15.809   4.811  1.00  0.00     0.221 C 
HETATM    9  C   UNL     1      41.197 -16.034   3.286  1.00  0.00     0.066 C 
HETATM   10  H   UNL     1      44.458 -15.331   2.721  1.00  0.00     0.161 HD
ENDROOT
BRANCH   6  11
HETATM   11  C   UNL     1      44.144 -13.131   7.612  1.00  0.00     0.276 C 
HETATM   12  N   UNL     1      43.235 -12.207   8.089  1.00  0.00    -0.322 N 
HETATM   13  H   UNL     1      42.384 -12.152   7.534  1.00  0.00     0.169 HD
HETATM   14  O   UNL     1      45.259 -13.363   8.065  1.00  0.00    -0.266 OA
BRANCH  12  15
HETATM   15  C   UNL     1      43.351 -11.373   9.215  1.00  0.00     0.037 A 
HETATM   16  C   UNL     1      42.405 -10.406   9.562  1.00  0.00     0.066 A 
HETATM   17  C   UNL     1      42.608  -9.610  10.689  1.00  0.00     0.067 A 
HETATM   18  C   UNL     1      43.737  -9.767  11.483  1.00  0.00     0.036 A 
HETATM   19  C   UNL     1      44.683 -10.730  11.145  1.00  0.00     0.005 A 
HETATM   20  C   UNL     1      44.493 -11.526  10.012  1.00  0.00     0.029 A 
BRANCH  17  21
HETATM   21  O   UNL     1      41.710  -8.647  11.047  1.00  0.00    -0.361 OA
HETATM   22  H   UNL     1      41.398  -8.840  11.947  1.00  0.00     0.217 HD
ENDBRANCH  17  21
ENDBRANCH  12  15
ENDBRANCH   6  11
BRANCH   8  23
HETATM   23  C   UNL     1      41.108 -17.087   5.616  1.00  0.00     0.409 C 
HETATM   24  F   UNL     1      40.757 -18.167   4.896  1.00  0.00    -0.169 F 
HETATM   25  F   UNL     1      42.285 -17.373   6.224  1.00  0.00    -0.169 F 
HETATM   26  F   UNL     1      40.195 -16.953   6.613  1.00  0.00    -0.169 F 
ENDBRANCH   8  23
BRANCH   1  27
HETATM   27  C   UNL     1      43.065 -17.725   2.716  1.00  0.00    -0.035 A 
HETATM   28  C   UNL     1      44.003 -18.193   3.649  1.00  0.00     0.010 A 
HETATM   29  C   UNL     1      44.436 -19.522   3.635  1.00  0.00     0.007 A 
HETATM   30  C   UNL     1      43.951 -20.417   2.678  1.00  0.00    -0.062 A 
HETATM   31  C   UNL     1      44.417 -21.842   2.649  1.00  0.00     0.048 C 
HETATM   32  C   UNL     1      43.019 -19.963   1.741  1.00  0.00     0.007 A 
HETATM   33  C   UNL     1      42.581 -18.635   1.760  1.00  0.00     0.010 A 
ENDBRANCH   1  27
TORSDOF 5
ENDMDL
MODEL 2
REMARK VINA RESULT:      -9.3      6.476      9.490
REMARK  5 active torsions:
REMARK  status: ('A' for Active; 'I' for Inactive)
REMARK    1  A    between atoms: C_5  and  C_6 
REMARK    2  A    between atoms: C_11  and  C_12 
REMARK       I    between atoms: C_12  and  N_13 
REMARK    3  A    between atoms: N_13  and  C_14 
REMARK    4  A    between atoms: C_16  and  O_17 
REMARK    5  A    between atoms: C_23  and  C_24 
ROOT
HETATM    1  C   UNL     1      40.218 -13.159  -2.273  1.00  0.00     0.118 C 
HETATM    2  N   UNL     1      41.003 -14.353  -1.981  1.00  0.00    -0.366 N 
HETATM    3  C   UNL     1      41.045 -14.900  -0.748  1.00  0.00     0.123 A 
HETATM    4  N   UNL     1      40.507 -14.272   0.339  1.00  0.00    -0.240 N 
HETATM    5  N   UNL     1      40.702 -14.930   1.499  1.00  0.00    -0.165 NA
HETATM    6  C   UNL     1      41.307 -16.077   1.112  1.00  0.00     0.148 A 
HETATM    7  C   UNL     1      41.555 -16.083  -0.287  1.00  0.00     0.089 A 
HETATM    8  C   UNL     1      39.810 -13.001   0.288  1.00  0.00     0.221 C 
HETATM    9  C   UNL     1      40.118 -12.259  -1.027  1.00  0.00     0.066 C 
HETATM   10  H   UNL     1      41.265 -14.902  -2.800  1.00  0.00     0.161 HD
ENDROOT
BRANCH   6  11
HETATM   11  C   UNL     1      41.638 -17.154   2.064  1.00  0.00     0.276 C 
HETATM   12  N   UNL     1      42.762 -17.857   1.678  1.00  0.00    -0.322 N 
HETATM   13  H   UNL     1      43.149 -17.547   0.789  1.00  0.00     0.169 HD
HETATM   14  O   UNL     1      40.957 -17.352   3.064  1.00  0.00    -0.266 OA
BRANCH  12  15
HETATM   15  C   UNL     1      43.408 -18.907   2.355  1.00  0.00     0.037 A 
HETATM   16  C   UNL     1      43.579 -20.184   1.817  1.00  0.00     0.066 A 
HETATM   17  C   UNL     1      44.218 -21.172   2.566  1.00  0.00     0.067 A 
HETATM   18  C   UNL     1      44.698 -20.905   3.843  1.00  0.00     0.036 A 
HETATM   19  C   UNL     1      44.533 -19.634   4.384  1.00  0.00     0.005 A 
HETATM   20  C   UNL     1      43.885 -18.640   3.645  1.00  0.00     0.029 A 
BRANCH  17  21
HETATM   21  O   UNL     1      44.388 -22.433   2.075  1.00  0.00    -0.361 OA
HETATM   22  H   UNL     1      45.034 -22.394   1.350  1.00  0.00     0.217 HD
ENDBRANCH  17  21
ENDBRANCH  12  15
ENDBRANCH   6  11
BRANCH   8  23
HETATM   23  C   UNL     1      38.333 -13.201   0.546  1.00  0.00     0.409 C 
HETATM   24  F   UNL     1      37.852 -14.374   0.098  1.00  0.00    -0.169 F 
HETATM   25  F   UNL     1      38.040 -13.123   1.866  1.00  0.00    -0.169 F 
HETATM   26  F   UNL     1      37.617 -12.216  -0.055  1.00  0.00    -0.169 F 
ENDBRANCH   8  23
BRANCH   1  27
HETATM   27  C   UNL     1      38.898 -13.473  -2.954  1.00  0.00    -0.035 A 
HETATM   28  C   UNL     1      38.466 -14.780  -3.225  1.00  0.00     0.010 A 
HETATM   29  C   UNL     1      37.255 -15.021  -3.881  1.00  0.00     0.007 A 
HETATM   30  C   UNL     1      36.449 -13.959  -4.295  1.00  0.00    -0.062 A 
HETATM   31  C   UNL     1      35.153 -14.207  -5.007  1.00  0.00     0.048 C 
HETATM   32  C   UNL     1      36.868 -12.652  -4.035  1.00  0.00     0.007 A 
HETATM   33  C   UNL     1      38.076 -12.412  -3.372  1.00  0.00     0.010 A 
ENDBRANCH   1  27
TORSDOF 5
ENDMDL
MODEL 3
REMARK VINA RESULT:      -9.1      6.226      8.582
REMARK  5 active torsions:
REMARK  status: ('A' for Active; 'I' for Inactive)
REMARK    1  A    between atoms: C_5  and  C_6 
REMARK    2  A    between atoms: C_11  and  C_12 
REMARK       I    between atoms: C_12  and  N_13 
REMARK    3  A    between atoms: N_13  and  C_14 
REMARK    4  A    between atoms: C_16  and  O_17 
REMARK    5  A    between atoms: C_23  and  C_24 
ROOT
HETATM    1  C   UNL     1      40.688 -16.298   2.031  1.00  0.00     0.118 C 
HETATM    2  N   UNL     1      40.800 -15.737   0.689  1.00  0.00    -0.366 N 
HETATM    3  C   UNL     1      41.339 -14.520   0.464  1.00  0.00     0.123 A 
HETATM    4  N   UNL     1      41.645 -13.665   1.485  1.00  0.00    -0.240 N 
HETATM    5  N   UNL     1      42.109 -12.469   1.073  1.00  0.00    -0.165 NA
HETATM    6  C   UNL     1      42.194 -12.611  -0.271  1.00  0.00     0.148 A 
HETATM    7  C   UNL     1      41.700 -13.876  -0.688  1.00  0.00     0.089 A 
HETATM    8  C   UNL     1      41.470 -13.975   2.891  1.00  0.00     0.221 C 
HETATM    9  C   UNL     1      40.525 -15.178   3.074  1.00  0.00     0.066 C 
HETATM   10  H   UNL     1      40.727 -16.417  -0.067  1.00  0.00     0.161 HD
ENDROOT
BRANCH   6  11
HETATM   11  C   UNL     1      42.742 -11.554  -1.141  1.00  0.00     0.276 C 
HETATM   12  N   UNL     1      41.923 -11.300  -2.223  1.00  0.00    -0.322 N 
HETATM   13  H   UNL     1      41.105 -11.904  -2.263  1.00  0.00     0.169 HD
HETATM   14  O   UNL     1      43.806 -11.003  -0.882  1.00  0.00    -0.266 OA
BRANCH  12  15
HETATM   15  C   UNL     1      42.085 -10.331  -3.230  1.00  0.00     0.037 A 
HETATM   16  C   UNL     1      42.224 -10.640  -4.585  1.00  0.00     0.066 A 
HETATM   17  C   UNL     1      42.396  -9.615  -5.515  1.00  0.00     0.067 A 
HETATM   18  C   UNL     1      42.425  -8.284  -5.118  1.00  0.00     0.036 A 
HETATM   19  C   UNL     1      42.285  -7.969  -3.770  1.00  0.00     0.005 A 
HETATM   20  C   UNL     1      42.121  -8.990  -2.829  1.00  0.00     0.029 A 
BRANCH  17  21
HETATM   21  O   UNL     1      42.550  -9.884  -6.844  1.00  0.00    -0.361 OA
HETATM   22  H   UNL     1      43.419 -10.300  -6.973  1.00  0.00     0.217 HD
ENDBRANCH  17  21
ENDBRANCH  12  15
ENDBRANCH   6  11
BRANCH   8  23
HETATM   23  C   UNL     1      42.814 -14.147   3.562  1.00  0.00     0.409 C 
HETATM   24  F   UNL     1      43.744 -14.732   2.786  1.00  0.00    -0.169 F 
HETATM   25  F   UNL     1      43.323 -12.961   3.976  1.00  0.00    -0.169 F 
HETATM   26  F   UNL     1      42.685 -14.908   4.680  1.00  0.00    -0.169 F 
ENDBRANCH   8  23
BRANCH   1  27
HETATM   27  C   UNL     1      41.771 -17.317   2.336  1.00  0.00    -0.035 A 
HETATM   28  C   UNL     1      42.603 -17.870   1.350  1.00  0.00     0.010 A 
HETATM   29  C   UNL     1      43.569 -18.828   1.674  1.00  0.00     0.007 A 
HETATM   30  C   UNL     1      43.721 -19.266   2.991  1.00  0.00    -0.062 A 
HETATM   31  C   UNL     1      44.748 -20.300   3.346  1.00  0.00     0.048 C 
HETATM   32  C   UNL     1      42.897 -18.726   3.981  1.00  0.00     0.007 A 
HETATM   33  C   UNL     1      41.935 -17.763   3.658  1.00  0.00     0.010 A 
ENDBRANCH   1  27
TORSDOF 5
ENDMDL
MODEL 4
REMARK VINA RESULT:      -9.0      5.224      7.779
REMARK  5 active torsions:
REMARK  status: ('A' for Active; 'I' for Inactive)
REMARK    1  A    between atoms: C_5  and  C_6 
REMARK    2  A    between atoms: C_11  and  C_12 
REMARK       I    between atoms: C_12  and  N_13 
REMARK    3  A    between atoms: N_13  and  C_14 
REMARK    4  A    between atoms: C_16  and  O_17 
REMARK    5  A    between atoms: C_23  and  C_24 
ROOT
HETATM    1  C   UNL     1      40.947 -17.024   4.436  1.00  0.00     0.118 C 
HETATM    2  N   UNL     1      40.296 -16.773   3.155  1.00  0.00    -0.366 N 
HETATM    3  C   UNL     1      40.516 -15.645   2.448  1.00  0.00     0.123 A 
HETATM    4  N   UNL     1      41.215 -14.592   2.967  1.00  0.00    -0.240 N 
HETATM    5  N   UNL     1      41.278 -13.524   2.147  1.00  0.00    -0.165 NA
HETATM    6  C   UNL     1      40.674 -13.959   1.017  1.00  0.00     0.148 A 
HETATM    7  C   UNL     1      40.166 -15.276   1.178  1.00  0.00     0.089 A 
HETATM    8  C   UNL     1      41.821 -14.582   4.284  1.00  0.00     0.221 C 
HETATM    9  C   UNL     1      41.231 -15.699   5.168  1.00  0.00     0.066 C 
HETATM   10  H   UNL     1      39.913 -17.602   2.701  1.00  0.00     0.161 HD
ENDROOT
BRANCH   6  11
HETATM   11  C   UNL     1      40.586 -13.129  -0.199  1.00  0.00     0.276 C 
HETATM   12  N   UNL     1      41.742 -12.405  -0.414  1.00  0.00    -0.322 N 
HETATM   13  H   UNL     1      42.441 -12.530   0.315  1.00  0.00     0.169 HD
HETATM   14  O   UNL     1      39.578 -13.125  -0.897  1.00  0.00    -0.266 OA
BRANCH  12  15
HETATM   15  C   UNL     1      42.048 -11.553  -1.491  1.00  0.00     0.037 A 
HETATM   16  C   UNL     1      42.209 -11.996  -2.806  1.00  0.00     0.066 A 
HETATM   17  C   UNL     1      42.529 -11.083  -3.810  1.00  0.00     0.067 A 
HETATM   18  C   UNL     1      42.684  -9.732  -3.528  1.00  0.00     0.036 A 
HETATM   19  C   UNL     1      42.523  -9.283  -2.220  1.00  0.00     0.005 A 
HETATM   20  C   UNL     1      42.212 -10.192  -1.205  1.00  0.00     0.029 A 
BRANCH  17  21
HETATM   21  O   UNL     1      42.708 -11.486  -5.102  1.00  0.00    -0.361 OA
HETATM   22  H   UNL     1      43.625 -11.791  -5.202  1.00  0.00     0.217 HD
ENDBRANCH  17  21
ENDBRANCH  12  15
ENDBRANCH   6  11
BRANCH   8  23
HETATM   23  C   UNL     1      43.328 -14.625   4.170  1.00  0.00     0.409 C 
HETATM   24  F   UNL     1      43.778 -15.300   3.097  1.00  0.00    -0.169 F 
HETATM   25  F   UNL     1      43.862 -13.381   4.117  1.00  0.00    -0.169 F 
HETATM   26  F   UNL     1      43.864 -15.215   5.271  1.00  0.00    -0.169 F 
ENDBRANCH   8  23
BRANCH   1  27
HETATM   27  C   UNL     1      42.129 -17.969   4.321  1.00  0.00    -0.035 A 
HETATM   28  C   UNL     1      42.614 -18.446   3.093  1.00  0.00     0.010 A 
HETATM   29  C   UNL     1      43.688 -19.338   3.038  1.00  0.00     0.007 A 
HETATM   30  C   UNL     1      44.300 -19.788   4.210  1.00  0.00    -0.062 A 
HETATM   31  C   UNL     1      45.447 -20.752   4.160  1.00  0.00     0.048 C 
HETATM   32  C   UNL     1      43.825 -19.324   5.439  1.00  0.00     0.007 A 
HETATM   33  C   UNL     1      42.754 -18.425   5.495  1.00  0.00     0.010 A 
ENDBRANCH   1  27
TORSDOF 5
ENDMDL
MODEL 5
REMARK VINA RESULT:      -9.0      2.609      3.092
REMARK  5 active torsions:
REMARK  status: ('A' for Active; 'I' for Inactive)
REMARK    1  A    between atoms: C_5  and  C_6 
REMARK    2  A    between atoms: C_11  and  C_12 
REMARK       I    between atoms: C_12  and  N_13 
REMARK    3  A    between atoms: N_13  and  C_14 
REMARK    4  A    between atoms: C_16  and  O_17 
REMARK    5  A    between atoms: C_23  and  C_24 
ROOT
HETATM    1  C   UNL     1      43.627 -16.071   1.949  1.00  0.00     0.118 C 
HETATM    2  N   UNL     1      43.672 -15.140   3.071  1.00  0.00    -0.366 N 
HETATM    3  C   UNL     1      42.553 -14.606   3.604  1.00  0.00     0.123 A 
HETATM    4  N   UNL     1      41.329 -14.758   3.016  1.00  0.00    -0.240 N 
HETATM    5  N   UNL     1      40.337 -14.100   3.647  1.00  0.00    -0.165 NA
HETATM    6  C   UNL     1      40.946 -13.588   4.743  1.00  0.00     0.148 A 
HETATM    7  C   UNL     1      42.339 -13.869   4.737  1.00  0.00     0.089 A 
HETATM    8  C   UNL     1      41.091 -15.525   1.809  1.00  0.00     0.221 C 
HETATM    9  C   UNL     1      42.410 -15.780   1.052  1.00  0.00     0.066 C 
HETATM   10  H   UNL     1      44.543 -15.151   3.602  1.00  0.00     0.161 HD
ENDROOT
BRANCH   6  11
HETATM   11  C   UNL     1      40.207 -12.846   5.781  1.00  0.00     0.276 C 
HETATM   12  N   UNL     1      41.053 -12.142   6.614  1.00  0.00    -0.322 N 
HETATM   13  H   UNL     1      42.039 -12.282   6.403  1.00  0.00     0.169 HD
HETATM   14  O   UNL     1      38.983 -12.888   5.846  1.00  0.00    -0.266 OA
BRANCH  12  15
HETATM   15  C   UNL     1      40.716 -11.283   7.675  1.00  0.00     0.037 A 
HETATM   16  C   UNL     1      39.451 -11.245   8.267  1.00  0.00     0.066 A 
HETATM   17  C   UNL     1      39.199 -10.348   9.306  1.00  0.00     0.067 A 
HETATM   18  C   UNL     1      40.190  -9.492   9.771  1.00  0.00     0.036 A 
HETATM   19  C   UNL     1      41.453  -9.526   9.187  1.00  0.00     0.005 A 
HETATM   20  C   UNL     1      41.713 -10.415   8.139  1.00  0.00     0.029 A 
BRANCH  17  21
HETATM   21  O   UNL     1      37.971 -10.276   9.896  1.00  0.00    -0.361 OA
HETATM   22  H   UNL     1      37.936  -9.463  10.428  1.00  0.00     0.217 HD
ENDBRANCH  17  21
ENDBRANCH  12  15
ENDBRANCH   6  11
BRANCH   8  23
HETATM   23  C   UNL     1      40.318 -16.784   2.130  1.00  0.00     0.409 C 
HETATM   24  F   UNL     1      38.982 -16.626   2.114  1.00  0.00    -0.169 F 
HETATM   25  F   UNL     1      40.616 -17.788   1.271  1.00  0.00    -0.169 F 
HETATM   26  F   UNL     1      40.655 -17.237   3.365  1.00  0.00    -0.169 F 
ENDBRANCH   8  23
BRANCH   1  27
HETATM   27  C   UNL     1      43.788 -17.518   2.377  1.00  0.00    -0.035 A 
HETATM   28  C   UNL     1      43.971 -17.907   3.713  1.00  0.00     0.010 A 
HETATM   29  C   UNL     1      44.143 -19.251   4.058  1.00  0.00     0.007 A 
HETATM   30  C   UNL     1      44.149 -20.242   3.073  1.00  0.00    -0.062 A 
HETATM   31  C   UNL     1      44.341 -21.685   3.433  1.00  0.00     0.048 C 
HETATM   32  C   UNL     1      43.970 -19.868   1.739  1.00  0.00     0.007 A 
HETATM   33  C   UNL     1      43.791 -18.524   1.395  1.00  0.00     0.010 A 
ENDBRANCH   1  27
TORSDOF 5
ENDMDL
MODEL 6
REMARK VINA RESULT:      -8.9      4.319      8.615
REMARK  5 active torsions:
REMARK  status: ('A' for Active; 'I' for Inactive)
REMARK    1  A    between atoms: C_5  and  C_6 
REMARK    2  A    between atoms: C_11  and  C_12 
REMARK       I    between atoms: C_12  and  N_13 
REMARK    3  A    between atoms: N_13  and  C_14 
REMARK    4  A    between atoms: C_16  and  O_17 
REMARK    5  A    between atoms: C_23  and  C_24 
ROOT
HETATM    1  C   UNL     1      41.551 -11.808   3.767  1.00  0.00     0.118 C 
HETATM    2  N   UNL     1      42.480 -12.531   2.905  1.00  0.00    -0.366 N 
HETATM    3  C   UNL     1      42.720 -13.850   3.057  1.00  0.00     0.123 A 
HETATM    4  N   UNL     1      42.251 -14.550   4.133  1.00  0.00    -0.240 N 
HETATM    5  N   UNL     1      42.644 -15.839   4.156  1.00  0.00    -0.165 NA
HETATM    6  C   UNL     1      43.312 -15.986   2.988  1.00  0.00     0.148 A 
HETATM    7  C   UNL     1      43.396 -14.754   2.284  1.00  0.00     0.089 A 
HETATM    8  C   UNL     1      41.430 -13.982   5.184  1.00  0.00     0.221 C 
HETATM    9  C   UNL     1      41.507 -12.443   5.169  1.00  0.00     0.066 C 
HETATM   10  H   UNL     1      42.699 -12.063   2.026  1.00  0.00     0.161 HD
ENDROOT
BRANCH   6  11
HETATM   11  C   UNL     1      43.858 -17.284   2.550  1.00  0.00     0.276 C 
HETATM   12  N   UNL     1      43.612 -18.284   3.469  1.00  0.00    -0.322 N 
HETATM   13  H   UNL     1      43.137 -17.957   4.307  1.00  0.00     0.169 HD
HETATM   14  O   UNL     1      44.451 -17.398   1.483  1.00  0.00    -0.266 OA
BRANCH  12  15
HETATM   15  C   UNL     1      43.929 -19.651   3.374  1.00  0.00     0.037 A 
HETATM   16  C   UNL     1      44.541 -20.376   4.399  1.00  0.00     0.066 A 
HETATM   17  C   UNL     1      44.834 -21.727   4.213  1.00  0.00     0.067 A 
HETATM   18  C   UNL     1      44.520 -22.371   3.023  1.00  0.00     0.036 A 
HETATM   19  C   UNL     1      43.908 -21.656   1.998  1.00  0.00     0.005 A 
HETATM   20  C   UNL     1      43.619 -20.299   2.172  1.00  0.00     0.029 A 
BRANCH  17  21
HETATM   21  O   UNL     1      45.444 -22.460   5.189  1.00  0.00    -0.361 OA
HETATM   22  H   UNL     1      45.365 -23.401   4.958  1.00  0.00     0.217 HD
ENDBRANCH  17  21
ENDBRANCH  12  15
ENDBRANCH   6  11
BRANCH   8  23
HETATM   23  C   UNL     1      40.020 -14.524   5.100  1.00  0.00     0.409 C 
HETATM   24  F   UNL     1      39.084 -13.697   5.599  1.00  0.00    -0.169 F 
HETATM   25  F   UNL     1      39.668 -14.808   3.823  1.00  0.00    -0.169 F 
HETATM   26  F   UNL     1      39.929 -15.695   5.782  1.00  0.00    -0.169 F 
ENDBRANCH   8  23
BRANCH   1  27
HETATM   27  C   UNL     1      40.199 -11.580   3.115  1.00  0.00    -0.035 A 
HETATM   28  C   UNL     1      39.167 -10.848   3.724  1.00  0.00     0.010 A 
HETATM   29  C   UNL     1      37.927 -10.688   3.097  1.00  0.00     0.007 A 
HETATM   30  C   UNL     1      37.682 -11.266   1.850  1.00  0.00    -0.062 A 
HETATM   31  C   UNL     1      36.353 -11.106   1.174  1.00  0.00     0.048 C 
HETATM   32  C   UNL     1      38.700 -11.999   1.234  1.00  0.00     0.007 A 
HETATM   33  C   UNL     1      39.942 -12.153   1.858  1.00  0.00     0.010 A 
ENDBRANCH   1  27
TORSDOF 5
ENDMDL
MODEL 7
REMARK VINA RESULT:      -8.5      5.719      9.129
REMARK  5 active torsions:
REMARK  status: ('A' for Active; 'I' for Inactive)
REMARK    1  A    between atoms: C_5  and  C_6 
REMARK    2  A    between atoms: C_11  and  C_12 
REMARK       I    between atoms: C_12  and  N_13 
REMARK    3  A    between atoms: N_13  and  C_14 
REMARK    4  A    between atoms: C_16  and  O_17 
REMARK    5  A    between atoms: C_23  and  C_24 
ROOT
HETATM    1  C   UNL     1      40.315 -13.460  -1.103  1.00  0.00     0.118 C 
HETATM    2  N   UNL     1      40.340 -14.890  -0.819  1.00  0.00    -0.366 N 
HETATM    3  C   UNL     1      40.961 -15.395   0.268  1.00  0.00     0.123 A 
HETATM    4  N   UNL     1      41.755 -14.624   1.069  1.00  0.00    -0.240 N 
HETATM    5  N   UNL     1      42.348 -15.308   2.068  1.00  0.00    -0.165 NA
HETATM    6  C   UNL     1      41.826 -16.551   1.950  1.00  0.00     0.148 A 
HETATM    7  C   UNL     1      40.969 -16.646   0.821  1.00  0.00     0.089 A 
HETATM    8  C   UNL     1      41.981 -13.205   0.874  1.00  0.00     0.221 C 
HETATM    9  C   UNL     1      41.579 -12.776  -0.551  1.00  0.00     0.066 C 
HETATM   10  H   UNL     1      39.632 -15.436  -1.310  1.00  0.00     0.161 HD
ENDROOT
BRANCH   6  11
HETATM   11  C   UNL     1      42.139 -17.631   2.905  1.00  0.00     0.276 C 
HETATM   12  N   UNL     1      43.191 -18.414   2.472  1.00  0.00    -0.322 N 
HETATM   13  H   UNL     1      43.546 -18.146   1.557  1.00  0.00     0.169 HD
HETATM   14  O   UNL     1      41.504 -17.766   3.945  1.00  0.00    -0.266 OA
BRANCH  12  15
HETATM   15  C   UNL     1      43.803 -19.493   3.135  1.00  0.00     0.037 A 
HETATM   16  C   UNL     1      43.986 -20.752   2.557  1.00  0.00     0.066 A 
HETATM   17  C   UNL     1      44.590 -21.771   3.294  1.00  0.00     0.067 A 
HETATM   18  C   UNL     1      45.023 -21.554   4.596  1.00  0.00     0.036 A 
HETATM   19  C   UNL     1      44.846 -20.302   5.177  1.00  0.00     0.005 A 
HETATM   20  C   UNL     1      44.233 -19.277   4.450  1.00  0.00     0.029 A 
BRANCH  17  21
HETATM   21  O   UNL     1      44.770 -23.015   2.764  1.00  0.00    -0.361 OA
HETATM   22  H   UNL     1      45.237 -23.561   3.419  1.00  0.00     0.217 HD
ENDBRANCH  17  21
ENDBRANCH  12  15
ENDBRANCH   6  11
BRANCH   8  23
HETATM   23  C   UNL     1      41.302 -12.409   1.966  1.00  0.00     0.409 C 
HETATM   24  F   UNL     1      42.080 -12.172   3.037  1.00  0.00    -0.169 F 
HETATM   25  F   UNL     1      40.864 -11.210   1.513  1.00  0.00    -0.169 F 
HETATM   26  F   UNL     1      40.198 -13.067   2.406  1.00  0.00    -0.169 F 
ENDBRANCH   8  23
BRANCH   1  27
HETATM   27  C   UNL     1      39.001 -12.805  -0.716  1.00  0.00    -0.035 A 
HETATM   28  C   UNL     1      38.643 -11.509  -1.117  1.00  0.00     0.010 A 
HETATM   29  C   UNL     1      37.433 -10.936  -0.713  1.00  0.00     0.007 A 
HETATM   30  C   UNL     1      36.556 -11.639   0.115  1.00  0.00    -0.062 A 
HETATM   31  C   UNL     1      35.261 -11.029   0.561  1.00  0.00     0.048 C 
HETATM   32  C   UNL     1      36.902 -12.929   0.524  1.00  0.00     0.007 A 
HETATM   33  C   UNL     1      38.109 -13.505   0.114  1.00  0.00     0.010 A 
ENDBRANCH   1  27
TORSDOF 5
ENDMDL
MODEL 8
REMARK VINA RESULT:      -8.3      3.978      8.367
REMARK  5 active torsions:
REMARK  status: ('A' for Active; 'I' for Inactive)
REMARK    1  A    between atoms: C_5  and  C_6 
REMARK    2  A    between atoms: C_11  and  C_12 
REMARK       I    between atoms: C_12  and  N_13 
REMARK    3  A    between atoms: N_13  and  C_14 
REMARK    4  A    between atoms: C_16  and  O_17 
REMARK    5  A    between atoms: C_23  and  C_24 
ROOT
HETATM    1  C   UNL     1      41.523 -11.841   3.305  1.00  0.00     0.118 C 
HETATM    2  N   UNL     1      42.489 -12.856   2.901  1.00  0.00    -0.366 N 
HETATM    3  C   UNL     1      42.714 -13.965   3.637  1.00  0.00     0.123 A 
HETATM    4  N   UNL     1      42.191 -14.118   4.890  1.00  0.00    -0.240 N 
HETATM    5  N   UNL     1      42.575 -15.255   5.504  1.00  0.00    -0.165 NA
HETATM    6  C   UNL     1      43.298 -15.896   4.556  1.00  0.00     0.148 A 
HETATM    7  C   UNL     1      43.422 -15.107   3.381  1.00  0.00     0.089 A 
HETATM    8  C   UNL     1      41.322 -13.154   5.537  1.00  0.00     0.221 C 
HETATM    9  C   UNL     1      41.408 -11.783   4.839  1.00  0.00     0.066 C 
HETATM   10  H   UNL     1      42.753 -12.827   1.916  1.00  0.00     0.161 HD
ENDROOT
BRANCH   6  11
HETATM   11  C   UNL     1      43.857 -17.244   4.769  1.00  0.00     0.276 C 
HETATM   12  N   UNL     1      43.512 -18.113   3.753  1.00  0.00    -0.322 N 
HETATM   13  H   UNL     1      42.902 -17.696   3.053  1.00  0.00     0.169 HD
HETATM   14  O   UNL     1      44.541 -17.502   5.754  1.00  0.00    -0.266 OA
BRANCH  12  15
HETATM   15  C   UNL     1      43.901 -19.453   3.584  1.00  0.00     0.037 A 
HETATM   16  C   UNL     1      43.794 -20.143   2.374  1.00  0.00     0.066 A 
HETATM   17  C   UNL     1      44.190 -21.478   2.300  1.00  0.00     0.067 A 
HETATM   18  C   UNL     1      44.700 -22.138   3.411  1.00  0.00     0.036 A 
HETATM   19  C   UNL     1      44.812 -21.456   4.619  1.00  0.00     0.005 A 
HETATM   20  C   UNL     1      44.409 -20.120   4.706  1.00  0.00     0.029 A 
BRANCH  17  21
HETATM   21  O   UNL     1      44.085 -22.184   1.137  1.00  0.00    -0.361 OA
HETATM   22  H   UNL     1      44.981 -22.363   0.806  1.00  0.00     0.217 HD
ENDBRANCH  17  21
ENDBRANCH  12  15
ENDBRANCH   6  11
BRANCH   8  23
HETATM   23  C   UNL     1      39.916 -13.700   5.640  1.00  0.00     0.409 C 
HETATM   24  F   UNL     1      39.683 -14.411   6.758  1.00  0.00    -0.169 F 
HETATM   25  F   UNL     1      38.990 -12.712   5.591  1.00  0.00    -0.169 F 
HETATM   26  F   UNL     1      39.651 -14.512   4.584  1.00  0.00    -0.169 F 
ENDBRANCH   8  23
BRANCH   1  27
HETATM   27  C   UNL     1      40.206 -11.950   2.559  1.00  0.00    -0.035 A 
HETATM   28  C   UNL     1      39.917 -12.989   1.660  1.00  0.00     0.010 A 
HETATM   29  C   UNL     1      38.700 -13.033   0.973  1.00  0.00     0.007 A 
HETATM   30  C   UNL     1      37.744 -12.033   1.158  1.00  0.00    -0.062 A 
HETATM   31  C   UNL     1      36.439 -12.068   0.419  1.00  0.00     0.048 C 
HETATM   32  C   UNL     1      38.019 -10.991   2.047  1.00  0.00     0.007 A 
HETATM   33  C   UNL     1      39.234 -10.951   2.740  1.00  0.00     0.010 A 
ENDBRANCH   1  27
TORSDOF 5
ENDMDL
MODEL 9
REMARK VINA RESULT:      -8.2      3.274      4.539
REMARK  5 active torsions:
REMARK  status: ('A' for Active; 'I' for Inactive)
REMARK    1  A    between atoms: C_5  and  C_6 
REMARK    2  A    between atoms: C_11  and  C_12 
REMARK       I    between atoms: C_12  and  N_13 
REMARK    3  A    between atoms: N_13  and  C_14 
REMARK    4  A    between atoms: C_16  and  O_17 
REMARK    5  A    between atoms: C_23  and  C_24 
ROOT
HETATM    1  C   UNL     1      40.692 -16.224   3.200  1.00  0.00     0.118 C 
HETATM    2  N   UNL     1      39.852 -15.322   3.979  1.00  0.00    -0.366 N 
HETATM    3  C   UNL     1      40.370 -14.324   4.725  1.00  0.00     0.123 A 
HETATM    4  N   UNL     1      41.714 -14.208   4.944  1.00  0.00    -0.240 N 
HETATM    5  N   UNL     1      42.046 -13.195   5.768  1.00  0.00    -0.165 NA
HETATM    6  C   UNL     1      40.864 -12.580   6.003  1.00  0.00     0.148 A 
HETATM    7  C   UNL     1      39.790 -13.273   5.382  1.00  0.00     0.089 A 
HETATM    8  C   UNL     1      42.713 -15.095   4.379  1.00  0.00     0.221 C 
HETATM    9  C   UNL     1      42.067 -16.399   3.872  1.00  0.00     0.066 C 
HETATM   10  H   UNL     1      38.871 -15.301   3.698  1.00  0.00     0.161 HD
ENDROOT
BRANCH   6  11
HETATM   11  C   UNL     1      40.762 -11.347   6.806  1.00  0.00     0.276 C 
HETATM   12  N   UNL     1      40.196 -11.582   8.043  1.00  0.00    -0.322 N 
HETATM   13  H   UNL     1      39.908 -12.548   8.181  1.00  0.00     0.169 HD
HETATM   14  O   UNL     1      41.152 -10.269   6.371  1.00  0.00    -0.266 OA
BRANCH  12  15
HETATM   15  C   UNL     1      39.990 -10.670   9.093  1.00  0.00     0.037 A 
HETATM   16  C   UNL     1      40.999 -10.248   9.962  1.00  0.00     0.066 A 
HETATM   17  C   UNL     1      40.701  -9.352  10.988  1.00  0.00     0.067 A 
HETATM   18  C   UNL     1      39.412  -8.860  11.159  1.00  0.00     0.036 A 
HETATM   19  C   UNL     1      38.402  -9.274  10.296  1.00  0.00     0.005 A 
HETATM   20  C   UNL     1      38.689 -10.180   9.270  1.00  0.00     0.029 A 
BRANCH  17  21
HETATM   21  O   UNL     1      41.661  -8.932  11.862  1.00  0.00    -0.361 OA
HETATM   22  H   UNL     1      42.405  -9.556  11.821  1.00  0.00     0.217 HD
ENDBRANCH  17  21
ENDBRANCH  12  15
ENDBRANCH   6  11
BRANCH   8  23
HETATM   23  C   UNL     1      43.527 -14.369   3.331  1.00  0.00     0.409 C 
HETATM   24  F   UNL     1      42.827 -13.470   2.618  1.00  0.00    -0.169 F 
HETATM   25  F   UNL     1      44.581 -13.717   3.879  1.00  0.00    -0.169 F 
HETATM   26  F   UNL     1      44.056 -15.259   2.451  1.00  0.00    -0.169 F 
ENDBRANCH   8  23
BRANCH   1  27
HETATM   27  C   UNL     1      40.731 -15.867   1.725  1.00  0.00    -0.035 A 
HETATM   28  C   UNL     1      41.458 -16.604   0.777  1.00  0.00     0.010 A 
HETATM   29  C   UNL     1      41.488 -16.221  -0.568  1.00  0.00     0.007 A 
HETATM   30  C   UNL     1      40.802 -15.083  -0.997  1.00  0.00    -0.062 A 
HETATM   31  C   UNL     1      40.836 -14.660  -2.435  1.00  0.00     0.048 C 
HETATM   32  C   UNL     1      40.078 -14.339  -0.063  1.00  0.00     0.007 A 
HETATM   33  C   UNL     1      40.042 -14.726   1.281  1.00  0.00     0.010 A 
ENDBRANCH   1  27
TORSDOF 5
ENDMDL
MODEL 10
REMARK VINA RESULT:      -8.1      4.207      9.902
REMARK  5 active torsions:
REMARK  status: ('A' for Active; 'I' for Inactive)
REMARK    1  A    between atoms: C_5  and  C_6 
REMARK    2  A    between atoms: C_11  and  C_12 
REMARK       I    between atoms: C_12  and  N_13 
REMARK    3  A    between atoms: N_13  and  C_14 
REMARK    4  A    between atoms: C_16  and  O_17 
REMARK    5  A    between atoms: C_23  and  C_24 
ROOT
HETATM    1  C   UNL     1      38.904  -9.502  10.105  1.00  0.00     0.118 C 
HETATM    2  N   UNL     1      38.705 -10.861   9.614  1.00  0.00    -0.366 N 
HETATM    3  C   UNL     1      39.153 -11.260   8.405  1.00  0.00     0.123 A 
HETATM    4  N   UNL     1      39.657 -10.375   7.494  1.00  0.00    -0.240 N 
HETATM    5  N   UNL     1      39.992 -10.939   6.317  1.00  0.00    -0.165 NA
HETATM    6  C   UNL     1      39.781 -12.259   6.528  1.00  0.00     0.148 A 
HETATM    7  C   UNL     1      39.236 -12.494   7.820  1.00  0.00     0.089 A 
HETATM    8  C   UNL     1      39.804  -8.953   7.731  1.00  0.00     0.221 C 
HETATM    9  C   UNL     1      38.950  -8.505   8.933  1.00  0.00     0.066 C 
HETATM   10  H   UNL     1      38.481 -11.548  10.335  1.00  0.00     0.161 HD
ENDROOT
BRANCH   6  11
HETATM   11  C   UNL     1      40.099 -13.281   5.514  1.00  0.00     0.276 C 
HETATM   12  N   UNL     1      40.986 -14.224   5.992  1.00  0.00    -0.322 N 
HETATM   13  H   UNL     1      41.303 -14.040   6.941  1.00  0.00     0.169 HD
HETATM   14  O   UNL     1      39.603 -13.243   4.393  1.00  0.00    -0.266 OA
BRANCH  12  15
HETATM   15  C   UNL     1      41.475 -15.370   5.339  1.00  0.00     0.037 A 
HETATM   16  C   UNL     1      42.432 -15.332   4.322  1.00  0.00     0.066 A 
HETATM   17  C   UNL     1      42.848 -16.518   3.717  1.00  0.00     0.067 A 
HETATM   18  C   UNL     1      42.332 -17.746   4.115  1.00  0.00     0.036 A 
HETATM   19  C   UNL     1      41.380 -17.791   5.130  1.00  0.00     0.005 A 
HETATM   20  C   UNL     1      40.950 -16.607   5.735  1.00  0.00     0.029 A 
BRANCH  17  21
HETATM   21  O   UNL     1      43.770 -16.514   2.712  1.00  0.00    -0.361 OA
HETATM   22  H   UNL     1      44.326 -15.722   2.811  1.00  0.00     0.217 HD
ENDBRANCH  17  21
ENDBRANCH  12  15
ENDBRANCH   6  11
BRANCH   8  23
HETATM   23  C   UNL     1      41.267  -8.589   7.852  1.00  0.00     0.409 C 
HETATM   24  F   UNL     1      42.012  -9.513   8.484  1.00  0.00    -0.169 F 
HETATM   25  F   UNL     1      41.832  -8.375   6.639  1.00  0.00    -0.169 F 
HETATM   26  F   UNL     1      41.404  -7.424   8.538  1.00  0.00    -0.169 F 
ENDBRANCH   8  23
BRANCH   1  27
HETATM   27  C   UNL     1      40.051  -9.395  11.094  1.00  0.00    -0.035 A 
HETATM   28  C   UNL     1      40.566  -8.169  11.541  1.00  0.00     0.010 A 
HETATM   29  C   UNL     1      41.643  -8.118  12.432  1.00  0.00     0.007 A 
HETATM   30  C   UNL     1      42.241  -9.294  12.889  1.00  0.00    -0.062 A 
HETATM   31  C   UNL     1      43.402  -9.249  13.837  1.00  0.00     0.048 C 
HETATM   32  C   UNL     1      41.740 -10.522  12.449  1.00  0.00     0.007 A 
HETATM   33  C   UNL     1      40.659 -10.572  11.564  1.00  0.00     0.010 A 
ENDBRANCH   1  27
TORSDOF 5
ENDMDL
