MODEL 1
REMARK VINA RESULT:      -9.3      0.000      0.000
REMARK  2 active torsions:
REMARK  status: ('A' for Active; 'I' for Inactive)
REMARK    1  A    between atoms: C_3  and  C_4 
REMARK    2  A    between atoms: C_11  and  C_12 
REMARK       I    between atoms: C_12  and  N_13 
ROOT
HETATM    1  C   UNL     1      41.131 -14.208   0.194  1.00  0.00     0.256 C 
HETATM    2  N   UNL     1      41.490 -15.313   0.978  1.00  0.00    -0.348 N 
HETATM    3  C   UNL     1      40.640 -16.484   1.179  1.00  0.00     0.128 C 
HETATM    4  C   UNL     1      41.434 -17.755   1.462  1.00  0.00     0.055 C 
HETATM    5  C   UNL     1      42.482 -17.568   2.571  1.00  0.00     0.100 C 
HETATM    6  N   UNL     1      41.786 -17.325   3.873  1.00  0.00    -0.273 NA
HETATM    7  C   UNL     1      42.659 -17.428   4.989  1.00  0.00     0.036 A 
HETATM    8  C   UNL     1      43.761 -18.301   4.985  1.00  0.00     0.056 A 
HETATM    9  N   UNL     1      44.062 -19.023   3.825  1.00  0.00    -0.324 N 
HETATM   10  C   UNL     1      43.390 -18.831   2.643  1.00  0.00     0.245 C 
HETATM   11  O   UNL     1      43.592 -19.584   1.691  1.00  0.00    -0.271 OA
HETATM   12  C   UNL     1      42.316 -16.779   6.178  1.00  0.00     0.026 A 
HETATM   13  C   UNL     1      43.099 -16.944   7.322  1.00  0.00     0.002 A 
HETATM   14  C   UNL     1      44.207 -17.793   7.298  1.00  0.00     0.002 A 
HETATM   15  C   UNL     1      44.534 -18.484   6.131  1.00  0.00     0.031 A 
HETATM   16  C   UNL     1      43.367 -16.359   2.210  1.00  0.00     0.055 C 
HETATM   17  C   UNL     1      42.538 -15.104   1.971  1.00  0.00     0.128 C 
HETATM   18  O   UNL     1      41.788 -13.169   0.185  1.00  0.00    -0.267 OA
HETATM   19  H   UNL     1      41.066 -18.036   4.016  1.00  0.00     0.129 HD
HETATM   20  H   UNL     1      44.745 -19.768   3.846  1.00  0.00     0.169 HD
ENDROOT
BRANCH   1  21
HETATM   21  C   UNL     1      39.970 -14.336  -0.691  1.00  0.00     0.062 A 
HETATM   22  C   UNL     1      39.985 -14.816  -2.052  1.00  0.00    -0.014 A 
HETATM   23  C   UNL     1      41.205 -15.294  -2.765  1.00  0.00     0.052 C 
HETATM   24  C   UNL     1      38.680 -14.739  -2.533  1.00  0.00     0.085 A 
HETATM   25  N   UNL     1      37.913 -14.210  -1.517  1.00  0.00    -0.356 N 
HETATM   26  H   UNL     1      36.921 -14.029  -1.616  1.00  0.00     0.166 HD
HETATM   27  C   UNL     1      38.675 -13.921  -0.418  1.00  0.00     0.022 A 
HETATM   28  C   UNL     1      38.079 -13.260   0.771  1.00  0.00     0.069 C 
BRANCH  24  29
HETATM   29  C   UNL     1      38.054 -15.076  -3.801  1.00  0.00     0.172 C 
HETATM   30  C   UNL     1      36.839 -14.309  -4.253  1.00  0.00     0.098 C 
HETATM   31  O   UNL     1      38.497 -15.987  -4.504  1.00  0.00    -0.291 OA
ENDBRANCH  24  29
ENDBRANCH   1  21
TORSDOF 2
ENDMDL
MODEL 2
REMARK VINA RESULT:      -9.2      3.065      4.483
REMARK  2 active torsions:
REMARK  status: ('A' for Active; 'I' for Inactive)
REMARK    1  A    between atoms: C_3  and  C_4 
REMARK    2  A    between atoms: C_11  and  C_12 
REMARK       I    between atoms: C_12  and  N_13 
ROOT
HETATM    1  C   UNL     1      40.789 -15.181   2.360  1.00  0.00     0.256 C 
HETATM    2  N   UNL     1      41.761 -15.967   2.994  1.00  0.00    -0.348 N 
HETATM    3  C   UNL     1      43.181 -15.627   3.048  1.00  0.00     0.128 C 
HETATM    4  C   UNL     1      43.884 -16.201   4.273  1.00  0.00     0.055 C 
HETATM    5  C   UNL     1      43.611 -17.702   4.469  1.00  0.00     0.100 C 
HETATM    6  N   UNL     1      44.239 -18.469   3.348  1.00  0.00    -0.273 NA
HETATM    7  C   UNL     1      44.285 -19.866   3.597  1.00  0.00     0.036 A 
HETATM    8  C   UNL     1      44.416 -20.379   4.900  1.00  0.00     0.056 A 
HETATM    9  N   UNL     1      44.416 -19.500   5.988  1.00  0.00    -0.324 N 
HETATM   10  C   UNL     1      44.175 -18.154   5.848  1.00  0.00     0.245 C 
HETATM   11  O   UNL     1      44.323 -17.400   6.808  1.00  0.00    -0.271 OA
HETATM   12  C   UNL     1      44.374 -20.743   2.514  1.00  0.00     0.026 A 
HETATM   13  C   UNL     1      44.524 -22.115   2.728  1.00  0.00     0.002 A 
HETATM   14  C   UNL     1      44.627 -22.615   4.027  1.00  0.00     0.002 A 
HETATM   15  C   UNL     1      44.586 -21.745   5.117  1.00  0.00     0.031 A 
HETATM   16  C   UNL     1      42.086 -17.925   4.475  1.00  0.00     0.055 C 
HETATM   17  C   UNL     1      41.429 -17.369   3.219  1.00  0.00     0.128 C 
HETATM   18  O   UNL     1      39.640 -15.576   2.181  1.00  0.00    -0.267 OA
HETATM   19  H   UNL     1      45.210 -18.174   3.231  1.00  0.00     0.129 HD
HETATM   20  H   UNL     1      44.666 -19.825   6.912  1.00  0.00     0.169 HD
ENDROOT
BRANCH   1  21
HETATM   21  C   UNL     1      41.153 -13.817   1.966  1.00  0.00     0.062 A 
HETATM   22  C   UNL     1      41.558 -13.390   0.649  1.00  0.00    -0.014 A 
HETATM   23  C   UNL     1      41.638 -14.286  -0.541  1.00  0.00     0.052 C 
HETATM   24  C   UNL     1      41.845 -12.029   0.724  1.00  0.00     0.085 A 
HETATM   25  N   UNL     1      41.649 -11.653   2.036  1.00  0.00    -0.356 N 
HETATM   26  H   UNL     1      41.812 -10.709   2.366  1.00  0.00     0.166 HD
HETATM   27  C   UNL     1      41.275 -12.720   2.806  1.00  0.00     0.022 A 
HETATM   28  C   UNL     1      41.092 -12.573   4.273  1.00  0.00     0.069 C 
BRANCH  24  29
HETATM   29  C   UNL     1      42.285 -11.038  -0.246  1.00  0.00     0.172 C 
HETATM   30  C   UNL     1      41.260 -10.203  -0.966  1.00  0.00     0.098 C 
HETATM   31  O   UNL     1      43.483 -10.882  -0.492  1.00  0.00    -0.291 OA
ENDBRANCH  24  29
ENDBRANCH   1  21
TORSDOF 2
ENDMDL
MODEL 3
REMARK VINA RESULT:      -9.0      4.083      6.140
REMARK  2 active torsions:
REMARK  status: ('A' for Active; 'I' for Inactive)
REMARK    1  A    between atoms: C_3  and  C_4 
REMARK    2  A    between atoms: C_11  and  C_12 
REMARK       I    between atoms: C_12  and  N_13 
ROOT
HETATM    1  C   UNL     1      40.692 -14.845   3.813  1.00  0.00     0.256 C 
HETATM    2  N   UNL     1      41.627 -15.779   4.281  1.00  0.00    -0.348 N 
HETATM    3  C   UNL     1      43.014 -15.456   4.604  1.00  0.00     0.128 C 
HETATM    4  C   UNL     1      43.608 -16.377   5.664  1.00  0.00     0.055 C 
HETATM    5  C   UNL     1      43.388 -17.867   5.351  1.00  0.00     0.100 C 
HETATM    6  N   UNL     1      44.169 -18.236   4.129  1.00  0.00    -0.273 NA
HETATM    7  C   UNL     1      44.255 -19.640   3.936  1.00  0.00     0.036 A 
HETATM    8  C   UNL     1      44.270 -20.534   5.021  1.00  0.00     0.056 A 
HETATM    9  N   UNL     1      44.110 -20.041   6.320  1.00  0.00    -0.324 N 
HETATM   10  C   UNL     1      43.822 -18.722   6.577  1.00  0.00     0.245 C 
HETATM   11  O   UNL     1      43.829 -18.305   7.735  1.00  0.00    -0.271 OA
HETATM   12  C   UNL     1      44.502 -20.132   2.652  1.00  0.00     0.026 A 
HETATM   13  C   UNL     1      44.695 -21.500   2.446  1.00  0.00     0.002 A 
HETATM   14  C   UNL     1      44.681 -22.381   3.529  1.00  0.00     0.002 A 
HETATM   15  C   UNL     1      44.481 -21.898   4.822  1.00  0.00     0.031 A 
HETATM   16  C   UNL     1      41.884 -18.099   5.109  1.00  0.00     0.055 C 
HETATM   17  C   UNL     1      41.340 -17.185   4.019  1.00  0.00     0.128 C 
HETATM   18  O   UNL     1      39.588 -15.178   3.386  1.00  0.00    -0.267 OA
HETATM   19  H   UNL     1      45.132 -17.907   4.224  1.00  0.00     0.129 HD
HETATM   20  H   UNL     1      44.275 -20.636   7.120  1.00  0.00     0.169 HD
ENDROOT
BRANCH   1  21
HETATM   21  C   UNL     1      41.029 -13.423   3.907  1.00  0.00     0.062 A 
HETATM   22  C   UNL     1      40.683 -12.535   4.990  1.00  0.00    -0.014 A 
HETATM   23  C   UNL     1      39.943 -12.948   6.217  1.00  0.00     0.052 C 
HETATM   24  C   UNL     1      41.165 -11.270   4.660  1.00  0.00     0.085 A 
HETATM   25  N   UNL     1      41.754 -11.381   3.418  1.00  0.00    -0.356 N 
HETATM   26  H   UNL     1      42.167 -10.592   2.935  1.00  0.00     0.166 HD
HETATM   27  C   UNL     1      41.645 -12.655   2.930  1.00  0.00     0.022 A 
HETATM   28  C   UNL     1      42.131 -12.992   1.567  1.00  0.00     0.069 C 
BRANCH  24  29
HETATM   29  C   UNL     1      41.144  -9.979   5.329  1.00  0.00     0.172 C 
HETATM   30  C   UNL     1      40.170  -8.926   4.873  1.00  0.00     0.098 C 
HETATM   31  O   UNL     1      41.920  -9.733   6.255  1.00  0.00    -0.291 OA
ENDBRANCH  24  29
ENDBRANCH   1  21
TORSDOF 2
ENDMDL
MODEL 4
REMARK VINA RESULT:      -8.6      2.690      4.605
REMARK  2 active torsions:
REMARK  status: ('A' for Active; 'I' for Inactive)
REMARK    1  A    between atoms: C_3  and  C_4 
REMARK    2  A    between atoms: C_11  and  C_12 
REMARK       I    between atoms: C_12  and  N_13 
ROOT
HETATM    1  C   UNL     1      39.941 -15.037   2.026  1.00  0.00     0.256 C 
HETATM    2  N   UNL     1      41.041 -15.680   2.609  1.00  0.00    -0.348 N 
HETATM    3  C   UNL     1      42.417 -15.201   2.508  1.00  0.00     0.128 C 
HETATM    4  C   UNL     1      43.282 -15.620   3.692  1.00  0.00     0.055 C 
HETATM    5  C   UNL     1      43.184 -17.123   4.001  1.00  0.00     0.100 C 
HETATM    6  N   UNL     1      43.785 -17.899   2.871  1.00  0.00    -0.273 NA
HETATM    7  C   UNL     1      43.996 -19.265   3.196  1.00  0.00     0.036 A 
HETATM    8  C   UNL     1      44.295 -19.673   4.508  1.00  0.00     0.056 A 
HETATM    9  N   UNL     1      44.301 -18.727   5.538  1.00  0.00    -0.324 N 
HETATM   10  C   UNL     1      43.911 -17.424   5.343  1.00  0.00     0.245 C 
HETATM   11  O   UNL     1      44.065 -16.595   6.240  1.00  0.00    -0.271 OA
HETATM   12  C   UNL     1      44.079 -20.201   2.162  1.00  0.00     0.026 A 
HETATM   13  C   UNL     1      44.388 -21.534   2.441  1.00  0.00     0.002 A 
HETATM   14  C   UNL     1      44.657 -21.933   3.752  1.00  0.00     0.002 A 
HETATM   15  C   UNL     1      44.624 -20.999   4.788  1.00  0.00     0.031 A 
HETATM   16  C   UNL     1      41.696 -17.492   4.165  1.00  0.00     0.055 C 
HETATM   17  C   UNL     1      40.877 -17.090   2.947  1.00  0.00     0.128 C 
HETATM   18  O   UNL     1      38.827 -15.553   1.980  1.00  0.00    -0.267 OA
HETATM   19  H   UNL     1      44.707 -17.520   2.646  1.00  0.00     0.129 HD
HETATM   20  H   UNL     1      44.664 -18.963   6.451  1.00  0.00     0.169 HD
ENDROOT
BRANCH   1  21
HETATM   21  C   UNL     1      40.126 -13.674   1.520  1.00  0.00     0.062 A 
HETATM   22  C   UNL     1      40.015 -12.457   2.288  1.00  0.00    -0.014 A 
HETATM   23  C   UNL     1      39.722 -12.406   3.750  1.00  0.00     0.052 C 
HETATM   24  C   UNL     1      40.229 -11.394   1.415  1.00  0.00     0.085 A 
HETATM   25  N   UNL     1      40.434 -11.941   0.166  1.00  0.00    -0.356 N 
HETATM   26  H   UNL     1      40.593 -11.377  -0.661  1.00  0.00     0.166 HD
HETATM   27  C   UNL     1      40.333 -13.305   0.199  1.00  0.00     0.022 A 
HETATM   28  C   UNL     1      40.431 -14.107  -1.048  1.00  0.00     0.069 C 
BRANCH  24  29
HETATM   29  C   UNL     1      40.258  -9.949   1.576  1.00  0.00     0.172 C 
HETATM   30  C   UNL     1      39.005  -9.226   1.993  1.00  0.00     0.098 C 
HETATM   31  O   UNL     1      41.291  -9.309   1.366  1.00  0.00    -0.291 OA
ENDBRANCH  24  29
ENDBRANCH   1  21
TORSDOF 2
ENDMDL
MODEL 5
REMARK VINA RESULT:      -8.5      2.671      3.451
REMARK  2 active torsions:
REMARK  status: ('A' for Active; 'I' for Inactive)
REMARK    1  A    between atoms: C_3  and  C_4 
REMARK    2  A    between atoms: C_11  and  C_12 
REMARK       I    between atoms: C_12  and  N_13 
ROOT
HETATM    1  C   UNL     1      39.962 -14.836   1.706  1.00  0.00     0.256 C 
HETATM    2  N   UNL     1      40.941 -14.994   2.697  1.00  0.00    -0.348 N 
HETATM    3  C   UNL     1      42.356 -14.685   2.505  1.00  0.00     0.128 C 
HETATM    4  C   UNL     1      43.060 -14.296   3.801  1.00  0.00     0.055 C 
HETATM    5  C   UNL     1      42.805 -15.295   4.942  1.00  0.00     0.100 C 
HETATM    6  N   UNL     1      43.448 -16.604   4.605  1.00  0.00    -0.273 NA
HETATM    7  C   UNL     1      43.510 -17.486   5.716  1.00  0.00     0.036 A 
HETATM    8  C   UNL     1      43.642 -17.008   7.031  1.00  0.00     0.056 A 
HETATM    9  N   UNL     1      43.625 -15.629   7.266  1.00  0.00    -0.324 N 
HETATM   10  C   UNL     1      43.368 -14.716   6.272  1.00  0.00     0.245 C 
HETATM   11  O   UNL     1      43.502 -13.513   6.493  1.00  0.00    -0.271 OA
HETATM   12  C   UNL     1      43.616 -18.860   5.483  1.00  0.00     0.026 A 
HETATM   13  C   UNL     1      43.783 -19.745   6.551  1.00  0.00     0.002 A 
HETATM   14  C   UNL     1      43.886 -19.259   7.855  1.00  0.00     0.002 A 
HETATM   15  C   UNL     1      43.828 -17.886   8.098  1.00  0.00     0.031 A 
HETATM   16  C   UNL     1      41.283 -15.478   5.101  1.00  0.00     0.055 C 
HETATM   17  C   UNL     1      40.626 -15.901   3.795  1.00  0.00     0.128 C 
HETATM   18  O   UNL     1      38.818 -15.266   1.838  1.00  0.00    -0.267 OA
HETATM   19  H   UNL     1      44.416 -16.448   4.318  1.00  0.00     0.129 HD
HETATM   20  H   UNL     1      43.875 -15.258   8.173  1.00  0.00     0.169 HD
ENDROOT
BRANCH   1  21
HETATM   21  C   UNL     1      40.310 -14.069   0.506  1.00  0.00     0.062 A 
HETATM   22  C   UNL     1      40.871 -14.602  -0.712  1.00  0.00    -0.014 A 
HETATM   23  C   UNL     1      41.157 -16.046  -0.949  1.00  0.00     0.052 C 
HETATM   24  C   UNL     1      41.080 -13.529  -1.576  1.00  0.00     0.085 A 
HETATM   25  N   UNL     1      40.687 -12.393  -0.900  1.00  0.00    -0.356 N 
HETATM   26  H   UNL     1      40.758 -11.465  -1.301  1.00  0.00     0.166 HD
HETATM   27  C   UNL     1      40.263 -12.691   0.366  1.00  0.00     0.022 A 
HETATM   28  C   UNL     1      39.873 -11.613   1.312  1.00  0.00     0.069 C 
BRANCH  24  29
HETATM   29  C   UNL     1      41.600 -13.412  -2.929  1.00  0.00     0.172 C 
HETATM   30  C   UNL     1      42.435 -12.215  -3.299  1.00  0.00     0.098 C 
HETATM   31  O   UNL     1      41.359 -14.274  -3.776  1.00  0.00    -0.291 OA
ENDBRANCH  24  29
ENDBRANCH   1  21
TORSDOF 2
ENDMDL
MODEL 6
REMARK VINA RESULT:      -8.5      3.199      8.106
REMARK  2 active torsions:
REMARK  status: ('A' for Active; 'I' for Inactive)
REMARK    1  A    between atoms: C_3  and  C_4 
REMARK    2  A    between atoms: C_11  and  C_12 
REMARK       I    between atoms: C_12  and  N_13 
ROOT
HETATM    1  C   UNL     1      43.884 -17.334   2.541  1.00  0.00     0.256 C 
HETATM    2  N   UNL     1      42.821 -16.510   2.934  1.00  0.00    -0.348 N 
HETATM    3  C   UNL     1      41.825 -16.881   3.936  1.00  0.00     0.128 C 
HETATM    4  C   UNL     1      41.227 -15.677   4.655  1.00  0.00     0.055 C 
HETATM    5  C   UNL     1      40.738 -14.586   3.688  1.00  0.00     0.100 C 
HETATM    6  N   UNL     1      39.573 -15.106   2.905  1.00  0.00    -0.273 NA
HETATM    7  C   UNL     1      38.883 -14.083   2.203  1.00  0.00     0.036 A 
HETATM    8  C   UNL     1      38.809 -12.770   2.699  1.00  0.00     0.056 A 
HETATM    9  N   UNL     1      39.502 -12.436   3.868  1.00  0.00    -0.324 N 
HETATM   10  C   UNL     1      40.352 -13.314   4.496  1.00  0.00     0.245 C 
HETATM   11  O   UNL     1      40.829 -13.028   5.594  1.00  0.00    -0.271 OA
HETATM   12  C   UNL     1      38.118 -14.427   1.086  1.00  0.00     0.026 A 
HETATM   13  C   UNL     1      37.347 -13.462   0.435  1.00  0.00     0.002 A 
HETATM   14  C   UNL     1      37.302 -12.154   0.922  1.00  0.00     0.002 A 
HETATM   15  C   UNL     1      38.024 -11.808   2.064  1.00  0.00     0.031 A 
HETATM   16  C   UNL     1      41.894 -14.222   2.736  1.00  0.00     0.055 C 
HETATM   17  C   UNL     1      42.437 -15.446   2.013  1.00  0.00     0.128 C 
HETATM   18  O   UNL     1      44.599 -17.069   1.577  1.00  0.00    -0.267 OA
HETATM   19  H   UNL     1      38.888 -15.519   3.542  1.00  0.00     0.129 HD
HETATM   20  H   UNL     1      39.338 -11.551   4.328  1.00  0.00     0.169 HD
ENDROOT
BRANCH   1  21
HETATM   21  C   UNL     1      44.184 -18.513   3.358  1.00  0.00     0.062 A 
HETATM   22  C   UNL     1      44.134 -19.888   2.922  1.00  0.00    -0.014 A 
HETATM   23  C   UNL     1      43.794 -20.322   1.536  1.00  0.00     0.052 C 
HETATM   24  C   UNL     1      44.455 -20.683   4.020  1.00  0.00     0.085 A 
HETATM   25  N   UNL     1      44.664 -19.829   5.082  1.00  0.00    -0.356 N 
HETATM   26  H   UNL     1      44.891 -20.157   6.013  1.00  0.00     0.166 HD
HETATM   27  C   UNL     1      44.464 -18.525   4.717  1.00  0.00     0.022 A 
HETATM   28  C   UNL     1      44.547 -17.432   5.719  1.00  0.00     0.069 C 
BRANCH  24  29
HETATM   29  C   UNL     1      44.582 -22.118   4.220  1.00  0.00     0.172 C 
HETATM   30  C   UNL     1      44.780 -22.655   5.613  1.00  0.00     0.098 C 
HETATM   31  O   UNL     1      44.539 -22.897   3.266  1.00  0.00    -0.291 OA
ENDBRANCH  24  29
ENDBRANCH   1  21
TORSDOF 2
ENDMDL
MODEL 7
REMARK VINA RESULT:      -8.3      1.942      2.603
REMARK  2 active torsions:
REMARK  status: ('A' for Active; 'I' for Inactive)
REMARK    1  A    between atoms: C_3  and  C_4 
REMARK    2  A    between atoms: C_11  and  C_12 
REMARK       I    between atoms: C_12  and  N_13 
ROOT
HETATM    1  C   UNL     1      41.649 -13.499   1.354  1.00  0.00     0.256 C 
HETATM    2  N   UNL     1      41.782 -14.736   2.001  1.00  0.00    -0.348 N 
HETATM    3  C   UNL     1      40.700 -15.708   2.135  1.00  0.00     0.128 C 
HETATM    4  C   UNL     1      41.201 -17.145   2.241  1.00  0.00     0.055 C 
HETATM    5  C   UNL     1      42.306 -17.315   3.297  1.00  0.00     0.100 C 
HETATM    6  N   UNL     1      41.731 -17.072   4.657  1.00  0.00    -0.273 NA
HETATM    7  C   UNL     1      42.600 -17.485   5.702  1.00  0.00     0.036 A 
HETATM    8  C   UNL     1      43.480 -18.571   5.543  1.00  0.00     0.056 A 
HETATM    9  N   UNL     1      43.568 -19.208   4.301  1.00  0.00    -0.324 N 
HETATM   10  C   UNL     1      42.911 -18.744   3.187  1.00  0.00     0.245 C 
HETATM   11  O   UNL     1      42.905 -19.413   2.154  1.00  0.00    -0.271 OA
HETATM   12  C   UNL     1      42.456 -16.913   6.968  1.00  0.00     0.026 A 
HETATM   13  C   UNL     1      43.224 -17.370   8.040  1.00  0.00     0.002 A 
HETATM   14  C   UNL     1      44.114 -18.431   7.864  1.00  0.00     0.002 A 
HETATM   15  C   UNL     1      44.235 -19.043   6.616  1.00  0.00     0.031 A 
HETATM   16  C   UNL     1      43.424 -16.294   3.005  1.00  0.00     0.055 C 
HETATM   17  C   UNL     1      42.886 -14.871   2.943  1.00  0.00     0.128 C 
HETATM   18  O   UNL     1      42.519 -12.633   1.409  1.00  0.00    -0.267 OA
HETATM   19  H   UNL     1      40.876 -17.620   4.772  1.00  0.00     0.129 HD
HETATM   20  H   UNL     1      44.069 -20.081   4.205  1.00  0.00     0.169 HD
ENDROOT
BRANCH   1  21
HETATM   21  C   UNL     1      40.456 -13.272   0.534  1.00  0.00     0.062 A 
HETATM   22  C   UNL     1      39.302 -12.490   0.906  1.00  0.00    -0.014 A 
HETATM   23  C   UNL     1      39.161 -11.754   2.195  1.00  0.00     0.052 C 
HETATM   24  C   UNL     1      38.392 -12.568  -0.146  1.00  0.00     0.085 A 
HETATM   25  N   UNL     1      38.959 -13.383  -1.103  1.00  0.00    -0.356 N 
HETATM   26  H   UNL     1      38.489 -13.623  -1.967  1.00  0.00     0.166 HD
HETATM   27  C   UNL     1      40.179 -13.851  -0.696  1.00  0.00     0.022 A 
HETATM   28  C   UNL     1      40.939 -14.819  -1.527  1.00  0.00     0.069 C 
BRANCH  24  29
HETATM   29  C   UNL     1      37.072 -12.003  -0.379  1.00  0.00     0.172 C 
HETATM   30  C   UNL     1      36.760 -11.380  -1.714  1.00  0.00     0.098 C 
HETATM   31  O   UNL     1      36.212 -12.018   0.504  1.00  0.00    -0.291 OA
ENDBRANCH  24  29
ENDBRANCH   1  21
TORSDOF 2
ENDMDL
MODEL 8
REMARK VINA RESULT:      -8.3      2.239      8.236
REMARK  2 active torsions:
REMARK  status: ('A' for Active; 'I' for Inactive)
REMARK    1  A    between atoms: C_3  and  C_4 
REMARK    2  A    between atoms: C_11  and  C_12 
REMARK       I    between atoms: C_12  and  N_13 
ROOT
HETATM    1  C   UNL     1      43.096 -14.964   2.926  1.00  0.00     0.256 C 
HETATM    2  N   UNL     1      42.023 -14.793   2.040  1.00  0.00    -0.348 N 
HETATM    3  C   UNL     1      41.286 -15.893   1.425  1.00  0.00     0.128 C 
HETATM    4  C   UNL     1      39.846 -15.528   1.082  1.00  0.00     0.055 C 
HETATM    5  C   UNL     1      39.735 -14.209   0.298  1.00  0.00     0.100 C 
HETATM    6  N   UNL     1      40.354 -14.385  -1.053  1.00  0.00    -0.273 NA
HETATM    7  C   UNL     1      40.044 -13.321  -1.940  1.00  0.00     0.036 A 
HETATM    8  C   UNL     1      38.825 -12.625  -1.860  1.00  0.00     0.056 A 
HETATM    9  N   UNL     1      37.928 -12.926  -0.829  1.00  0.00    -0.324 N 
HETATM   10  C   UNL     1      38.238 -13.799   0.185  1.00  0.00     0.245 C 
HETATM   11  O   UNL     1      37.372 -14.140   0.989  1.00  0.00    -0.271 OA
HETATM   12  C   UNL     1      40.892 -13.074  -3.023  1.00  0.00     0.026 A 
HETATM   13  C   UNL     1      40.562 -12.103  -3.971  1.00  0.00     0.002 A 
HETATM   14  C   UNL     1      39.360 -11.400  -3.865  1.00  0.00     0.002 A 
HETATM   15  C   UNL     1      38.482 -11.669  -2.815  1.00  0.00     0.031 A 
HETATM   16  C   UNL     1      40.478 -13.110   1.082  1.00  0.00     0.055 C 
HETATM   17  C   UNL     1      41.921 -13.501   1.372  1.00  0.00     0.128 C 
HETATM   18  O   UNL     1      43.804 -14.028   3.289  1.00  0.00    -0.267 OA
HETATM   19  H   UNL     1      39.986 -15.231  -1.492  1.00  0.00     0.129 HD
HETATM   20  H   UNL     1      36.987 -12.557  -0.842  1.00  0.00     0.169 HD
ENDROOT
BRANCH   1  21
HETATM   21  C   UNL     1      43.325 -16.300   3.483  1.00  0.00     0.062 A 
HETATM   22  C   UNL     1      43.882 -17.432   2.781  1.00  0.00    -0.014 A 
HETATM   23  C   UNL     1      44.346 -17.401   1.364  1.00  0.00     0.052 C 
HETATM   24  C   UNL     1      43.891 -18.506   3.667  1.00  0.00     0.085 A 
HETATM   25  N   UNL     1      43.339 -18.053   4.847  1.00  0.00    -0.356 N 
HETATM   26  H   UNL     1      43.208 -18.649   5.656  1.00  0.00     0.166 HD
HETATM   27  C   UNL     1      42.953 -16.744   4.743  1.00  0.00     0.022 A 
HETATM   28  C   UNL     1      42.252 -16.065   5.863  1.00  0.00     0.069 C 
BRANCH  24  29
HETATM   29  C   UNL     1      44.328 -19.890   3.568  1.00  0.00     0.172 C 
HETATM   30  C   UNL     1      43.931 -20.706   2.367  1.00  0.00     0.098 C 
HETATM   31  O   UNL     1      45.009 -20.404   4.458  1.00  0.00    -0.291 OA
ENDBRANCH  24  29
ENDBRANCH   1  21
TORSDOF 2
ENDMDL
MODEL 9
REMARK VINA RESULT:      -7.9      3.006      8.303
REMARK  2 active torsions:
REMARK  status: ('A' for Active; 'I' for Inactive)
REMARK    1  A    between atoms: C_3  and  C_4 
REMARK    2  A    between atoms: C_11  and  C_12 
REMARK       I    between atoms: C_12  and  N_13 
ROOT
HETATM    1  C   UNL     1      41.065 -16.753   2.395  1.00  0.00     0.256 C 
HETATM    2  N   UNL     1      41.147 -15.360   2.263  1.00  0.00    -0.348 N 
HETATM    3  C   UNL     1      42.093 -14.523   2.997  1.00  0.00     0.128 C 
HETATM    4  C   UNL     1      42.456 -13.243   2.252  1.00  0.00     0.055 C 
HETATM    5  C   UNL     1      41.223 -12.472   1.754  1.00  0.00     0.100 C 
HETATM    6  N   UNL     1      40.455 -11.954   2.930  1.00  0.00    -0.273 NA
HETATM    7  C   UNL     1      39.472 -10.997   2.565  1.00  0.00     0.036 A 
HETATM    8  C   UNL     1      39.651 -10.138   1.466  1.00  0.00     0.056 A 
HETATM    9  N   UNL     1      40.784 -10.283   0.658  1.00  0.00    -0.324 N 
HETATM   10  C   UNL     1      41.680 -11.311   0.823  1.00  0.00     0.245 C 
HETATM   11  O   UNL     1      42.731 -11.320   0.183  1.00  0.00    -0.271 OA
HETATM   12  C   UNL     1      38.384 -10.788   3.416  1.00  0.00     0.026 A 
HETATM   13  C   UNL     1      37.455  -9.783   3.138  1.00  0.00     0.002 A 
HETATM   14  C   UNL     1      37.630  -8.953   2.028  1.00  0.00     0.002 A 
HETATM   15  C   UNL     1      38.737  -9.121   1.196  1.00  0.00     0.031 A 
HETATM   16  C   UNL     1      40.345 -13.434   0.930  1.00  0.00     0.055 C 
HETATM   17  C   UNL     1      39.975 -14.680   1.722  1.00  0.00     0.128 C 
HETATM   18  O   UNL     1      40.149 -17.407   1.901  1.00  0.00    -0.267 OA
HETATM   19  H   UNL     1      41.090 -11.473   3.569  1.00  0.00     0.129 HD
HETATM   20  H   UNL     1      41.014  -9.584  -0.035  1.00  0.00     0.169 HD
ENDROOT
BRANCH   1  21
HETATM   21  C   UNL     1      42.152 -17.447   3.091  1.00  0.00     0.062 A 
HETATM   22  C   UNL     1      42.200 -17.761   4.498  1.00  0.00    -0.014 A 
HETATM   23  C   UNL     1      41.112 -17.450   5.470  1.00  0.00     0.052 C 
HETATM   24  C   UNL     1      43.420 -18.387   4.743  1.00  0.00     0.085 A 
HETATM   25  N   UNL     1      44.095 -18.425   3.540  1.00  0.00    -0.356 N 
HETATM   26  H   UNL     1      45.026 -18.813   3.446  1.00  0.00     0.166 HD
HETATM   27  C   UNL     1      43.369 -17.827   2.546  1.00  0.00     0.022 A 
HETATM   28  C   UNL     1      43.933 -17.672   1.180  1.00  0.00     0.069 C 
BRANCH  24  29
HETATM   29  C   UNL     1      44.048 -18.940   5.932  1.00  0.00     0.172 C 
HETATM   30  C   UNL     1      45.161 -18.180   6.602  1.00  0.00     0.098 C 
HETATM   31  O   UNL     1      43.687 -20.025   6.392  1.00  0.00    -0.291 OA
ENDBRANCH  24  29
ENDBRANCH   1  21
TORSDOF 2
ENDMDL
MODEL 10
REMARK VINA RESULT:      -7.9      2.843      8.573
REMARK  2 active torsions:
REMARK  status: ('A' for Active; 'I' for Inactive)
REMARK    1  A    between atoms: C_3  and  C_4 
REMARK    2  A    between atoms: C_11  and  C_12 
REMARK       I    between atoms: C_12  and  N_13 
ROOT
HETATM    1  C   UNL     1      43.418 -16.716   2.870  1.00  0.00     0.256 C 
HETATM    2  N   UNL     1      42.277 -15.906   2.951  1.00  0.00    -0.348 N 
HETATM    3  C   UNL     1      41.070 -16.266   3.690  1.00  0.00     0.128 C 
HETATM    4  C   UNL     1      40.291 -15.052   4.185  1.00  0.00     0.055 C 
HETATM    5  C   UNL     1      40.040 -14.013   3.080  1.00  0.00     0.100 C 
HETATM    6  N   UNL     1      39.115 -14.594   2.057  1.00  0.00    -0.273 NA
HETATM    7  C   UNL     1      38.604 -13.618   1.161  1.00  0.00     0.036 A 
HETATM    8  C   UNL     1      38.387 -12.289   1.565  1.00  0.00     0.056 A 
HETATM    9  N   UNL     1      38.762 -11.892   2.853  1.00  0.00    -0.324 N 
HETATM   10  C   UNL     1      39.444 -12.721   3.710  1.00  0.00     0.245 C 
HETATM   11  O   UNL     1      39.628 -12.380   4.878  1.00  0.00    -0.271 OA
HETATM   12  C   UNL     1      38.147 -14.026  -0.095  1.00  0.00     0.026 A 
HETATM   13  C   UNL     1      37.545 -13.108  -0.958  1.00  0.00     0.002 A 
HETATM   14  C   UNL     1      37.359 -11.784  -0.556  1.00  0.00     0.002 A 
HETATM   15  C   UNL     1      37.769 -11.374   0.713  1.00  0.00     0.031 A 
HETATM   16  C   UNL     1      41.390 -13.654   2.429  1.00  0.00     0.055 C 
HETATM   17  C   UNL     1      42.117 -14.890   1.917  1.00  0.00     0.128 C 
HETATM   18  O   UNL     1      44.346 -16.469   2.103  1.00  0.00    -0.267 OA
HETATM   19  H   UNL     1      38.300 -15.000   2.522  1.00  0.00     0.129 HD
HETATM   20  H   UNL     1      38.474 -10.994   3.218  1.00  0.00     0.169 HD
ENDROOT
BRANCH   1  21
HETATM   21  C   UNL     1      43.525 -17.854   3.788  1.00  0.00     0.062 A 
HETATM   22  C   UNL     1      43.688 -17.781   5.220  1.00  0.00    -0.014 A 
HETATM   23  C   UNL     1      43.739 -16.511   6.000  1.00  0.00     0.052 C 
HETATM   24  C   UNL     1      43.781 -19.087   5.694  1.00  0.00     0.085 A 
HETATM   25  N   UNL     1      43.706 -19.915   4.594  1.00  0.00    -0.356 N 
HETATM   26  H   UNL     1      43.772 -20.924   4.661  1.00  0.00     0.166 HD
HETATM   27  C   UNL     1      43.596 -19.193   3.436  1.00  0.00     0.022 A 
HETATM   28  C   UNL     1      43.588 -19.870   2.114  1.00  0.00     0.069 C 
BRANCH  24  29
HETATM   29  C   UNL     1      43.942 -19.669   7.017  1.00  0.00     0.172 C 
HETATM   30  C   UNL     1      43.596 -21.118   7.234  1.00  0.00     0.098 C 
HETATM   31  O   UNL     1      44.346 -18.989   7.963  1.00  0.00    -0.291 OA
ENDBRANCH  24  29
ENDBRANCH   1  21
TORSDOF 2
ENDMDL
