MODEL 1
REMARK VINA RESULT:      -8.8      0.000      0.000
REMARK  5 active torsions:
REMARK  status: ('A' for Active; 'I' for Inactive)
REMARK    1  A    between atoms: C_4  and  C_5 
REMARK    2  A    between atoms: C_5  and  N_6 
REMARK    3  A    between atoms: C_9  and  N_10 
REMARK       I    between atoms: N_10  and  C_11 
REMARK       I    between atoms: C_11  and  N_12 
REMARK    4  A    between atoms: N_12  and  N_13 
REMARK       I    between atoms: N_13  and  C_14 
REMARK    5  A    between atoms: C_14  and  C_15 
ROOT
HETATM    1  N   UNL     1      41.820 -14.160   4.426  1.00  0.00    -0.336 N 
HETATM    2  C   UNL     1      42.286 -13.987   5.708  1.00  0.00     0.335 C 
HETATM    3  N   UNL     1      42.161 -12.691   6.140  1.00  0.00    -0.249 N 
HETATM    4  O   UNL     1      42.741 -14.903   6.384  1.00  0.00    -0.246 OA
HETATM    5  H   UNL     1      41.108 -13.482   4.175  1.00  0.00     0.164 HD
HETATM    6  H   UNL     1      42.144 -11.921   5.471  1.00  0.00     0.192 HD
ENDROOT
BRANCH   1   7
HETATM    7  C   UNL     1      41.683 -15.502   3.869  1.00  0.00     0.112 C 
HETATM    8  C   UNL     1      42.991 -16.042   3.233  1.00  0.00     0.260 C 
HETATM    9  N   UNL     1      42.751 -17.415   2.631  1.00  0.00    -0.065 N 
HETATM   10  H   UNL     1      42.401 -18.006   3.394  1.00  0.00     0.280 HD
HETATM   11  C   UNL     1      41.690 -17.384   1.566  1.00  0.00     0.235 C 
HETATM   12  C   UNL     1      40.388 -16.890   2.183  1.00  0.00     0.030 C 
HETATM   13  C   UNL     1      40.552 -15.518   2.832  1.00  0.00     0.028 C 
BRANCH   9  14
HETATM   14  C   UNL     1      44.032 -18.105   2.196  1.00  0.00     0.273 C 
BRANCH  14  15
HETATM   15  C   UNL     1      44.169 -19.551   2.590  1.00  0.00    -0.033 A 
HETATM   16  C   UNL     1      44.654 -19.901   3.860  1.00  0.00     0.009 A 
HETATM   17  C   UNL     1      44.794 -21.241   4.220  1.00  0.00     0.001 A 
HETATM   18  C   UNL     1      44.449 -22.246   3.321  1.00  0.00     0.000 A 
HETATM   19  C   UNL     1      43.955 -21.914   2.062  1.00  0.00     0.001 A 
HETATM   20  C   UNL     1      43.813 -20.574   1.697  1.00  0.00     0.009 A 
ENDBRANCH  14  15
ENDBRANCH   9  14
ENDBRANCH   1   7
BRANCH   3  21
HETATM   21  N   UNL     1      42.706 -12.357   7.387  1.00  0.00    -0.261 N 
HETATM   22  C   UNL     1      42.448 -11.102   7.912  1.00  0.00     0.277 C 
HETATM   23  O   UNL     1      41.778 -10.291   7.270  1.00  0.00    -0.265 OA
HETATM   24  H   UNL     1      43.260 -13.056   7.876  1.00  0.00     0.190 HD
BRANCH  22  25
HETATM   25  C   UNL     1      43.002 -10.823   9.227  1.00  0.00     0.075 A 
HETATM   26  S   UNL     1      42.073 -10.116  10.485  1.00  0.00    -0.077 SA
HETATM   27  C   UNL     1      43.382 -10.159  11.557  1.00  0.00     0.052 A 
HETATM   28 BR   UNL     1      43.278  -9.541  13.322  1.00  0.00    -0.043 Br
HETATM   29  C   UNL     1      44.520 -10.688  11.005  1.00  0.00     0.028 A 
HETATM   30  C   UNL     1      44.297 -11.077   9.651  1.00  0.00     0.026 A 
ENDBRANCH  22  25
ENDBRANCH   3  21
TORSDOF 5
ENDMDL
MODEL 2
REMARK VINA RESULT:      -8.2      5.824      7.821
REMARK  5 active torsions:
REMARK  status: ('A' for Active; 'I' for Inactive)
REMARK    1  A    between atoms: C_4  and  C_5 
REMARK    2  A    between atoms: C_5  and  N_6 
REMARK    3  A    between atoms: C_9  and  N_10 
REMARK       I    between atoms: N_10  and  C_11 
REMARK       I    between atoms: C_11  and  N_12 
REMARK    4  A    between atoms: N_12  and  N_13 
REMARK       I    between atoms: N_13  and  C_14 
REMARK    5  A    between atoms: C_14  and  C_15 
ROOT
HETATM    1  N   UNL     1      40.790 -17.020   3.912  1.00  0.00    -0.336 N 
HETATM    2  C   UNL     1      40.867 -16.241   2.782  1.00  0.00     0.335 C 
HETATM    3  N   UNL     1      39.688 -16.217   2.080  1.00  0.00    -0.249 N 
HETATM    4  O   UNL     1      41.879 -15.627   2.461  1.00  0.00    -0.246 OA
HETATM    5  H   UNL     1      39.844 -17.089   4.274  1.00  0.00     0.164 HD
HETATM    6  H   UNL     1      39.029 -16.991   2.149  1.00  0.00     0.192 HD
ENDROOT
BRANCH   1   7
HETATM    7  C   UNL     1      41.874 -17.008   4.889  1.00  0.00     0.112 C 
HETATM    8  C   UNL     1      42.926 -18.124   4.656  1.00  0.00     0.260 C 
HETATM    9  N   UNL     1      43.987 -18.076   5.742  1.00  0.00    -0.065 N 
HETATM   10  H   UNL     1      44.388 -17.131   5.710  1.00  0.00     0.280 HD
HETATM   11  C   UNL     1      43.397 -18.265   7.112  1.00  0.00     0.235 C 
HETATM   12  C   UNL     1      42.386 -17.156   7.371  1.00  0.00     0.030 C 
HETATM   13  C   UNL     1      41.294 -17.123   6.306  1.00  0.00     0.028 C 
BRANCH   9  14
HETATM   14  C   UNL     1      45.171 -18.983   5.456  1.00  0.00     0.273 C 
BRANCH  14  15
HETATM   15  C   UNL     1      44.897 -20.162   4.562  1.00  0.00    -0.033 A 
HETATM   16  C   UNL     1      44.686 -19.980   3.186  1.00  0.00     0.009 A 
HETATM   17  C   UNL     1      44.418 -21.072   2.361  1.00  0.00     0.001 A 
HETATM   18  C   UNL     1      44.362 -22.356   2.896  1.00  0.00     0.000 A 
HETATM   19  C   UNL     1      44.580 -22.553   4.257  1.00  0.00     0.001 A 
HETATM   20  C   UNL     1      44.849 -21.463   5.088  1.00  0.00     0.009 A 
ENDBRANCH  14  15
ENDBRANCH   9  14
ENDBRANCH   1   7
BRANCH   3  21
HETATM   21  N   UNL     1      39.670 -15.553   0.847  1.00  0.00    -0.261 N 
HETATM   22  C   UNL     1      39.054 -14.315   0.766  1.00  0.00     0.277 C 
HETATM   23  O   UNL     1      38.508 -13.832   1.760  1.00  0.00    -0.265 OA
HETATM   24  H   UNL     1      40.127 -15.994   0.052  1.00  0.00     0.190 HD
BRANCH  22  25
HETATM   25  C   UNL     1      39.101 -13.651  -0.527  1.00  0.00     0.075 A 
HETATM   26  S   UNL     1      40.497 -12.823  -1.085  1.00  0.00    -0.077 SA
HETATM   27  C   UNL     1      39.741 -12.406  -2.541  1.00  0.00     0.052 A 
HETATM   28 BR   UNL     1      40.588 -11.415  -3.885  1.00  0.00    -0.043 Br
HETATM   29  C   UNL     1      38.452 -12.864  -2.634  1.00  0.00     0.028 A 
HETATM   30  C   UNL     1      38.082 -13.591  -1.464  1.00  0.00     0.026 A 
ENDBRANCH  22  25
ENDBRANCH   3  21
TORSDOF 5
ENDMDL
MODEL 3
REMARK VINA RESULT:      -8.1      4.386     10.531
REMARK  5 active torsions:
REMARK  status: ('A' for Active; 'I' for Inactive)
REMARK    1  A    between atoms: C_4  and  C_5 
REMARK    2  A    between atoms: C_5  and  N_6 
REMARK    3  A    between atoms: C_9  and  N_10 
REMARK       I    between atoms: N_10  and  C_11 
REMARK       I    between atoms: C_11  and  N_12 
REMARK    4  A    between atoms: N_12  and  N_13 
REMARK       I    between atoms: N_13  and  C_14 
REMARK    5  A    between atoms: C_14  and  C_15 
ROOT
HETATM    1  N   UNL     1      39.463 -12.908   7.012  1.00  0.00    -0.336 N 
HETATM    2  C   UNL     1      40.270 -13.550   6.102  1.00  0.00     0.335 C 
HETATM    3  N   UNL     1      39.668 -14.657   5.559  1.00  0.00    -0.249 N 
HETATM    4  O   UNL     1      41.391 -13.153   5.806  1.00  0.00    -0.246 OA
HETATM    5  H   UNL     1      38.476 -13.061   6.834  1.00  0.00     0.164 HD
HETATM    6  H   UNL     1      38.942 -15.156   6.071  1.00  0.00     0.192 HD
ENDROOT
BRANCH   1   7
HETATM    7  C   UNL     1      39.847 -11.604   7.543  1.00  0.00     0.112 C 
HETATM    8  C   UNL     1      39.442 -11.399   9.026  1.00  0.00     0.260 C 
HETATM    9  N   UNL     1      39.827 -10.003   9.485  1.00  0.00    -0.065 N 
HETATM   10  H   UNL     1      40.839  -9.918   9.328  1.00  0.00     0.280 HD
HETATM   11  C   UNL     1      39.157  -8.937   8.663  1.00  0.00     0.235 C 
HETATM   12  C   UNL     1      39.573  -9.103   7.208  1.00  0.00     0.030 C 
HETATM   13  C   UNL     1      39.238 -10.494   6.676  1.00  0.00     0.028 C 
BRANCH   9  14
HETATM   14  C   UNL     1      39.674  -9.807  10.983  1.00  0.00     0.273 C 
BRANCH  14  15
HETATM   15  C   UNL     1      40.947  -9.834  11.785  1.00  0.00    -0.033 A 
HETATM   16  C   UNL     1      40.938 -10.257  13.123  1.00  0.00     0.009 A 
HETATM   17  C   UNL     1      42.116 -10.268  13.871  1.00  0.00     0.001 A 
HETATM   18  C   UNL     1      43.315  -9.862  13.291  1.00  0.00     0.000 A 
HETATM   19  C   UNL     1      43.341  -9.450  11.961  1.00  0.00     0.001 A 
HETATM   20  C   UNL     1      42.165  -9.437  11.209  1.00  0.00     0.009 A 
ENDBRANCH  14  15
ENDBRANCH   9  14
ENDBRANCH   1   7
BRANCH   3  21
HETATM   21  N   UNL     1      40.429 -15.466   4.704  1.00  0.00    -0.261 N 
HETATM   22  C   UNL     1      41.041 -16.594   5.225  1.00  0.00     0.277 C 
HETATM   23  O   UNL     1      40.939 -16.851   6.425  1.00  0.00    -0.265 OA
HETATM   24  H   UNL     1      40.491 -15.208   3.722  1.00  0.00     0.190 HD
BRANCH  22  25
HETATM   25  C   UNL     1      41.782 -17.420   4.286  1.00  0.00     0.075 A 
HETATM   26  S   UNL     1      42.960 -18.560   4.796  1.00  0.00    -0.077 SA
HETATM   27  C   UNL     1      43.279 -19.033   3.201  1.00  0.00     0.052 A 
HETATM   28 BR   UNL     1      44.535 -20.349   2.758  1.00  0.00    -0.043 Br
HETATM   29  C   UNL     1      42.530 -18.356   2.274  1.00  0.00     0.028 A 
HETATM   30  C   UNL     1      41.657 -17.422   2.906  1.00  0.00     0.026 A 
ENDBRANCH  22  25
ENDBRANCH   3  21
TORSDOF 5
ENDMDL
MODEL 4
REMARK VINA RESULT:      -8.1      6.558      9.863
REMARK  5 active torsions:
REMARK  status: ('A' for Active; 'I' for Inactive)
REMARK    1  A    between atoms: C_4  and  C_5 
REMARK    2  A    between atoms: C_5  and  N_6 
REMARK    3  A    between atoms: C_9  and  N_10 
REMARK       I    between atoms: N_10  and  C_11 
REMARK       I    between atoms: C_11  and  N_12 
REMARK    4  A    between atoms: N_12  and  N_13 
REMARK       I    between atoms: N_13  and  C_14 
REMARK    5  A    between atoms: C_14  and  C_15 
ROOT
HETATM    1  N   UNL     1      42.810 -17.083   0.832  1.00  0.00    -0.336 N 
HETATM    2  C   UNL     1      41.601 -16.610   0.377  1.00  0.00     0.335 C 
HETATM    3  N   UNL     1      41.721 -15.910  -0.796  1.00  0.00    -0.249 N 
HETATM    4  O   UNL     1      40.541 -16.815   0.958  1.00  0.00    -0.246 OA
HETATM    5  H   UNL     1      43.479 -17.227   0.082  1.00  0.00     0.164 HD
HETATM    6  H   UNL     1      42.598 -15.450  -1.038  1.00  0.00     0.192 HD
ENDROOT
BRANCH   1   7
HETATM    7  C   UNL     1      42.858 -18.017   1.952  1.00  0.00     0.112 C 
HETATM    8  C   UNL     1      42.770 -17.324   3.337  1.00  0.00     0.260 C 
HETATM    9  N   UNL     1      42.882 -18.356   4.446  1.00  0.00    -0.065 N 
HETATM   10  H   UNL     1      42.126 -19.033   4.285  1.00  0.00     0.280 HD
HETATM   11  C   UNL     1      44.181 -19.111   4.380  1.00  0.00     0.235 C 
HETATM   12  C   UNL     1      44.267 -19.828   3.040  1.00  0.00     0.030 C 
HETATM   13  C   UNL     1      44.141 -18.858   1.868  1.00  0.00     0.028 C 
BRANCH   9  14
HETATM   14  C   UNL     1      42.574 -17.787   5.820  1.00  0.00     0.273 C 
BRANCH  14  15
HETATM   15  C   UNL     1      43.056 -16.385   6.076  1.00  0.00    -0.033 A 
HETATM   16  C   UNL     1      44.281 -16.160   6.723  1.00  0.00     0.009 A 
HETATM   17  C   UNL     1      44.721 -14.859   6.973  1.00  0.00     0.001 A 
HETATM   18  C   UNL     1      43.946 -13.772   6.579  1.00  0.00     0.000 A 
HETATM   19  C   UNL     1      42.733 -13.981   5.928  1.00  0.00     0.001 A 
HETATM   20  C   UNL     1      42.289 -15.280   5.675  1.00  0.00     0.009 A 
ENDBRANCH  14  15
ENDBRANCH   9  14
ENDBRANCH   1   7
BRANCH   3  21
HETATM   21  N   UNL     1      40.580 -15.275  -1.304  1.00  0.00    -0.261 N 
HETATM   22  C   UNL     1      40.452 -15.130  -2.675  1.00  0.00     0.277 C 
HETATM   23  O   UNL     1      41.349 -15.526  -3.422  1.00  0.00    -0.265 OA
HETATM   24  H   UNL     1      39.870 -14.957  -0.647  1.00  0.00     0.190 HD
BRANCH  22  25
HETATM   25  C   UNL     1      39.230 -14.502  -3.149  1.00  0.00     0.075 A 
HETATM   26  S   UNL     1      37.978 -15.392  -3.917  1.00  0.00    -0.077 SA
HETATM   27  C   UNL     1      37.028 -14.004  -4.109  1.00  0.00     0.052 A 
HETATM   28 BR   UNL     1      35.338 -14.026  -4.915  1.00  0.00    -0.043 Br
HETATM   29  C   UNL     1      37.619 -12.869  -3.617  1.00  0.00     0.028 A 
HETATM   30  C   UNL     1      38.897 -13.160  -3.056  1.00  0.00     0.026 A 
ENDBRANCH  22  25
ENDBRANCH   3  21
TORSDOF 5
ENDMDL
MODEL 5
REMARK VINA RESULT:      -8.0      1.832      2.008
REMARK  5 active torsions:
REMARK  status: ('A' for Active; 'I' for Inactive)
REMARK    1  A    between atoms: C_4  and  C_5 
REMARK    2  A    between atoms: C_5  and  N_6 
REMARK    3  A    between atoms: C_9  and  N_10 
REMARK       I    between atoms: N_10  and  C_11 
REMARK       I    between atoms: C_11  and  N_12 
REMARK    4  A    between atoms: N_12  and  N_13 
REMARK       I    between atoms: N_13  and  C_14 
REMARK    5  A    between atoms: C_14  and  C_15 
ROOT
HETATM    1  N   UNL     1      42.026 -14.302   4.218  1.00  0.00    -0.336 N 
HETATM    2  C   UNL     1      41.452 -13.922   5.408  1.00  0.00     0.335 C 
HETATM    3  N   UNL     1      41.690 -12.604   5.707  1.00  0.00    -0.249 N 
HETATM    4  O   UNL     1      40.789 -14.683   6.104  1.00  0.00    -0.246 OA
HETATM    5  H   UNL     1      42.141 -13.524   3.575  1.00  0.00     0.164 HD
HETATM    6  H   UNL     1      42.512 -12.129   5.337  1.00  0.00     0.192 HD
ENDROOT
BRANCH   1   7
HETATM    7  C   UNL     1      41.715 -15.603   3.635  1.00  0.00     0.112 C 
HETATM    8  C   UNL     1      42.909 -16.239   2.876  1.00  0.00     0.260 C 
HETATM    9  N   UNL     1      42.490 -17.561   2.256  1.00  0.00    -0.065 N 
HETATM   10  H   UNL     1      42.147 -18.144   3.028  1.00  0.00     0.280 HD
HETATM   11  C   UNL     1      41.354 -17.390   1.286  1.00  0.00     0.235 C 
HETATM   12  C   UNL     1      40.160 -16.799   2.024  1.00  0.00     0.030 C 
HETATM   13  C   UNL     1      40.507 -15.474   2.696  1.00  0.00     0.028 C 
BRANCH   9  14
HETATM   14  C   UNL     1      43.659 -18.351   1.695  1.00  0.00     0.273 C 
BRANCH  14  15
HETATM   15  C   UNL     1      43.987 -19.636   2.406  1.00  0.00    -0.033 A 
HETATM   16  C   UNL     1      44.443 -19.620   3.734  1.00  0.00     0.009 A 
HETATM   17  C   UNL     1      44.761 -20.811   4.388  1.00  0.00     0.001 A 
HETATM   18  C   UNL     1      44.624 -22.029   3.727  1.00  0.00     0.000 A 
HETATM   19  C   UNL     1      44.163 -22.061   2.413  1.00  0.00     0.001 A 
HETATM   20  C   UNL     1      43.844 -20.872   1.755  1.00  0.00     0.009 A 
ENDBRANCH  14  15
ENDBRANCH   9  14
ENDBRANCH   1   7
BRANCH   3  21
HETATM   21  N   UNL     1      41.258 -12.123   6.950  1.00  0.00    -0.261 N 
HETATM   22  C   UNL     1      41.230 -10.754   7.161  1.00  0.00     0.277 C 
HETATM   23  O   UNL     1      41.611  -9.986   6.276  1.00  0.00    -0.265 OA
HETATM   24  H   UNL     1      40.961 -12.795   7.653  1.00  0.00     0.190 HD
BRANCH  22  25
HETATM   25  C   UNL     1      40.734 -10.308   8.453  1.00  0.00     0.075 A 
HETATM   26  S   UNL     1      39.065 -10.040   8.754  1.00  0.00    -0.077 SA
HETATM   27  C   UNL     1      39.366  -9.592  10.359  1.00  0.00     0.052 A 
HETATM   28 BR   UNL     1      38.011  -9.097  11.553  1.00  0.00    -0.043 Br
HETATM   29  C   UNL     1      40.695  -9.630  10.694  1.00  0.00     0.028 A 
HETATM   30  C   UNL     1      41.489 -10.049   9.585  1.00  0.00     0.026 A 
ENDBRANCH  22  25
ENDBRANCH   3  21
TORSDOF 5
ENDMDL
MODEL 6
REMARK VINA RESULT:      -8.0      5.917      7.679
REMARK  5 active torsions:
REMARK  status: ('A' for Active; 'I' for Inactive)
REMARK    1  A    between atoms: C_4  and  C_5 
REMARK    2  A    between atoms: C_5  and  N_6 
REMARK    3  A    between atoms: C_9  and  N_10 
REMARK       I    between atoms: N_10  and  C_11 
REMARK       I    between atoms: C_11  and  N_12 
REMARK    4  A    between atoms: N_12  and  N_13 
REMARK       I    between atoms: N_13  and  C_14 
REMARK    5  A    between atoms: C_14  and  C_15 
ROOT
HETATM    1  N   UNL     1      40.826 -16.819   3.200  1.00  0.00    -0.336 N 
HETATM    2  C   UNL     1      40.085 -15.696   2.915  1.00  0.00     0.335 C 
HETATM    3  N   UNL     1      39.126 -15.930   1.963  1.00  0.00    -0.249 N 
HETATM    4  O   UNL     1      40.262 -14.619   3.473  1.00  0.00    -0.246 OA
HETATM    5  H   UNL     1      40.316 -17.678   3.022  1.00  0.00     0.164 HD
HETATM    6  H   UNL     1      39.245 -16.676   1.279  1.00  0.00     0.192 HD
ENDROOT
BRANCH   1   7
HETATM    7  C   UNL     1      41.755 -16.821   4.325  1.00  0.00     0.112 C 
HETATM    8  C   UNL     1      42.870 -17.893   4.203  1.00  0.00     0.260 C 
HETATM    9  N   UNL     1      43.758 -17.865   5.434  1.00  0.00    -0.065 N 
HETATM   10  H   UNL     1      44.125 -16.908   5.502  1.00  0.00     0.280 HD
HETATM   11  C   UNL     1      42.982 -18.137   6.693  1.00  0.00     0.235 C 
HETATM   12  C   UNL     1      41.905 -17.071   6.847  1.00  0.00     0.030 C 
HETATM   13  C   UNL     1      40.979 -17.020   5.635  1.00  0.00     0.028 C 
BRANCH   9  14
HETATM   14  C   UNL     1      45.004 -18.722   5.288  1.00  0.00     0.273 C 
BRANCH  14  15
HETATM   15  C   UNL     1      44.816 -20.045   4.596  1.00  0.00    -0.033 A 
HETATM   16  C   UNL     1      44.744 -21.234   5.338  1.00  0.00     0.009 A 
HETATM   17  C   UNL     1      44.585 -22.462   4.695  1.00  0.00     0.001 A 
HETATM   18  C   UNL     1      44.493 -22.517   3.307  1.00  0.00     0.000 A 
HETATM   19  C   UNL     1      44.552 -21.344   2.559  1.00  0.00     0.001 A 
HETATM   20  C   UNL     1      44.711 -20.113   3.197  1.00  0.00     0.009 A 
ENDBRANCH  14  15
ENDBRANCH   9  14
ENDBRANCH   1   7
BRANCH   3  21
HETATM   21  N   UNL     1      38.380 -14.838   1.499  1.00  0.00    -0.261 N 
HETATM   22  C   UNL     1      38.796 -14.188   0.348  1.00  0.00     0.277 C 
HETATM   23  O   UNL     1      39.823 -14.553  -0.228  1.00  0.00    -0.265 OA
HETATM   24  H   UNL     1      37.544 -14.569   2.013  1.00  0.00     0.190 HD
BRANCH  22  25
HETATM   25  C   UNL     1      37.963 -13.090  -0.112  1.00  0.00     0.075 A 
HETATM   26  S   UNL     1      38.036 -12.492  -1.720  1.00  0.00    -0.077 SA
HETATM   27  C   UNL     1      36.838 -11.337  -1.408  1.00  0.00     0.052 A 
HETATM   28 BR   UNL     1      36.216 -10.134  -2.702  1.00  0.00    -0.043 Br
HETATM   29  C   UNL     1      36.372 -11.371  -0.119  1.00  0.00     0.028 A 
HETATM   30  C   UNL     1      37.024 -12.393   0.633  1.00  0.00     0.026 A 
ENDBRANCH  22  25
ENDBRANCH   3  21
TORSDOF 5
ENDMDL
MODEL 7
REMARK VINA RESULT:      -7.5      6.459      8.759
REMARK  5 active torsions:
REMARK  status: ('A' for Active; 'I' for Inactive)
REMARK    1  A    between atoms: C_4  and  C_5 
REMARK    2  A    between atoms: C_5  and  N_6 
REMARK    3  A    between atoms: C_9  and  N_10 
REMARK       I    between atoms: N_10  and  C_11 
REMARK       I    between atoms: C_11  and  N_12 
REMARK    4  A    between atoms: N_12  and  N_13 
REMARK       I    between atoms: N_13  and  C_14 
REMARK    5  A    between atoms: C_14  and  C_15 
ROOT
HETATM    1  N   UNL     1      42.516 -15.171   2.790  1.00  0.00    -0.336 N 
HETATM    2  C   UNL     1      41.544 -15.534   1.888  1.00  0.00     0.335 C 
HETATM    3  N   UNL     1      41.645 -14.847   0.705  1.00  0.00    -0.249 N 
HETATM    4  O   UNL     1      40.700 -16.392   2.122  1.00  0.00    -0.246 OA
HETATM    5  H   UNL     1      43.355 -14.820   2.339  1.00  0.00     0.164 HD
HETATM    6  H   UNL     1      42.081 -13.926   0.676  1.00  0.00     0.192 HD
ENDROOT
BRANCH   1   7
HETATM    7  C   UNL     1      42.695 -15.932   4.023  1.00  0.00     0.112 C 
HETATM    8  C   UNL     1      43.692 -17.111   3.880  1.00  0.00     0.260 C 
HETATM    9  N   UNL     1      43.780 -17.882   5.185  1.00  0.00    -0.065 N 
HETATM   10  H   UNL     1      44.061 -17.201   5.902  1.00  0.00     0.280 HD
HETATM   11  C   UNL     1      42.447 -18.441   5.599  1.00  0.00     0.235 C 
HETATM   12  C   UNL     1      41.465 -17.291   5.778  1.00  0.00     0.030 C 
HETATM   13  C   UNL     1      41.335 -16.452   4.511  1.00  0.00     0.028 C 
BRANCH   9  14
HETATM   14  C   UNL     1      44.902 -18.905   5.197  1.00  0.00     0.273 C 
BRANCH  14  15
HETATM   15  C   UNL     1      44.711 -20.103   4.307  1.00  0.00    -0.033 A 
HETATM   16  C   UNL     1      44.394 -19.939   2.949  1.00  0.00     0.009 A 
HETATM   17  C   UNL     1      44.203 -21.050   2.127  1.00  0.00     0.001 A 
HETATM   18  C   UNL     1      44.328 -22.334   2.648  1.00  0.00     0.000 A 
HETATM   19  C   UNL     1      44.653 -22.512   3.991  1.00  0.00     0.001 A 
HETATM   20  C   UNL     1      44.846 -21.404   4.817  1.00  0.00     0.009 A 
ENDBRANCH  14  15
ENDBRANCH   9  14
ENDBRANCH   1   7
BRANCH   3  21
HETATM   21  N   UNL     1      40.643 -15.040  -0.256  1.00  0.00    -0.261 N 
HETATM   22  C   UNL     1      40.838 -14.535  -1.531  1.00  0.00     0.277 C 
HETATM   23  O   UNL     1      41.862 -13.903  -1.794  1.00  0.00    -0.265 OA
HETATM   24  H   UNL     1      39.811 -15.561   0.010  1.00  0.00     0.190 HD
BRANCH  22  25
HETATM   25  C   UNL     1      39.786 -14.800  -2.500  1.00  0.00     0.075 A 
HETATM   26  S   UNL     1      38.347 -13.867  -2.572  1.00  0.00    -0.077 SA
HETATM   27  C   UNL     1      37.752 -14.777  -3.870  1.00  0.00     0.052 A 
HETATM   28 BR   UNL     1      36.098 -14.440  -4.681  1.00  0.00    -0.043 Br
HETATM   29  C   UNL     1      38.599 -15.780  -4.265  1.00  0.00     0.028 A 
HETATM   30  C   UNL     1      39.784 -15.790  -3.469  1.00  0.00     0.026 A 
ENDBRANCH  22  25
ENDBRANCH   3  21
TORSDOF 5
ENDMDL
MODEL 8
REMARK VINA RESULT:      -7.5      5.629      7.587
REMARK  5 active torsions:
REMARK  status: ('A' for Active; 'I' for Inactive)
REMARK    1  A    between atoms: C_4  and  C_5 
REMARK    2  A    between atoms: C_5  and  N_6 
REMARK    3  A    between atoms: C_9  and  N_10 
REMARK       I    between atoms: N_10  and  C_11 
REMARK       I    between atoms: C_11  and  N_12 
REMARK    4  A    between atoms: N_12  and  N_13 
REMARK       I    between atoms: N_13  and  C_14 
REMARK    5  A    between atoms: C_14  and  C_15 
ROOT
HETATM    1  N   UNL     1      42.290 -13.238   4.470  1.00  0.00    -0.336 N 
HETATM    2  C   UNL     1      42.476 -12.898   3.151  1.00  0.00     0.335 C 
HETATM    3  N   UNL     1      41.751 -11.792   2.787  1.00  0.00    -0.249 N 
HETATM    4  O   UNL     1      43.226 -13.514   2.401  1.00  0.00    -0.246 OA
HETATM    5  H   UNL     1      42.031 -12.442   5.044  1.00  0.00     0.164 HD
HETATM    6  H   UNL     1      40.895 -11.547   3.284  1.00  0.00     0.192 HD
ENDROOT
BRANCH   1   7
HETATM    7  C   UNL     1      43.127 -14.259   5.091  1.00  0.00     0.112 C 
HETATM    8  C   UNL     1      42.442 -15.647   5.183  1.00  0.00     0.260 C 
HETATM    9  N   UNL     1      43.354 -16.636   5.887  1.00  0.00    -0.065 N 
HETATM   10  H   UNL     1      44.229 -16.653   5.349  1.00  0.00     0.280 HD
HETATM   11  C   UNL     1      43.696 -16.188   7.281  1.00  0.00     0.235 C 
HETATM   12  C   UNL     1      44.403 -14.842   7.207  1.00  0.00     0.030 C 
HETATM   13  C   UNL     1      43.556 -13.794   6.491  1.00  0.00     0.028 C 
BRANCH   9  14
HETATM   14  C   UNL     1      42.852 -18.067   5.810  1.00  0.00     0.273 C 
BRANCH  14  15
HETATM   15  C   UNL     1      43.462 -18.922   4.733  1.00  0.00    -0.033 A 
HETATM   16  C   UNL     1      44.442 -19.876   5.049  1.00  0.00     0.009 A 
HETATM   17  C   UNL     1      45.017 -20.659   4.048  1.00  0.00     0.001 A 
HETATM   18  C   UNL     1      44.620 -20.502   2.723  1.00  0.00     0.000 A 
HETATM   19  C   UNL     1      43.641 -19.567   2.396  1.00  0.00     0.001 A 
HETATM   20  C   UNL     1      43.062 -18.781   3.394  1.00  0.00     0.009 A 
ENDBRANCH  14  15
ENDBRANCH   9  14
ENDBRANCH   1   7
BRANCH   3  21
HETATM   21  N   UNL     1      41.762 -11.412   1.439  1.00  0.00    -0.261 N 
HETATM   22  C   UNL     1      40.683 -11.756   0.641  1.00  0.00     0.277 C 
HETATM   23  O   UNL     1      39.753 -12.413   1.112  1.00  0.00    -0.265 OA
HETATM   24  H   UNL     1      42.555 -10.878   1.092  1.00  0.00     0.190 HD
BRANCH  22  25
HETATM   25  C   UNL     1      40.726 -11.300  -0.739  1.00  0.00     0.075 A 
HETATM   26  S   UNL     1      42.194 -11.180  -1.621  1.00  0.00    -0.077 SA
HETATM   27  C   UNL     1      41.386 -10.632  -3.005  1.00  0.00     0.052 A 
HETATM   28 BR   UNL     1      42.267 -10.214  -4.604  1.00  0.00    -0.043 Br
HETATM   29  C   UNL     1      40.030 -10.525  -2.836  1.00  0.00     0.028 A 
HETATM   30  C   UNL     1      39.647 -10.918  -1.519  1.00  0.00     0.026 A 
ENDBRANCH  22  25
ENDBRANCH   3  21
TORSDOF 5
ENDMDL
MODEL 9
REMARK VINA RESULT:      -7.4      7.020      8.984
REMARK  5 active torsions:
REMARK  status: ('A' for Active; 'I' for Inactive)
REMARK    1  A    between atoms: C_4  and  C_5 
REMARK    2  A    between atoms: C_5  and  N_6 
REMARK    3  A    between atoms: C_9  and  N_10 
REMARK       I    between atoms: N_10  and  C_11 
REMARK       I    between atoms: C_11  and  N_12 
REMARK    4  A    between atoms: N_12  and  N_13 
REMARK       I    between atoms: N_13  and  C_14 
REMARK    5  A    between atoms: C_14  and  C_15 
ROOT
HETATM    1  N   UNL     1      42.136 -16.214   0.117  1.00  0.00    -0.336 N 
HETATM    2  C   UNL     1      41.537 -15.111  -0.447  1.00  0.00     0.335 C 
HETATM    3  N   UNL     1      41.408 -15.224  -1.808  1.00  0.00    -0.249 N 
HETATM    4  O   UNL     1      41.151 -14.151   0.210  1.00  0.00    -0.246 OA
HETATM    5  H   UNL     1      41.995 -17.056  -0.432  1.00  0.00     0.164 HD
HETATM    6  H   UNL     1      42.043 -15.816  -2.342  1.00  0.00     0.192 HD
ENDROOT
BRANCH   1   7
HETATM    7  C   UNL     1      42.177 -16.366   1.567  1.00  0.00     0.112 C 
HETATM    8  C   UNL     1      43.279 -17.344   2.053  1.00  0.00     0.260 C 
HETATM    9  N   UNL     1      43.221 -17.488   3.563  1.00  0.00    -0.065 N 
HETATM   10  H   UNL     1      43.326 -16.541   3.947  1.00  0.00     0.280 HD
HETATM   11  C   UNL     1      41.890 -18.013   4.026  1.00  0.00     0.235 C 
HETATM   12  C   UNL     1      40.800 -17.045   3.588  1.00  0.00     0.030 C 
HETATM   13  C   UNL     1      40.805 -16.829   2.078  1.00  0.00     0.028 C 
BRANCH   9  14
HETATM   14  C   UNL     1      44.408 -18.244   4.134  1.00  0.00     0.273 C 
BRANCH  14  15
HETATM   15  C   UNL     1      44.442 -19.723   3.860  1.00  0.00    -0.033 A 
HETATM   16  C   UNL     1      44.696 -20.635   4.898  1.00  0.00     0.009 A 
HETATM   17  C   UNL     1      44.741 -22.005   4.640  1.00  0.00     0.001 A 
HETATM   18  C   UNL     1      44.531 -22.481   3.349  1.00  0.00     0.000 A 
HETATM   19  C   UNL     1      44.267 -21.589   2.313  1.00  0.00     0.001 A 
HETATM   20  C   UNL     1      44.221 -20.217   2.565  1.00  0.00     0.009 A 
ENDBRANCH  14  15
ENDBRANCH   9  14
ENDBRANCH   1   7
BRANCH   3  21
HETATM   21  N   UNL     1      40.920 -14.118  -2.516  1.00  0.00    -0.261 N 
HETATM   22  C   UNL     1      41.822 -13.182  -2.994  1.00  0.00     0.277 C 
HETATM   23  O   UNL     1      43.026 -13.314  -2.765  1.00  0.00    -0.265 OA
HETATM   24  H   UNL     1      39.917 -14.047  -2.673  1.00  0.00     0.190 HD
BRANCH  22  25
HETATM   25  C   UNL     1      41.266 -12.077  -3.758  1.00  0.00     0.075 A 
HETATM   26  S   UNL     1      42.249 -11.000  -4.664  1.00  0.00    -0.077 SA
HETATM   27  C   UNL     1      40.902 -10.119  -5.190  1.00  0.00     0.052 A 
HETATM   28 BR   UNL     1      41.031  -8.634  -6.323  1.00  0.00    -0.043 Br
HETATM   29  C   UNL     1      39.714 -10.601  -4.704  1.00  0.00     0.028 A 
HETATM   30  C   UNL     1      39.927 -11.742  -3.874  1.00  0.00     0.026 A 
ENDBRANCH  22  25
ENDBRANCH   3  21
TORSDOF 5
ENDMDL
MODEL 10
REMARK VINA RESULT:      -7.3      6.719      9.209
REMARK  5 active torsions:
REMARK  status: ('A' for Active; 'I' for Inactive)
REMARK    1  A    between atoms: C_4  and  C_5 
REMARK    2  A    between atoms: C_5  and  N_6 
REMARK    3  A    between atoms: C_9  and  N_10 
REMARK       I    between atoms: N_10  and  C_11 
REMARK       I    between atoms: C_11  and  N_12 
REMARK    4  A    between atoms: N_12  and  N_13 
REMARK       I    between atoms: N_13  and  C_14 
REMARK    5  A    between atoms: C_14  and  C_15 
ROOT
HETATM    1  N   UNL     1      40.952 -16.918   0.010  1.00  0.00    -0.336 N 
HETATM    2  C   UNL     1      41.168 -15.606  -0.343  1.00  0.00     0.335 C 
HETATM    3  N   UNL     1      40.271 -15.162  -1.282  1.00  0.00    -0.249 N 
HETATM    4  O   UNL     1      42.055 -14.918   0.149  1.00  0.00    -0.246 OA
HETATM    5  H   UNL     1      39.986 -17.202  -0.117  1.00  0.00     0.164 HD
HETATM    6  H   UNL     1      39.821 -15.818  -1.919  1.00  0.00     0.192 HD
ENDROOT
BRANCH   1   7
HETATM    7  C   UNL     1      41.673 -17.503   1.135  1.00  0.00     0.112 C 
HETATM    8  C   UNL     1      41.259 -16.911   2.508  1.00  0.00     0.260 C 
HETATM    9  N   UNL     1      42.090 -17.532   3.617  1.00  0.00    -0.065 N 
HETATM   10  H   UNL     1      41.941 -18.546   3.554  1.00  0.00     0.280 HD
HETATM   11  C   UNL     1      43.560 -17.284   3.423  1.00  0.00     0.235 C 
HETATM   12  C   UNL     1      43.991 -17.891   2.095  1.00  0.00     0.030 C 
HETATM   13  C   UNL     1      43.185 -17.332   0.926  1.00  0.00     0.028 C 
BRANCH   9  14
HETATM   14  C   UNL     1      41.588 -17.176   5.006  1.00  0.00     0.273 C 
BRANCH  14  15
HETATM   15  C   UNL     1      42.456 -17.618   6.153  1.00  0.00    -0.033 A 
HETATM   16  C   UNL     1      43.057 -18.887   6.145  1.00  0.00     0.009 A 
HETATM   17  C   UNL     1      43.849 -19.301   7.216  1.00  0.00     0.001 A 
HETATM   18  C   UNL     1      44.054 -18.455   8.303  1.00  0.00     0.000 A 
HETATM   19  C   UNL     1      43.473 -17.190   8.319  1.00  0.00     0.001 A 
HETATM   20  C   UNL     1      42.679 -16.770   7.250  1.00  0.00     0.009 A 
ENDBRANCH  14  15
ENDBRANCH   9  14
ENDBRANCH   1   7
BRANCH   3  21
HETATM   21  N   UNL     1      40.454 -13.879  -1.812  1.00  0.00    -0.261 N 
HETATM   22  C   UNL     1      41.000 -13.753  -3.079  1.00  0.00     0.277 C 
HETATM   23  O   UNL     1      41.345 -14.758  -3.703  1.00  0.00    -0.265 OA
HETATM   24  H   UNL     1      40.162 -13.078  -1.256  1.00  0.00     0.190 HD
BRANCH  22  25
HETATM   25  C   UNL     1      41.129 -12.401  -3.597  1.00  0.00     0.075 A 
HETATM   26  S   UNL     1      39.814 -11.298  -3.626  1.00  0.00    -0.077 SA
HETATM   27  C   UNL     1      40.771 -10.083  -4.315  1.00  0.00     0.052 A 
HETATM   28 BR   UNL     1      40.115  -8.378  -4.729  1.00  0.00    -0.043 Br
HETATM   29  C   UNL     1      42.066 -10.472  -4.538  1.00  0.00     0.028 A 
HETATM   30  C   UNL     1      42.275 -11.819  -4.117  1.00  0.00     0.026 A 
ENDBRANCH  22  25
ENDBRANCH   3  21
TORSDOF 5
ENDMDL
