MODEL 1
REMARK VINA RESULT:      -9.8      0.000      0.000
REMARK  9 active torsions:
REMARK  status: ('A' for Active; 'I' for Inactive)
REMARK    1  A    between atoms: C_8  and  C_9 
REMARK    2  A    between atoms: C_9  and  C_10 
REMARK    3  A    between atoms: N_14  and  C_15 
REMARK    4  A    between atoms: C_15  and  C_16 
REMARK    5  A    between atoms: C_27  and  N_28 
REMARK    6  A    between atoms: N_28  and  C_29 
REMARK    7  A    between atoms: C_29  and  C_30 
REMARK    8  A    between atoms: C_30  and  O_31 
REMARK    9  A    between atoms: C_30  and  C_32 
ROOT
HETATM    1  C   UNL     1      44.198 -17.486   6.351  1.00  0.00     0.052 C 
HETATM    2  C   UNL     1      44.010 -16.002   6.340  1.00  0.00    -0.015 A 
HETATM    3  C   UNL     1      43.318 -15.394   5.150  1.00  0.00     0.144 A 
HETATM    4  N   UNL     1      43.002 -16.151   4.147  1.00  0.00    -0.217 NA
HETATM    5  N   UNL     1      43.054 -14.036   5.197  1.00  0.00    -0.272 N 
HETATM    6  C   UNL     1      42.372 -13.434   4.153  1.00  0.00     0.266 A 
HETATM    7  O   UNL     1      42.134 -12.224   4.087  1.00  0.00    -0.267 OA
HETATM    8  C   UNL     1      41.916 -14.334   3.055  1.00  0.00     0.074 A 
HETATM    9  C   UNL     1      42.321 -15.624   3.085  1.00  0.00     0.121 A 
HETATM   10  C   UNL     1      43.489 -13.256   6.263  1.00  0.00     0.102 A 
HETATM   11  C   UNL     1      44.146 -13.784   7.301  1.00  0.00     0.018 A 
HETATM   12  C   UNL     1      44.394 -15.200   7.346  1.00  0.00     0.012 A 
ENDROOT
BRANCH   8  13
HETATM   13  C   UNL     1      41.059 -13.766   2.021  1.00  0.00     0.045 C 
BRANCH  13  14
HETATM   14  C   UNL     1      41.464 -13.340   0.816  1.00  0.00     0.077 A 
HETATM   15  S   UNL     1      42.067 -11.787   0.401  1.00  0.00    -0.055 SA
HETATM   16  C   UNL     1      42.100 -12.156  -1.317  1.00  0.00     0.149 A 
HETATM   17  S   UNL     1      42.468 -10.987  -2.450  1.00  0.00    -0.052 SA
HETATM   18  N   UNL     1      41.760 -13.477  -1.518  1.00  0.00    -0.294 N 
HETATM   19  C   UNL     1      41.390 -14.198  -0.394  1.00  0.00     0.266 A 
HETATM   20  O   UNL     1      40.990 -15.354  -0.374  1.00  0.00    -0.266 OA
BRANCH  18  21
HETATM   21  C   UNL     1      41.706 -14.134  -2.821  1.00  0.00     0.172 C 
BRANCH  21  22
HETATM   22  C   UNL     1      40.286 -14.388  -3.283  1.00  0.00    -0.037 A 
HETATM   23  C   UNL     1      39.364 -13.328  -3.350  1.00  0.00     0.048 A 
HETATM   24  C   UNL     1      38.082 -13.605  -3.775  1.00  0.00     0.105 A 
HETATM   25  C   UNL     1      37.690 -14.875  -4.123  1.00  0.00     0.105 A 
HETATM   26  O   UNL     1      37.077 -12.698  -3.908  1.00  0.00    -0.323 OA
HETATM   27  O   UNL     1      36.389 -14.930  -4.515  1.00  0.00    -0.323 OA
HETATM   28  C   UNL     1      38.559 -15.941  -4.066  1.00  0.00     0.040 A 
HETATM   29  C   UNL     1      36.009 -13.544  -4.385  1.00  0.00     0.352 A 
HETATM   30  C   UNL     1      39.870 -15.690  -3.645  1.00  0.00     0.012 A 
ENDBRANCH  21  22
ENDBRANCH  18  21
ENDBRANCH  13  14
ENDBRANCH   8  13
BRANCH   9  31
HETATM   31  N   UNL     1      42.036 -16.532   2.072  1.00  0.00    -0.274 NA
HETATM   32  H   UNL     1      41.189 -16.203   1.596  1.00  0.00     0.129 HD
BRANCH  31  33
HETATM   33  C   UNL     1      42.008 -17.988   2.271  1.00  0.00     0.130 C 
BRANCH  33  34
HETATM   34  C   UNL     1      43.271 -18.662   1.676  1.00  0.00     0.164 C 
BRANCH  34  35
HETATM   35  O   UNL     1      44.342 -17.709   1.590  1.00  0.00    -0.390 OA
HETATM   36  H   UNL     1      43.954 -16.845   1.370  1.00  0.00     0.210 HD
ENDBRANCH  34  35
BRANCH  34  37
HETATM   37  C   UNL     1      43.802 -19.898   2.376  1.00  0.00    -0.029 A 
HETATM   38  C   UNL     1      43.830 -21.172   1.791  1.00  0.00     0.010 A 
HETATM   39  C   UNL     1      44.339 -22.271   2.489  1.00  0.00     0.001 A 
HETATM   40  C   UNL     1      44.826 -22.116   3.784  1.00  0.00     0.000 A 
HETATM   41  C   UNL     1      44.798 -20.861   4.387  1.00  0.00     0.001 A 
HETATM   42  C   UNL     1      44.289 -19.764   3.689  1.00  0.00     0.010 A 
ENDBRANCH  34  37
ENDBRANCH  33  34
ENDBRANCH  31  33
ENDBRANCH   9  31
TORSDOF 9
ENDMDL
MODEL 2
REMARK VINA RESULT:      -9.8      2.324      8.091
REMARK  9 active torsions:
REMARK  status: ('A' for Active; 'I' for Inactive)
REMARK    1  A    between atoms: C_8  and  C_9 
REMARK    2  A    between atoms: C_9  and  C_10 
REMARK    3  A    between atoms: N_14  and  C_15 
REMARK    4  A    between atoms: C_15  and  C_16 
REMARK    5  A    between atoms: C_27  and  N_28 
REMARK    6  A    between atoms: N_28  and  C_29 
REMARK    7  A    between atoms: C_29  and  C_30 
REMARK    8  A    between atoms: C_30  and  O_31 
REMARK    9  A    between atoms: C_30  and  C_32 
ROOT
HETATM    1  C   UNL     1      39.770 -16.435  -3.605  1.00  0.00     0.052 C 
HETATM    2  C   UNL     1      39.302 -15.094  -3.134  1.00  0.00    -0.015 A 
HETATM    3  C   UNL     1      39.968 -14.510  -1.917  1.00  0.00     0.144 A 
HETATM    4  N   UNL     1      40.838 -15.219  -1.270  1.00  0.00    -0.217 NA
HETATM    5  N   UNL     1      39.604 -13.224  -1.553  1.00  0.00    -0.272 N 
HETATM    6  C   UNL     1      40.223 -12.617  -0.473  1.00  0.00     0.266 A 
HETATM    7  O   UNL     1      39.931 -11.496  -0.047  1.00  0.00    -0.267 OA
HETATM    8  C   UNL     1      41.301 -13.401   0.198  1.00  0.00     0.074 A 
HETATM    9  C   UNL     1      41.493 -14.680  -0.198  1.00  0.00     0.121 A 
HETATM   10  C   UNL     1      38.604 -12.540  -2.234  1.00  0.00     0.102 A 
HETATM   11  C   UNL     1      37.977 -13.074  -3.288  1.00  0.00     0.018 A 
HETATM   12  C   UNL     1      38.354 -14.379  -3.760  1.00  0.00     0.012 A 
ENDROOT
BRANCH   8  13
HETATM   13  C   UNL     1      42.083 -12.735   1.233  1.00  0.00     0.045 C 
BRANCH  13  14
HETATM   14  C   UNL     1      41.832 -12.776   2.549  1.00  0.00     0.077 A 
HETATM   15  S   UNL     1      40.432 -12.214   3.368  1.00  0.00    -0.055 SA
HETATM   16  C   UNL     1      41.130 -12.503   4.955  1.00  0.00     0.149 A 
HETATM   17  S   UNL     1      40.345 -12.027   6.349  1.00  0.00    -0.052 SA
HETATM   18  N   UNL     1      42.356 -13.118   4.821  1.00  0.00    -0.294 N 
HETATM   19  C   UNL     1      42.819 -13.299   3.528  1.00  0.00     0.266 A 
HETATM   20  O   UNL     1      43.906 -13.758   3.205  1.00  0.00    -0.266 OA
BRANCH  18  21
HETATM   21  C   UNL     1      43.209 -13.526   5.935  1.00  0.00     0.172 C 
BRANCH  21  22
HETATM   22  C   UNL     1      43.088 -15.003   6.245  1.00  0.00    -0.037 A 
HETATM   23  C   UNL     1      44.225 -15.743   6.616  1.00  0.00     0.048 A 
HETATM   24  C   UNL     1      44.069 -17.086   6.889  1.00  0.00     0.105 A 
HETATM   25  C   UNL     1      42.847 -17.707   6.801  1.00  0.00     0.105 A 
HETATM   26  O   UNL     1      45.057 -17.939   7.271  1.00  0.00    -0.323 OA
HETATM   27  O   UNL     1      42.911 -19.029   7.113  1.00  0.00    -0.323 OA
HETATM   28  C   UNL     1      41.711 -17.021   6.437  1.00  0.00     0.040 A 
HETATM   29  C   UNL     1      44.314 -19.167   7.418  1.00  0.00     0.352 A 
HETATM   30  C   UNL     1      41.836 -15.655   6.160  1.00  0.00     0.012 A 
ENDBRANCH  21  22
ENDBRANCH  18  21
ENDBRANCH  13  14
ENDBRANCH   8  13
BRANCH   9  31
HETATM   31  N   UNL     1      42.404 -15.534   0.413  1.00  0.00    -0.274 NA
HETATM   32  H   UNL     1      43.303 -15.413  -0.065  1.00  0.00     0.129 HD
BRANCH  31  33
HETATM   33  C   UNL     1      42.129 -16.950   0.691  1.00  0.00     0.130 C 
BRANCH  33  34
HETATM   34  C   UNL     1      42.426 -17.302   2.171  1.00  0.00     0.164 C 
BRANCH  34  35
HETATM   35  O   UNL     1      41.210 -17.288   2.933  1.00  0.00    -0.390 OA
HETATM   36  H   UNL     1      40.689 -16.518   2.648  1.00  0.00     0.210 HD
ENDBRANCH  34  35
BRANCH  34  37
HETATM   37  C   UNL     1      43.136 -18.612   2.451  1.00  0.00    -0.029 A 
HETATM   38  C   UNL     1      43.010 -19.753   1.646  1.00  0.00     0.010 A 
HETATM   39  C   UNL     1      43.698 -20.930   1.956  1.00  0.00     0.001 A 
HETATM   40  C   UNL     1      44.521 -20.987   3.078  1.00  0.00     0.000 A 
HETATM   41  C   UNL     1      44.653 -19.868   3.896  1.00  0.00     0.001 A 
HETATM   42  C   UNL     1      43.965 -18.693   3.585  1.00  0.00     0.010 A 
ENDBRANCH  34  37
ENDBRANCH  33  34
ENDBRANCH  31  33
ENDBRANCH   9  31
TORSDOF 9
ENDMDL
MODEL 3
REMARK VINA RESULT:      -9.3      3.316      8.697
REMARK  9 active torsions:
REMARK  status: ('A' for Active; 'I' for Inactive)
REMARK    1  A    between atoms: C_8  and  C_9 
REMARK    2  A    between atoms: C_9  and  C_10 
REMARK    3  A    between atoms: N_14  and  C_15 
REMARK    4  A    between atoms: C_15  and  C_16 
REMARK    5  A    between atoms: C_27  and  N_28 
REMARK    6  A    between atoms: N_28  and  C_29 
REMARK    7  A    between atoms: C_29  and  C_30 
REMARK    8  A    between atoms: C_30  and  O_31 
REMARK    9  A    between atoms: C_30  and  C_32 
ROOT
HETATM    1  C   UNL     1      41.009 -15.646  -1.867  1.00  0.00     0.052 C 
HETATM    2  C   UNL     1      40.630 -14.365  -1.192  1.00  0.00    -0.015 A 
HETATM    3  C   UNL     1      40.506 -14.376   0.308  1.00  0.00     0.144 A 
HETATM    4  N   UNL     1      40.631 -15.497   0.945  1.00  0.00    -0.217 NA
HETATM    5  N   UNL     1      40.260 -13.164   0.931  1.00  0.00    -0.272 N 
HETATM    6  C   UNL     1      40.189 -13.106   2.313  1.00  0.00     0.266 A 
HETATM    7  O   UNL     1      39.928 -12.082   2.951  1.00  0.00    -0.267 OA
HETATM    8  C   UNL     1      40.444 -14.382   3.042  1.00  0.00     0.074 A 
HETATM    9  C   UNL     1      40.579 -15.512   2.311  1.00  0.00     0.121 A 
HETATM   10  C   UNL     1      40.052 -12.005   0.192  1.00  0.00     0.102 A 
HETATM   11  C   UNL     1      40.115 -12.000  -1.144  1.00  0.00     0.018 A 
HETATM   12  C   UNL     1      40.433 -13.212  -1.850  1.00  0.00     0.012 A 
ENDROOT
BRANCH   8  13
HETATM   13  C   UNL     1      40.537 -14.328   4.496  1.00  0.00     0.045 C 
BRANCH  13  14
HETATM   14  C   UNL     1      41.462 -14.947   5.243  1.00  0.00     0.077 A 
HETATM   15  S   UNL     1      41.224 -16.236   6.352  1.00  0.00    -0.055 SA
HETATM   16  C   UNL     1      42.885 -16.175   6.924  1.00  0.00     0.149 A 
HETATM   17  S   UNL     1      43.397 -17.112   8.207  1.00  0.00    -0.052 SA
HETATM   18  N   UNL     1      43.601 -15.258   6.184  1.00  0.00    -0.294 N 
HETATM   19  C   UNL     1      42.889 -14.534   5.241  1.00  0.00     0.266 A 
HETATM   20  O   UNL     1      43.325 -13.632   4.539  1.00  0.00    -0.266 OA
BRANCH  18  21
HETATM   21  C   UNL     1      45.019 -14.963   6.370  1.00  0.00     0.172 C 
BRANCH  21  22
HETATM   22  C   UNL     1      45.248 -13.751   7.247  1.00  0.00    -0.037 A 
HETATM   23  C   UNL     1      44.250 -13.329   8.144  1.00  0.00     0.048 A 
HETATM   24  C   UNL     1      44.501 -12.219   8.924  1.00  0.00     0.105 A 
HETATM   25  C   UNL     1      45.683 -11.525   8.840  1.00  0.00     0.105 A 
HETATM   26  O   UNL     1      43.652 -11.688   9.845  1.00  0.00    -0.323 OA
HETATM   27  O   UNL     1      45.728 -10.467   9.694  1.00  0.00    -0.323 OA
HETATM   28  C   UNL     1      46.683 -11.900   7.972  1.00  0.00     0.040 A 
HETATM   29  C   UNL     1      44.440 -10.583  10.334  1.00  0.00     0.352 A 
HETATM   30  C   UNL     1      46.461 -13.027   7.172  1.00  0.00     0.012 A 
ENDBRANCH  21  22
ENDBRANCH  18  21
ENDBRANCH  13  14
ENDBRANCH   8  13
BRANCH   9  31
HETATM   31  N   UNL     1      40.729 -16.771   2.882  1.00  0.00    -0.274 NA
HETATM   32  H   UNL     1      40.150 -16.793   3.728  1.00  0.00     0.129 HD
BRANCH  31  33
HETATM   33  C   UNL     1      42.032 -17.411   3.105  1.00  0.00     0.130 C 
BRANCH  33  34
HETATM   34  C   UNL     1      42.390 -18.378   1.947  1.00  0.00     0.164 C 
BRANCH  34  35
HETATM   35  O   UNL     1      43.086 -17.668   0.911  1.00  0.00    -0.390 OA
HETATM   36  H   UNL     1      43.804 -18.240   0.590  1.00  0.00     0.210 HD
ENDBRANCH  34  35
BRANCH  34  37
HETATM   37  C   UNL     1      43.200 -19.613   2.290  1.00  0.00    -0.029 A 
HETATM   38  C   UNL     1      43.135 -20.813   1.567  1.00  0.00     0.010 A 
HETATM   39  C   UNL     1      43.913 -21.915   1.932  1.00  0.00     0.001 A 
HETATM   40  C   UNL     1      44.768 -21.838   3.028  1.00  0.00     0.000 A 
HETATM   41  C   UNL     1      44.841 -20.659   3.766  1.00  0.00     0.001 A 
HETATM   42  C   UNL     1      44.062 -19.559   3.401  1.00  0.00     0.010 A 
ENDBRANCH  34  37
ENDBRANCH  33  34
ENDBRANCH  31  33
ENDBRANCH   9  31
TORSDOF 9
ENDMDL
MODEL 4
REMARK VINA RESULT:      -9.3      2.930      6.192
REMARK  9 active torsions:
REMARK  status: ('A' for Active; 'I' for Inactive)
REMARK    1  A    between atoms: C_8  and  C_9 
REMARK    2  A    between atoms: C_9  and  C_10 
REMARK    3  A    between atoms: N_14  and  C_15 
REMARK    4  A    between atoms: C_15  and  C_16 
REMARK    5  A    between atoms: C_27  and  N_28 
REMARK    6  A    between atoms: N_28  and  C_29 
REMARK    7  A    between atoms: C_29  and  C_30 
REMARK    8  A    between atoms: C_30  and  O_31 
REMARK    9  A    between atoms: C_30  and  C_32 
ROOT
HETATM    1  C   UNL     1      43.450 -20.178   2.115  1.00  0.00     0.052 C 
HETATM    2  C   UNL     1      43.829 -19.499   3.393  1.00  0.00    -0.015 A 
HETATM    3  C   UNL     1      43.039 -18.284   3.800  1.00  0.00     0.144 A 
HETATM    4  N   UNL     1      42.139 -17.817   2.995  1.00  0.00    -0.217 NA
HETATM    5  N   UNL     1      43.327 -17.727   5.035  1.00  0.00    -0.272 N 
HETATM    6  C   UNL     1      42.595 -16.640   5.483  1.00  0.00     0.266 A 
HETATM    7  O   UNL     1      42.811 -16.050   6.545  1.00  0.00    -0.267 OA
HETATM    8  C   UNL     1      41.488 -16.178   4.597  1.00  0.00     0.074 A 
HETATM    9  C   UNL     1      41.374 -16.750   3.376  1.00  0.00     0.121 A 
HETATM   10  C   UNL     1      44.361 -18.220   5.823  1.00  0.00     0.102 A 
HETATM   11  C   UNL     1      45.096 -19.271   5.443  1.00  0.00     0.018 A 
HETATM   12  C   UNL     1      44.806 -19.938   4.203  1.00  0.00     0.012 A 
ENDROOT
BRANCH   8  13
HETATM   13  C   UNL     1      40.595 -15.143   5.106  1.00  0.00     0.045 C 
BRANCH  13  14
HETATM   14  C   UNL     1      40.687 -13.833   4.839  1.00  0.00     0.077 A 
HETATM   15  S   UNL     1      41.685 -12.671   5.614  1.00  0.00    -0.055 SA
HETATM   16  C   UNL     1      40.955 -11.327   4.749  1.00  0.00     0.149 A 
HETATM   17  S   UNL     1      41.346  -9.746   5.111  1.00  0.00    -0.052 SA
HETATM   18  N   UNL     1      40.055 -11.803   3.820  1.00  0.00    -0.294 N 
HETATM   19  C   UNL     1      39.844 -13.173   3.809  1.00  0.00     0.266 A 
HETATM   20  O   UNL     1      39.039 -13.776   3.113  1.00  0.00    -0.266 OA
BRANCH  18  21
HETATM   21  C   UNL     1      39.279 -10.967   2.907  1.00  0.00     0.172 C 
BRANCH  21  22
HETATM   22  C   UNL     1      39.870 -10.930   1.514  1.00  0.00    -0.037 A 
HETATM   23  C   UNL     1      41.169 -11.416   1.283  1.00  0.00     0.048 A 
HETATM   24  C   UNL     1      41.668 -11.362  -0.002  1.00  0.00     0.105 A 
HETATM   25  C   UNL     1      40.937 -10.844  -1.043  1.00  0.00     0.105 A 
HETATM   26  O   UNL     1      42.894 -11.799  -0.396  1.00  0.00    -0.323 OA
HETATM   27  O   UNL     1      41.610 -10.886  -2.224  1.00  0.00    -0.323 OA
HETATM   28  C   UNL     1      39.665 -10.353  -0.860  1.00  0.00     0.040 A 
HETATM   29  C   UNL     1      42.847 -11.501  -1.807  1.00  0.00     0.352 A 
HETATM   30  C   UNL     1      39.128 -10.401   0.432  1.00  0.00     0.012 A 
ENDBRANCH  21  22
ENDBRANCH  18  21
ENDBRANCH  13  14
ENDBRANCH   8  13
BRANCH   9  31
HETATM   31  N   UNL     1      40.441 -16.340   2.431  1.00  0.00    -0.274 NA
HETATM   32  H   UNL     1      39.542 -16.764   2.685  1.00  0.00     0.129 HD
BRANCH  31  33
HETATM   33  C   UNL     1      40.673 -16.399   0.982  1.00  0.00     0.130 C 
BRANCH  33  34
HETATM   34  C   UNL     1      40.998 -14.998   0.405  1.00  0.00     0.164 C 
BRANCH  34  35
HETATM   35  O   UNL     1      42.338 -14.977  -0.110  1.00  0.00    -0.390 OA
HETATM   36  H   UNL     1      42.287 -15.078  -1.076  1.00  0.00     0.210 HD
ENDBRANCH  34  35
BRANCH  34  37
HETATM   37  C   UNL     1      40.077 -14.451  -0.670  1.00  0.00    -0.029 A 
HETATM   38  C   UNL     1      38.767 -14.016  -0.425  1.00  0.00     0.010 A 
HETATM   39  C   UNL     1      37.971 -13.516  -1.460  1.00  0.00     0.001 A 
HETATM   40  C   UNL     1      38.471 -13.446  -2.758  1.00  0.00     0.000 A 
HETATM   41  C   UNL     1      39.766 -13.882  -3.024  1.00  0.00     0.001 A 
HETATM   42  C   UNL     1      40.560 -14.382  -1.989  1.00  0.00     0.010 A 
ENDBRANCH  34  37
ENDBRANCH  33  34
ENDBRANCH  31  33
ENDBRANCH   9  31
TORSDOF 9
ENDMDL
MODEL 5
REMARK VINA RESULT:      -9.2      2.837      5.681
REMARK  9 active torsions:
REMARK  status: ('A' for Active; 'I' for Inactive)
REMARK    1  A    between atoms: C_8  and  C_9 
REMARK    2  A    between atoms: C_9  and  C_10 
REMARK    3  A    between atoms: N_14  and  C_15 
REMARK    4  A    between atoms: C_15  and  C_16 
REMARK    5  A    between atoms: C_27  and  N_28 
REMARK    6  A    between atoms: N_28  and  C_29 
REMARK    7  A    between atoms: C_29  and  C_30 
REMARK    8  A    between atoms: C_30  and  O_31 
REMARK    9  A    between atoms: C_30  and  C_32 
ROOT
HETATM    1  C   UNL     1      43.722 -19.868   1.938  1.00  0.00     0.052 C 
HETATM    2  C   UNL     1      43.557 -19.058   3.185  1.00  0.00    -0.015 A 
HETATM    3  C   UNL     1      42.597 -17.899   3.144  1.00  0.00     0.144 A 
HETATM    4  N   UNL     1      42.031 -17.586   2.022  1.00  0.00    -0.217 NA
HETATM    5  N   UNL     1      42.372 -17.223   4.332  1.00  0.00    -0.272 N 
HETATM    6  C   UNL     1      41.458 -16.183   4.364  1.00  0.00     0.266 A 
HETATM    7  O   UNL     1      41.228 -15.494   5.362  1.00  0.00    -0.267 OA
HETATM    8  C   UNL     1      40.731 -15.901   3.092  1.00  0.00     0.074 A 
HETATM    9  C   UNL     1      41.113 -16.574   1.983  1.00  0.00     0.121 A 
HETATM   10  C   UNL     1      43.069 -17.550   5.489  1.00  0.00     0.102 A 
HETATM   11  C   UNL     1      43.958 -18.549   5.518  1.00  0.00     0.018 A 
HETATM   12  C   UNL     1      44.190 -19.335   4.336  1.00  0.00     0.012 A 
ENDROOT
BRANCH   8  13
HETATM   13  C   UNL     1      39.650 -14.923   3.129  1.00  0.00     0.045 C 
BRANCH  13  14
HETATM   14  C   UNL     1      39.768 -13.617   2.851  1.00  0.00     0.077 A 
HETATM   15  S   UNL     1      40.921 -12.512   3.479  1.00  0.00    -0.055 SA
HETATM   16  C   UNL     1      40.146 -11.128   2.722  1.00  0.00     0.149 A 
HETATM   17  S   UNL     1      40.661  -9.570   3.025  1.00  0.00    -0.052 SA
HETATM   18  N   UNL     1      39.103 -11.554   1.927  1.00  0.00    -0.294 N 
HETATM   19  C   UNL     1      38.825 -12.911   1.946  1.00  0.00     0.266 A 
HETATM   20  O   UNL     1      37.903 -13.470   1.369  1.00  0.00    -0.266 OA
BRANCH  18  21
HETATM   21  C   UNL     1      38.251 -10.675   1.129  1.00  0.00     0.172 C 
BRANCH  21  22
HETATM   22  C   UNL     1      38.833 -10.392  -0.240  1.00  0.00    -0.037 A 
HETATM   23  C   UNL     1      38.630 -11.299  -1.295  1.00  0.00     0.048 A 
HETATM   24  C   UNL     1      39.178 -11.002  -2.525  1.00  0.00     0.105 A 
HETATM   25  C   UNL     1      39.912  -9.861  -2.736  1.00  0.00     0.105 A 
HETATM   26  O   UNL     1      39.067 -11.762  -3.648  1.00  0.00    -0.323 OA
HETATM   27  O   UNL     1      40.359  -9.758  -4.017  1.00  0.00    -0.323 OA
HETATM   28  C   UNL     1      40.139  -8.950  -1.730  1.00  0.00     0.040 A 
HETATM   29  C   UNL     1      39.812 -10.962  -4.591  1.00  0.00     0.352 A 
HETATM   30  C   UNL     1      39.590  -9.220  -0.472  1.00  0.00     0.012 A 
ENDBRANCH  21  22
ENDBRANCH  18  21
ENDBRANCH  13  14
ENDBRANCH   8  13
BRANCH   9  31
HETATM   31  N   UNL     1      40.572 -16.332   0.726  1.00  0.00    -0.274 NA
HETATM   32  H   UNL     1      39.839 -17.031   0.569  1.00  0.00     0.129 HD
BRANCH  31  33
HETATM   33  C   UNL     1      41.384 -16.126  -0.482  1.00  0.00     0.130 C 
BRANCH  33  34
HETATM   34  C   UNL     1      40.804 -14.992  -1.364  1.00  0.00     0.164 C 
BRANCH  34  35
HETATM   35  O   UNL     1      39.462 -14.688  -0.954  1.00  0.00    -0.390 OA
HETATM   36  H   UNL     1      38.872 -14.876  -1.704  1.00  0.00     0.210 HD
ENDBRANCH  34  35
BRANCH  34  37
HETATM   37  C   UNL     1      41.577 -13.689  -1.430  1.00  0.00    -0.029 A 
HETATM   38  C   UNL     1      42.164 -13.190  -2.602  1.00  0.00     0.010 A 
HETATM   39  C   UNL     1      42.860 -11.978  -2.597  1.00  0.00     0.001 A 
HETATM   40  C   UNL     1      42.982 -11.244  -1.420  1.00  0.00     0.000 A 
HETATM   41  C   UNL     1      42.415 -11.726  -0.243  1.00  0.00     0.001 A 
HETATM   42  C   UNL     1      41.721 -12.938  -0.249  1.00  0.00     0.010 A 
ENDBRANCH  34  37
ENDBRANCH  33  34
ENDBRANCH  31  33
ENDBRANCH   9  31
TORSDOF 9
ENDMDL
MODEL 6
REMARK VINA RESULT:      -9.0      4.096      7.738
REMARK  9 active torsions:
REMARK  status: ('A' for Active; 'I' for Inactive)
REMARK    1  A    between atoms: C_8  and  C_9 
REMARK    2  A    between atoms: C_9  and  C_10 
REMARK    3  A    between atoms: N_14  and  C_15 
REMARK    4  A    between atoms: C_15  and  C_16 
REMARK    5  A    between atoms: C_27  and  N_28 
REMARK    6  A    between atoms: N_28  and  C_29 
REMARK    7  A    between atoms: C_29  and  C_30 
REMARK    8  A    between atoms: C_30  and  O_31 
REMARK    9  A    between atoms: C_30  and  C_32 
ROOT
HETATM    1  C   UNL     1      44.306 -21.316   6.979  1.00  0.00     0.052 C 
HETATM    2  C   UNL     1      44.318 -21.276   5.483  1.00  0.00    -0.015 A 
HETATM    3  C   UNL     1      44.013 -19.960   4.817  1.00  0.00     0.144 A 
HETATM    4  N   UNL     1      43.659 -18.950   5.545  1.00  0.00    -0.217 NA
HETATM    5  N   UNL     1      44.132 -19.908   3.438  1.00  0.00    -0.272 N 
HETATM    6  C   UNL     1      43.915 -18.710   2.778  1.00  0.00     0.266 A 
HETATM    7  O   UNL     1      43.952 -18.578   1.551  1.00  0.00    -0.267 OA
HETATM    8  C   UNL     1      43.615 -17.527   3.636  1.00  0.00     0.074 A 
HETATM    9  C   UNL     1      43.436 -17.735   4.960  1.00  0.00     0.121 A 
HETATM   10  C   UNL     1      44.436 -21.045   2.699  1.00  0.00     0.102 A 
HETATM   11  C   UNL     1      44.661 -22.226   3.283  1.00  0.00     0.018 A 
HETATM   12  C   UNL     1      44.620 -22.336   4.716  1.00  0.00     0.012 A 
ENDROOT
BRANCH   8  13
HETATM   13  C   UNL     1      43.540 -16.220   2.991  1.00  0.00     0.045 C 
BRANCH  13  14
HETATM   14  C   UNL     1      42.415 -15.536   2.743  1.00  0.00     0.077 A 
HETATM   15  S   UNL     1      40.898 -16.159   2.236  1.00  0.00    -0.055 SA
HETATM   16  C   UNL     1      40.214 -14.558   1.998  1.00  0.00     0.149 A 
HETATM   17  S   UNL     1      38.700 -14.351   1.326  1.00  0.00    -0.052 SA
HETATM   18  N   UNL     1      41.113 -13.598   2.413  1.00  0.00    -0.294 N 
HETATM   19  C   UNL     1      42.353 -14.054   2.832  1.00  0.00     0.266 A 
HETATM   20  O   UNL     1      43.303 -13.361   3.168  1.00  0.00    -0.266 OA
BRANCH  18  21
HETATM   21  C   UNL     1      40.869 -12.159   2.380  1.00  0.00     0.172 C 
BRANCH  21  22
HETATM   22  C   UNL     1      40.538 -11.597   3.746  1.00  0.00    -0.037 A 
HETATM   23  C   UNL     1      41.091 -10.373   4.161  1.00  0.00     0.048 A 
HETATM   24  C   UNL     1      40.763  -9.899   5.414  1.00  0.00     0.105 A 
HETATM   25  C   UNL     1      39.924 -10.590   6.254  1.00  0.00     0.105 A 
HETATM   26  O   UNL     1      41.199  -8.733   5.961  1.00  0.00    -0.323 OA
HETATM   27  O   UNL     1      39.729  -9.950   7.438  1.00  0.00    -0.323 OA
HETATM   28  C   UNL     1      39.366 -11.794   5.890  1.00  0.00     0.040 A 
HETATM   29  C   UNL     1      40.533  -8.768   7.241  1.00  0.00     0.352 A 
HETATM   30  C   UNL     1      39.675 -12.298   4.622  1.00  0.00     0.012 A 
ENDBRANCH  21  22
ENDBRANCH  18  21
ENDBRANCH  13  14
ENDBRANCH   8  13
BRANCH   9  31
HETATM   31  N   UNL     1      43.064 -16.727   5.842  1.00  0.00    -0.274 NA
HETATM   32  H   UNL     1      42.430 -16.098   5.338  1.00  0.00     0.129 HD
BRANCH  31  33
HETATM   33  C   UNL     1      44.020 -15.977   6.667  1.00  0.00     0.130 C 
BRANCH  33  34
HETATM   34  C   UNL     1      44.000 -14.466   6.321  1.00  0.00     0.164 C 
BRANCH  34  35
HETATM   35  O   UNL     1      42.645 -13.992   6.270  1.00  0.00    -0.390 OA
HETATM   36  H   UNL     1      42.605 -13.153   6.761  1.00  0.00     0.210 HD
ENDBRANCH  34  35
BRANCH  34  37
HETATM   37  C   UNL     1      44.787 -13.530   7.217  1.00  0.00    -0.029 A 
HETATM   38  C   UNL     1      44.260 -12.930   8.370  1.00  0.00     0.010 A 
HETATM   39  C   UNL     1      45.042 -12.080   9.158  1.00  0.00     0.001 A 
HETATM   40  C   UNL     1      46.363 -11.814   8.806  1.00  0.00     0.000 A 
HETATM   41  C   UNL     1      46.902 -12.392   7.660  1.00  0.00     0.001 A 
HETATM   42  C   UNL     1      46.120 -13.241   6.873  1.00  0.00     0.010 A 
ENDBRANCH  34  37
ENDBRANCH  33  34
ENDBRANCH  31  33
ENDBRANCH   9  31
TORSDOF 9
ENDMDL
MODEL 7
REMARK VINA RESULT:      -9.0      2.327      5.832
REMARK  9 active torsions:
REMARK  status: ('A' for Active; 'I' for Inactive)
REMARK    1  A    between atoms: C_8  and  C_9 
REMARK    2  A    between atoms: C_9  and  C_10 
REMARK    3  A    between atoms: N_14  and  C_15 
REMARK    4  A    between atoms: C_15  and  C_16 
REMARK    5  A    between atoms: C_27  and  N_28 
REMARK    6  A    between atoms: N_28  and  C_29 
REMARK    7  A    between atoms: C_29  and  C_30 
REMARK    8  A    between atoms: C_30  and  O_31 
REMARK    9  A    between atoms: C_30  and  C_32 
ROOT
HETATM    1  C   UNL     1      44.310 -19.217   6.582  1.00  0.00     0.052 C 
HETATM    2  C   UNL     1      44.128 -18.977   5.117  1.00  0.00    -0.015 A 
HETATM    3  C   UNL     1      43.663 -17.612   4.685  1.00  0.00     0.144 A 
HETATM    4  N   UNL     1      43.346 -16.738   5.585  1.00  0.00    -0.217 NA
HETATM    5  N   UNL     1      43.601 -17.368   3.323  1.00  0.00    -0.272 N 
HETATM    6  C   UNL     1      43.231 -16.113   2.869  1.00  0.00     0.266 A 
HETATM    7  O   UNL     1      43.102 -15.816   1.678  1.00  0.00    -0.267 OA
HETATM    8  C   UNL     1      42.974 -15.080   3.915  1.00  0.00     0.074 A 
HETATM    9  C   UNL     1      42.979 -15.476   5.209  1.00  0.00     0.121 A 
HETATM   10  C   UNL     1      43.874 -18.369   2.399  1.00  0.00     0.102 A 
HETATM   11  C   UNL     1      44.242 -19.598   2.780  1.00  0.00     0.018 A 
HETATM   12  C   UNL     1      44.391 -19.900   4.177  1.00  0.00     0.012 A 
ENDROOT
BRANCH   8  13
HETATM   13  C   UNL     1      42.740 -13.709   3.476  1.00  0.00     0.045 C 
BRANCH  13  14
HETATM   14  C   UNL     1      41.651 -13.272   2.828  1.00  0.00     0.077 A 
HETATM   15  S   UNL     1      40.014 -13.387   3.332  1.00  0.00    -0.055 SA
HETATM   16  C   UNL     1      39.402 -12.770   1.804  1.00  0.00     0.149 A 
HETATM   17  S   UNL     1      37.767 -12.729   1.476  1.00  0.00    -0.052 SA
HETATM   18  N   UNL     1      40.455 -12.392   0.998  1.00  0.00    -0.294 N 
HETATM   19  C   UNL     1      41.728 -12.641   1.486  1.00  0.00     0.266 A 
HETATM   20  O   UNL     1      42.781 -12.444   0.896  1.00  0.00    -0.266 OA
BRANCH  18  21
HETATM   21  C   UNL     1      40.316 -11.814  -0.336  1.00  0.00     0.172 C 
BRANCH  21  22
HETATM   22  C   UNL     1      40.258 -12.870  -1.420  1.00  0.00    -0.037 A 
HETATM   23  C   UNL     1      39.027 -13.450  -1.777  1.00  0.00     0.048 A 
HETATM   24  C   UNL     1      39.021 -14.408  -2.769  1.00  0.00     0.105 A 
HETATM   25  C   UNL     1      40.174 -14.806  -3.401  1.00  0.00     0.105 A 
HETATM   26  O   UNL     1      37.922 -15.056  -3.240  1.00  0.00    -0.323 OA
HETATM   27  O   UNL     1      39.948 -15.757  -4.347  1.00  0.00    -0.323 OA
HETATM   28  C   UNL     1      41.399 -14.268  -3.079  1.00  0.00     0.040 A 
HETATM   29  C   UNL     1      38.516 -15.904  -4.245  1.00  0.00     0.352 A 
HETATM   30  C   UNL     1      41.437 -13.288  -2.081  1.00  0.00     0.012 A 
ENDBRANCH  21  22
ENDBRANCH  18  21
ENDBRANCH  13  14
ENDBRANCH   8  13
BRANCH   9  31
HETATM   31  N   UNL     1      42.664 -14.626   6.262  1.00  0.00    -0.274 NA
HETATM   32  H   UNL     1      41.652 -14.461   6.230  1.00  0.00     0.129 HD
BRANCH  31  33
HETATM   33  C   UNL     1      43.401 -13.389   6.556  1.00  0.00     0.130 C 
BRANCH  33  34
HETATM   34  C   UNL     1      44.632 -13.667   7.456  1.00  0.00     0.164 C 
BRANCH  34  35
HETATM   35  O   UNL     1      45.824 -13.710   6.658  1.00  0.00    -0.390 OA
HETATM   36  H   UNL     1      45.977 -14.636   6.402  1.00  0.00     0.210 HD
ENDBRANCH  34  35
BRANCH  34  37
HETATM   37  C   UNL     1      44.881 -12.721   8.615  1.00  0.00    -0.029 A 
HETATM   38  C   UNL     1      44.040 -12.621   9.733  1.00  0.00     0.010 A 
HETATM   39  C   UNL     1      44.329 -11.732  10.772  1.00  0.00     0.001 A 
HETATM   40  C   UNL     1      45.463 -10.926  10.710  1.00  0.00     0.000 A 
HETATM   41  C   UNL     1      46.306 -11.003   9.604  1.00  0.00     0.001 A 
HETATM   42  C   UNL     1      46.015 -11.891   8.567  1.00  0.00     0.010 A 
ENDBRANCH  34  37
ENDBRANCH  33  34
ENDBRANCH  31  33
ENDBRANCH   9  31
TORSDOF 9
ENDMDL
MODEL 8
REMARK VINA RESULT:      -8.9      3.593      9.240
REMARK  9 active torsions:
REMARK  status: ('A' for Active; 'I' for Inactive)
REMARK    1  A    between atoms: C_8  and  C_9 
REMARK    2  A    between atoms: C_9  and  C_10 
REMARK    3  A    between atoms: N_14  and  C_15 
REMARK    4  A    between atoms: C_15  and  C_16 
REMARK    5  A    between atoms: C_27  and  N_28 
REMARK    6  A    between atoms: N_28  and  C_29 
REMARK    7  A    between atoms: C_29  and  C_30 
REMARK    8  A    between atoms: C_30  and  O_31 
REMARK    9  A    between atoms: C_30  and  C_32 
ROOT
HETATM    1  C   UNL     1      44.002 -17.895   1.480  1.00  0.00     0.052 C 
HETATM    2  C   UNL     1      43.602 -17.742   2.913  1.00  0.00    -0.015 A 
HETATM    3  C   UNL     1      42.691 -16.597   3.266  1.00  0.00     0.144 A 
HETATM    4  N   UNL     1      42.369 -15.739   2.351  1.00  0.00    -0.217 NA
HETATM    5  N   UNL     1      42.241 -16.527   4.574  1.00  0.00    -0.272 N 
HETATM    6  C   UNL     1      41.359 -15.525   4.942  1.00  0.00     0.266 A 
HETATM    7  O   UNL     1      40.943 -15.356   6.092  1.00  0.00    -0.267 OA
HETATM    8  C   UNL     1      40.909 -14.608   3.855  1.00  0.00     0.074 A 
HETATM    9  C   UNL     1      41.497 -14.728   2.643  1.00  0.00     0.121 A 
HETATM   10  C   UNL     1      42.684 -17.428   5.536  1.00  0.00     0.102 A 
HETATM   11  C   UNL     1      43.531 -18.419   5.236  1.00  0.00     0.018 A 
HETATM   12  C   UNL     1      43.984 -18.589   3.883  1.00  0.00     0.012 A 
ENDROOT
BRANCH   8  13
HETATM   13  C   UNL     1      39.860 -13.644   4.168  1.00  0.00     0.045 C 
BRANCH  13  14
HETATM   14  C   UNL     1      40.055 -12.371   4.541  1.00  0.00     0.077 A 
HETATM   15  S   UNL     1      40.965 -11.167   3.724  1.00  0.00    -0.055 SA
HETATM   16  C   UNL     1      40.793 -10.012   5.038  1.00  0.00     0.149 A 
HETATM   17  S   UNL     1      41.596  -8.549   5.020  1.00  0.00    -0.052 SA
HETATM   18  N   UNL     1      39.961 -10.529   6.008  1.00  0.00    -0.294 N 
HETATM   19  C   UNL     1      39.516 -11.827   5.813  1.00  0.00     0.266 A 
HETATM   20  O   UNL     1      38.833 -12.482   6.588  1.00  0.00    -0.266 OA
BRANCH  18  21
HETATM   21  C   UNL     1      39.577  -9.833   7.233  1.00  0.00     0.172 C 
BRANCH  21  22
HETATM   22  C   UNL     1      40.438 -10.225   8.415  1.00  0.00    -0.037 A 
HETATM   23  C   UNL     1      39.845 -10.510   9.658  1.00  0.00     0.048 A 
HETATM   24  C   UNL     1      40.668 -10.862  10.708  1.00  0.00     0.105 A 
HETATM   25  C   UNL     1      42.032 -10.932  10.569  1.00  0.00     0.105 A 
HETATM   26  O   UNL     1      40.258 -11.179  11.966  1.00  0.00    -0.323 OA
HETATM   27  O   UNL     1      42.655 -11.299  11.721  1.00  0.00    -0.323 OA
HETATM   28  C   UNL     1      42.653 -10.656   9.373  1.00  0.00     0.040 A 
HETATM   29  C   UNL     1      41.523 -11.462  12.600  1.00  0.00     0.352 A 
HETATM   30  C   UNL     1      41.845 -10.302   8.286  1.00  0.00     0.012 A 
ENDBRANCH  21  22
ENDBRANCH  18  21
ENDBRANCH  13  14
ENDBRANCH   8  13
BRANCH   9  31
HETATM   31  N   UNL     1      41.226 -13.873   1.581  1.00  0.00    -0.274 NA
HETATM   32  H   UNL     1      41.142 -12.926   1.966  1.00  0.00     0.129 HD
BRANCH  31  33
HETATM   33  C   UNL     1      40.193 -14.135   0.570  1.00  0.00     0.130 C 
BRANCH  33  34
HETATM   34  C   UNL     1      40.817 -14.346  -0.833  1.00  0.00     0.164 C 
BRANCH  34  35
HETATM   35  O   UNL     1      41.854 -15.337  -0.765  1.00  0.00    -0.390 OA
HETATM   36  H   UNL     1      42.592 -15.035  -1.322  1.00  0.00     0.210 HD
ENDBRANCH  34  35
BRANCH  34  37
HETATM   37  C   UNL     1      39.884 -14.725  -1.966  1.00  0.00    -0.029 A 
HETATM   38  C   UNL     1      38.618 -14.154  -2.156  1.00  0.00     0.010 A 
HETATM   39  C   UNL     1      37.807 -14.544  -3.226  1.00  0.00     0.001 A 
HETATM   40  C   UNL     1      38.248 -15.513  -4.124  1.00  0.00     0.000 A 
HETATM   41  C   UNL     1      39.499 -16.099  -3.948  1.00  0.00     0.001 A 
HETATM   42  C   UNL     1      40.307 -15.710  -2.878  1.00  0.00     0.010 A 
ENDBRANCH  34  37
ENDBRANCH  33  34
ENDBRANCH  31  33
ENDBRANCH   9  31
TORSDOF 9
ENDMDL
MODEL 9
REMARK VINA RESULT:      -8.9      3.493      8.681
REMARK  9 active torsions:
REMARK  status: ('A' for Active; 'I' for Inactive)
REMARK    1  A    between atoms: C_8  and  C_9 
REMARK    2  A    between atoms: C_9  and  C_10 
REMARK    3  A    between atoms: N_14  and  C_15 
REMARK    4  A    between atoms: C_15  and  C_16 
REMARK    5  A    between atoms: C_27  and  N_28 
REMARK    6  A    between atoms: N_28  and  C_29 
REMARK    7  A    between atoms: C_29  and  C_30 
REMARK    8  A    between atoms: C_30  and  O_31 
REMARK    9  A    between atoms: C_30  and  C_32 
ROOT
HETATM    1  C   UNL     1      44.064 -21.759   1.320  1.00  0.00     0.052 C 
HETATM    2  C   UNL     1      44.352 -21.731   2.788  1.00  0.00    -0.015 A 
HETATM    3  C   UNL     1      43.902 -20.522   3.565  1.00  0.00     0.144 A 
HETATM    4  N   UNL     1      43.379 -19.521   2.930  1.00  0.00    -0.217 NA
HETATM    5  N   UNL     1      44.077 -20.552   4.938  1.00  0.00    -0.272 N 
HETATM    6  C   UNL     1      43.633 -19.490   5.708  1.00  0.00     0.266 A 
HETATM    7  O   UNL     1      43.788 -19.407   6.930  1.00  0.00    -0.267 OA
HETATM    8  C   UNL     1      42.934 -18.392   4.980  1.00  0.00     0.074 A 
HETATM    9  C   UNL     1      42.913 -18.442   3.628  1.00  0.00     0.121 A 
HETATM   10  C   UNL     1      44.719 -21.618   5.558  1.00  0.00     0.102 A 
HETATM   11  C   UNL     1      45.163 -22.672   4.865  1.00  0.00     0.018 A 
HETATM   12  C   UNL     1      44.953 -22.736   3.444  1.00  0.00     0.012 A 
ENDROOT
BRANCH   8  13
HETATM   13  C   UNL     1      42.313 -17.337   5.773  1.00  0.00     0.045 C 
BRANCH  13  14
HETATM   14  C   UNL     1      42.854 -16.141   6.042  1.00  0.00     0.077 A 
HETATM   15  S   UNL     1      44.173 -15.798   7.086  1.00  0.00    -0.055 SA
HETATM   16  C   UNL     1      43.968 -14.060   6.928  1.00  0.00     0.149 A 
HETATM   17  S   UNL     1      44.870 -12.992   7.840  1.00  0.00    -0.052 SA
HETATM   18  N   UNL     1      42.981 -13.787   6.006  1.00  0.00    -0.294 N 
HETATM   19  C   UNL     1      42.313 -14.880   5.475  1.00  0.00     0.266 A 
HETATM   20  O   UNL     1      41.366 -14.843   4.701  1.00  0.00    -0.266 OA
BRANCH  18  21
HETATM   21  C   UNL     1      42.560 -12.447   5.607  1.00  0.00     0.172 C 
BRANCH  21  22
HETATM   22  C   UNL     1      41.554 -11.847   6.566  1.00  0.00    -0.037 A 
HETATM   23  C   UNL     1      41.962 -10.886   7.509  1.00  0.00     0.048 A 
HETATM   24  C   UNL     1      41.012 -10.367   8.364  1.00  0.00     0.105 A 
HETATM   25  C   UNL     1      39.699 -10.767   8.319  1.00  0.00     0.105 A 
HETATM   26  O   UNL     1      41.234  -9.426   9.320  1.00  0.00    -0.323 OA
HETATM   27  O   UNL     1      38.929 -10.133   9.243  1.00  0.00    -0.323 OA
HETATM   28  C   UNL     1      39.259 -11.708   7.417  1.00  0.00     0.040 A 
HETATM   29  C   UNL     1      39.908  -9.277   9.868  1.00  0.00     0.352 A 
HETATM   30  C   UNL     1      40.198 -12.249   6.531  1.00  0.00     0.012 A 
ENDBRANCH  21  22
ENDBRANCH  18  21
ENDBRANCH  13  14
ENDBRANCH   8  13
BRANCH   9  31
HETATM   31  N   UNL     1      42.372 -17.433   2.840  1.00  0.00    -0.274 NA
HETATM   32  H   UNL     1      41.363 -17.412   3.021  1.00  0.00     0.129 HD
BRANCH  31  33
HETATM   33  C   UNL     1      42.665 -17.275   1.409  1.00  0.00     0.130 C 
BRANCH  33  34
HETATM   34  C   UNL     1      41.380 -16.959   0.602  1.00  0.00     0.164 C 
BRANCH  34  35
HETATM   35  O   UNL     1      40.241 -16.949   1.477  1.00  0.00    -0.390 OA
HETATM   36  H   UNL     1      39.894 -16.040   1.503  1.00  0.00     0.210 HD
ENDBRANCH  34  35
BRANCH  34  37
HETATM   37  C   UNL     1      41.357 -15.677  -0.207  1.00  0.00    -0.029 A 
HETATM   38  C   UNL     1      41.048 -15.625  -1.574  1.00  0.00     0.010 A 
HETATM   39  C   UNL     1      41.039 -14.408  -2.262  1.00  0.00     0.001 A 
HETATM   40  C   UNL     1      41.340 -13.223  -1.596  1.00  0.00     0.000 A 
HETATM   41  C   UNL     1      41.659 -13.254  -0.241  1.00  0.00     0.001 A 
HETATM   42  C   UNL     1      41.669 -14.471   0.445  1.00  0.00     0.010 A 
ENDBRANCH  34  37
ENDBRANCH  33  34
ENDBRANCH  31  33
ENDBRANCH   9  31
TORSDOF 9
ENDMDL
MODEL 10
REMARK VINA RESULT:      -8.8      2.117      5.490
REMARK  9 active torsions:
REMARK  status: ('A' for Active; 'I' for Inactive)
REMARK    1  A    between atoms: C_8  and  C_9 
REMARK    2  A    between atoms: C_9  and  C_10 
REMARK    3  A    between atoms: N_14  and  C_15 
REMARK    4  A    between atoms: C_15  and  C_16 
REMARK    5  A    between atoms: C_27  and  N_28 
REMARK    6  A    between atoms: N_28  and  C_29 
REMARK    7  A    between atoms: C_29  and  C_30 
REMARK    8  A    between atoms: C_30  and  O_31 
REMARK    9  A    between atoms: C_30  and  C_32 
ROOT
HETATM    1  C   UNL     1      44.258 -17.811   7.289  1.00  0.00     0.052 C 
HETATM    2  C   UNL     1      44.198 -18.462   5.943  1.00  0.00    -0.015 A 
HETATM    3  C   UNL     1      43.129 -17.999   4.990  1.00  0.00     0.144 A 
HETATM    4  N   UNL     1      42.250 -17.138   5.395  1.00  0.00    -0.217 NA
HETATM    5  N   UNL     1      43.149 -18.530   3.711  1.00  0.00    -0.272 N 
HETATM    6  C   UNL     1      42.222 -18.100   2.777  1.00  0.00     0.266 A 
HETATM    7  O   UNL     1      42.133 -18.550   1.631  1.00  0.00    -0.267 OA
HETATM    8  C   UNL     1      41.283 -17.029   3.221  1.00  0.00     0.074 A 
HETATM    9  C   UNL     1      41.310 -16.665   4.523  1.00  0.00     0.121 A 
HETATM   10  C   UNL     1      44.065 -19.513   3.355  1.00  0.00     0.102 A 
HETATM   11  C   UNL     1      44.987 -19.961   4.214  1.00  0.00     0.018 A 
HETATM   12  C   UNL     1      45.065 -19.404   5.537  1.00  0.00     0.012 A 
ENDROOT
BRANCH   8  13
HETATM   13  C   UNL     1      40.401 -16.439   2.220  1.00  0.00     0.045 C 
BRANCH  13  14
HETATM   14  C   UNL     1      40.682 -15.366   1.467  1.00  0.00     0.077 A 
HETATM   15  S   UNL     1      40.726 -13.722   1.959  1.00  0.00    -0.055 SA
HETATM   16  C   UNL     1      40.952 -13.139   0.317  1.00  0.00     0.149 A 
HETATM   17  S   UNL     1      40.938 -11.508  -0.037  1.00  0.00    -0.052 SA
HETATM   18  N   UNL     1      41.099 -14.208  -0.543  1.00  0.00    -0.294 N 
HETATM   19  C   UNL     1      40.958 -15.470   0.012  1.00  0.00     0.266 A 
HETATM   20  O   UNL     1      40.982 -16.533  -0.593  1.00  0.00    -0.266 OA
BRANCH  18  21
HETATM   21  C   UNL     1      41.328 -14.095  -1.980  1.00  0.00     0.172 C 
BRANCH  21  22
HETATM   22  C   UNL     1      40.079 -14.374  -2.789  1.00  0.00    -0.037 A 
HETATM   23  C   UNL     1      39.040 -13.427  -2.836  1.00  0.00     0.048 A 
HETATM   24  C   UNL     1      37.920 -13.724  -3.584  1.00  0.00     0.105 A 
HETATM   25  C   UNL     1      37.797 -14.909  -4.267  1.00  0.00     0.105 A 
HETATM   26  O   UNL     1      36.836 -12.918  -3.745  1.00  0.00    -0.323 OA
HETATM   27  O   UNL     1      36.619 -15.001  -4.942  1.00  0.00    -0.323 OA
HETATM   28  C   UNL     1      38.786 -15.865  -4.244  1.00  0.00     0.040 A 
HETATM   29  C   UNL     1      36.019 -13.731  -4.613  1.00  0.00     0.352 A 
HETATM   30  C   UNL     1      39.939 -15.590  -3.499  1.00  0.00     0.012 A 
ENDBRANCH  21  22
ENDBRANCH  18  21
ENDBRANCH  13  14
ENDBRANCH   8  13
BRANCH   9  31
HETATM   31  N   UNL     1      40.423 -15.745   5.071  1.00  0.00    -0.274 NA
HETATM   32  H   UNL     1      39.755 -15.490   4.336  1.00  0.00     0.129 HD
BRANCH  31  33
HETATM   33  C   UNL     1      40.847 -14.570   5.844  1.00  0.00     0.130 C 
BRANCH  33  34
HETATM   34  C   UNL     1      39.696 -13.542   5.984  1.00  0.00     0.164 C 
BRANCH  34  35
HETATM   35  O   UNL     1      39.488 -13.222   7.368  1.00  0.00    -0.390 OA
HETATM   36  H   UNL     1      39.243 -12.282   7.422  1.00  0.00     0.210 HD
ENDBRANCH  34  35
BRANCH  34  37
HETATM   37  C   UNL     1      39.823 -12.239   5.219  1.00  0.00    -0.029 A 
HETATM   38  C   UNL     1      38.760 -11.632   4.532  1.00  0.00     0.010 A 
HETATM   39  C   UNL     1      38.942 -10.426   3.850  1.00  0.00     0.001 A 
HETATM   40  C   UNL     1      40.189  -9.806   3.841  1.00  0.00     0.000 A 
HETATM   41  C   UNL     1      41.259 -10.396   4.508  1.00  0.00     0.001 A 
HETATM   42  C   UNL     1      41.077 -11.602   5.188  1.00  0.00     0.010 A 
ENDBRANCH  34  37
ENDBRANCH  33  34
ENDBRANCH  31  33
ENDBRANCH   9  31
TORSDOF 9
ENDMDL
