MODEL 1
REMARK VINA RESULT:      -7.9      0.000      0.000
REMARK  5 active torsions:
REMARK  status: ('A' for Active; 'I' for Inactive)
REMARK    1  A    between atoms: C_2  and  O_3 
REMARK    2  A    between atoms: O_3  and  C_4 
REMARK    3  A    between atoms: C_7  and  C_8 
REMARK       I    between atoms: C_8  and  N_9 
REMARK    4  A    between atoms: N_12  and  C_13 
REMARK    5  A    between atoms: C_17  and  C_18 
ROOT
HETATM    1  C   UNL     1      39.743 -11.196   6.041  1.00  0.00     0.253 C 
HETATM    2  N   UNL     1      40.604 -12.111   5.443  1.00  0.00    -0.345 N 
HETATM    3  C   UNL     1      40.320 -12.507   4.059  1.00  0.00     0.146 C 
HETATM    4  C   UNL     1      41.602 -12.911   3.313  1.00  0.00     0.144 C 
HETATM    5  N   UNL     1      42.355 -13.923   4.079  1.00  0.00    -0.363 N 
HETATM    6  C   UNL     1      42.659 -13.536   5.466  1.00  0.00     0.144 C 
HETATM    7  C   UNL     1      41.372 -13.114   6.201  1.00  0.00     0.146 C 
HETATM    8  O   UNL     1      38.718 -10.785   5.500  1.00  0.00    -0.267 OA
ENDROOT
BRANCH   5   9
HETATM    9  C   UNL     1      42.724 -15.108   3.519  1.00  0.00     0.122 A 
HETATM   10  N   UNL     1      42.917 -15.288   2.173  1.00  0.00    -0.262 N 
HETATM   11  H   UNL     1      42.792 -14.609   1.435  1.00  0.00     0.191 HD
HETATM   12  N   UNL     1      43.285 -16.530   1.823  1.00  0.00    -0.173 NA
HETATM   13  C   UNL     1      43.336 -17.203   2.983  1.00  0.00     0.090 A 
HETATM   14  C   UNL     1      42.971 -16.349   4.062  1.00  0.00     0.084 A 
BRANCH  13  15
HETATM   15  C   UNL     1      43.719 -18.618   3.039  1.00  0.00    -0.005 A 
HETATM   16  C   UNL     1      43.475 -19.464   1.943  1.00  0.00     0.015 A 
HETATM   17  C   UNL     1      43.835 -20.814   1.986  1.00  0.00     0.024 A 
HETATM   18  C   UNL     1      44.447 -21.331   3.125  1.00  0.00     0.034 A 
HETATM   19 CL   UNL     1      44.893 -22.991   3.181  1.00  0.00    -0.084 Cl
HETATM   20  C   UNL     1      44.702 -20.508   4.220  1.00  0.00     0.024 A 
HETATM   21  C   UNL     1      44.340 -19.158   4.176  1.00  0.00     0.015 A 
ENDBRANCH  13  15
ENDBRANCH   5   9
BRANCH   1  22
HETATM   22  C   UNL     1      40.105 -10.626   7.361  1.00  0.00     0.032 A 
HETATM   23  C   UNL     1      39.494 -11.084   8.532  1.00  0.00     0.020 A 
HETATM   24  C   UNL     1      39.895 -10.575   9.768  1.00  0.00     0.038 A 
HETATM   25  C   UNL     1      40.934  -9.645   9.846  1.00  0.00     0.068 A 
HETATM   26  C   UNL     1      41.553  -9.196   8.678  1.00  0.00     0.038 A 
HETATM   27  C   UNL     1      41.144  -9.693   7.435  1.00  0.00     0.020 A 
BRANCH  25  28
HETATM   28  O   UNL     1      41.248  -9.241  11.114  1.00  0.00    -0.352 OA
BRANCH  28  29
HETATM   29  C   UNL     1      41.862 -10.222  11.951  1.00  0.00     0.171 C 
HETATM   30  C   UNL     1      43.357  -9.956  11.959  1.00  0.00     0.034 C 
ENDBRANCH  28  29
ENDBRANCH  25  28
ENDBRANCH   1  22
TORSDOF 5
ENDMDL
MODEL 2
REMARK VINA RESULT:      -7.8      6.591      9.880
REMARK  5 active torsions:
REMARK  status: ('A' for Active; 'I' for Inactive)
REMARK    1  A    between atoms: C_2  and  O_3 
REMARK    2  A    between atoms: O_3  and  C_4 
REMARK    3  A    between atoms: C_7  and  C_8 
REMARK       I    between atoms: C_8  and  N_9 
REMARK    4  A    between atoms: N_12  and  C_13 
REMARK    5  A    between atoms: C_17  and  C_18 
ROOT
HETATM    1  C   UNL     1      42.147 -15.413   3.500  1.00  0.00     0.253 C 
HETATM    2  N   UNL     1      41.795 -15.331   2.156  1.00  0.00    -0.345 N 
HETATM    3  C   UNL     1      41.493 -14.001   1.615  1.00  0.00     0.146 C 
HETATM    4  C   UNL     1      41.800 -13.920   0.111  1.00  0.00     0.144 C 
HETATM    5  N   UNL     1      41.142 -15.023  -0.617  1.00  0.00    -0.363 N 
HETATM    6  C   UNL     1      41.446 -16.365  -0.093  1.00  0.00     0.144 C 
HETATM    7  C   UNL     1      41.154 -16.432   1.419  1.00  0.00     0.146 C 
HETATM    8  O   UNL     1      42.122 -14.449   4.262  1.00  0.00    -0.267 OA
ENDROOT
BRANCH   5   9
HETATM    9  C   UNL     1      40.328 -14.785  -1.681  1.00  0.00     0.122 A 
HETATM   10  N   UNL     1      40.629 -15.148  -2.968  1.00  0.00    -0.262 N 
HETATM   11  H   UNL     1      41.472 -15.597  -3.302  1.00  0.00     0.191 HD
HETATM   12  N   UNL     1      39.691 -14.831  -3.873  1.00  0.00    -0.173 NA
HETATM   13  C   UNL     1      38.727 -14.228  -3.158  1.00  0.00     0.090 A 
HETATM   14  C   UNL     1      39.102 -14.166  -1.786  1.00  0.00     0.084 A 
BRANCH  13  15
HETATM   15  C   UNL     1      37.497 -13.733  -3.783  1.00  0.00    -0.005 A 
HETATM   16  C   UNL     1      37.204 -12.359  -3.785  1.00  0.00     0.015 A 
HETATM   17  C   UNL     1      36.032 -11.876  -4.376  1.00  0.00     0.024 A 
HETATM   18  C   UNL     1      35.144 -12.764  -4.976  1.00  0.00     0.034 A 
HETATM   19 CL   UNL     1      33.703 -12.174  -5.706  1.00  0.00    -0.084 Cl
HETATM   20  C   UNL     1      35.418 -14.130  -4.990  1.00  0.00     0.024 A 
HETATM   21  C   UNL     1      36.589 -14.611  -4.396  1.00  0.00     0.015 A 
ENDBRANCH  13  15
ENDBRANCH   5   9
BRANCH   1  22
HETATM   22  C   UNL     1      42.647 -16.704   4.032  1.00  0.00     0.032 A 
HETATM   23  C   UNL     1      43.638 -17.422   3.357  1.00  0.00     0.020 A 
HETATM   24  C   UNL     1      44.136 -18.604   3.908  1.00  0.00     0.038 A 
HETATM   25  C   UNL     1      43.683 -19.049   5.153  1.00  0.00     0.068 A 
HETATM   26  C   UNL     1      42.701 -18.326   5.833  1.00  0.00     0.038 A 
HETATM   27  C   UNL     1      42.189 -17.148   5.277  1.00  0.00     0.020 A 
BRANCH  25  28
HETATM   28  O   UNL     1      44.263 -20.206   5.594  1.00  0.00    -0.352 OA
BRANCH  28  29
HETATM   29  C   UNL     1      45.011 -20.942   4.626  1.00  0.00     0.171 C 
HETATM   30  C   UNL     1      44.984 -22.405   5.032  1.00  0.00     0.034 C 
ENDBRANCH  28  29
ENDBRANCH  25  28
ENDBRANCH   1  22
TORSDOF 5
ENDMDL
MODEL 3
REMARK VINA RESULT:      -7.7      6.219     10.772
REMARK  5 active torsions:
REMARK  status: ('A' for Active; 'I' for Inactive)
REMARK    1  A    between atoms: C_2  and  O_3 
REMARK    2  A    between atoms: O_3  and  C_4 
REMARK    3  A    between atoms: C_7  and  C_8 
REMARK       I    between atoms: C_8  and  N_9 
REMARK    4  A    between atoms: N_12  and  C_13 
REMARK    5  A    between atoms: C_17  and  C_18 
ROOT
HETATM    1  C   UNL     1      43.066 -14.508   2.897  1.00  0.00     0.253 C 
HETATM    2  N   UNL     1      41.874 -14.011   2.378  1.00  0.00    -0.345 N 
HETATM    3  C   UNL     1      41.778 -12.562   2.168  1.00  0.00     0.146 C 
HETATM    4  C   UNL     1      40.807 -12.219   1.027  1.00  0.00     0.144 C 
HETATM    5  N   UNL     1      39.503 -12.879   1.235  1.00  0.00    -0.363 N 
HETATM    6  C   UNL     1      39.582 -14.335   1.434  1.00  0.00     0.144 C 
HETATM    7  C   UNL     1      40.572 -14.671   2.567  1.00  0.00     0.146 C 
HETATM    8  O   UNL     1      43.989 -13.787   3.270  1.00  0.00    -0.267 OA
ENDROOT
BRANCH   5   9
HETATM    9  C   UNL     1      38.341 -12.170   1.236  1.00  0.00     0.122 A 
HETATM   10  N   UNL     1      38.091 -11.118   2.078  1.00  0.00    -0.262 N 
HETATM   11  H   UNL     1      38.692 -10.750   2.804  1.00  0.00     0.191 HD
HETATM   12  N   UNL     1      36.887 -10.546   1.917  1.00  0.00    -0.173 NA
HETATM   13  C   UNL     1      36.312 -11.251   0.929  1.00  0.00     0.090 A 
HETATM   14  C   UNL     1      37.187 -12.287   0.494  1.00  0.00     0.084 A 
BRANCH  13  15
HETATM   15  C   UNL     1      34.970 -10.932   0.432  1.00  0.00    -0.005 A 
HETATM   16  C   UNL     1      33.929 -10.648   1.332  1.00  0.00     0.015 A 
HETATM   17  C   UNL     1      32.644 -10.344   0.870  1.00  0.00     0.024 A 
HETATM   18  C   UNL     1      32.391 -10.317  -0.499  1.00  0.00     0.034 A 
HETATM   19 CL   UNL     1      30.813  -9.942  -1.071  1.00  0.00    -0.084 Cl
HETATM   20  C   UNL     1      33.410 -10.591  -1.407  1.00  0.00     0.024 A 
HETATM   21  C   UNL     1      34.694 -10.897  -0.943  1.00  0.00     0.015 A 
ENDBRANCH  13  15
ENDBRANCH   5   9
BRANCH   1  22
HETATM   22  C   UNL     1      43.273 -15.975   2.939  1.00  0.00     0.032 A 
HETATM   23  C   UNL     1      43.593 -16.687   1.779  1.00  0.00     0.020 A 
HETATM   24  C   UNL     1      43.842 -18.059   1.854  1.00  0.00     0.038 A 
HETATM   25  C   UNL     1      43.819 -18.715   3.087  1.00  0.00     0.068 A 
HETATM   26  C   UNL     1      43.511 -18.002   4.247  1.00  0.00     0.038 A 
HETATM   27  C   UNL     1      43.247 -16.630   4.175  1.00  0.00     0.020 A 
BRANCH  25  28
HETATM   28  O   UNL     1      44.102 -20.052   3.030  1.00  0.00    -0.352 OA
BRANCH  28  29
HETATM   29  C   UNL     1      43.584 -20.756   1.902  1.00  0.00     0.171 C 
HETATM   30  C   UNL     1      44.356 -22.057   1.771  1.00  0.00     0.034 C 
ENDBRANCH  28  29
ENDBRANCH  25  28
ENDBRANCH   1  22
TORSDOF 5
ENDMDL
MODEL 4
REMARK VINA RESULT:      -7.5      5.949      7.053
REMARK  5 active torsions:
REMARK  status: ('A' for Active; 'I' for Inactive)
REMARK    1  A    between atoms: C_2  and  O_3 
REMARK    2  A    between atoms: O_3  and  C_4 
REMARK    3  A    between atoms: C_7  and  C_8 
REMARK       I    between atoms: C_8  and  N_9 
REMARK    4  A    between atoms: N_12  and  C_13 
REMARK    5  A    between atoms: C_17  and  C_18 
ROOT
HETATM    1  C   UNL     1      39.396 -11.679  -0.624  1.00  0.00     0.253 C 
HETATM    2  N   UNL     1      40.000 -12.748   0.032  1.00  0.00    -0.345 N 
HETATM    3  C   UNL     1      41.465 -12.821   0.002  1.00  0.00     0.146 C 
HETATM    4  C   UNL     1      42.019 -13.545   1.239  1.00  0.00     0.144 C 
HETATM    5  N   UNL     1      41.362 -14.855   1.416  1.00  0.00    -0.363 N 
HETATM    6  C   UNL     1      39.891 -14.797   1.461  1.00  0.00     0.144 C 
HETATM    7  C   UNL     1      39.344 -14.052   0.227  1.00  0.00     0.146 C 
HETATM    8  O   UNL     1      40.022 -10.861  -1.294  1.00  0.00    -0.267 OA
ENDROOT
BRANCH   5   9
HETATM    9  C   UNL     1      42.084 -16.003   1.527  1.00  0.00     0.122 A 
HETATM   10  N   UNL     1      42.774 -16.573   0.488  1.00  0.00    -0.262 N 
HETATM   11  H   UNL     1      42.822 -16.254  -0.470  1.00  0.00     0.191 HD
HETATM   12  N   UNL     1      43.430 -17.700   0.805  1.00  0.00    -0.173 NA
HETATM   13  C   UNL     1      43.160 -17.890   2.106  1.00  0.00     0.090 A 
HETATM   14  C   UNL     1      42.306 -16.857   2.585  1.00  0.00     0.084 A 
BRANCH  13  15
HETATM   15  C   UNL     1      43.710 -19.028   2.851  1.00  0.00    -0.005 A 
HETATM   16  C   UNL     1      44.054 -18.890   4.206  1.00  0.00     0.015 A 
HETATM   17  C   UNL     1      44.581 -19.968   4.925  1.00  0.00     0.024 A 
HETATM   18  C   UNL     1      44.763 -21.196   4.295  1.00  0.00     0.034 A 
HETATM   19 CL   UNL     1      45.409 -22.524   5.176  1.00  0.00    -0.084 Cl
HETATM   20  C   UNL     1      44.424 -21.354   2.953  1.00  0.00     0.024 A 
HETATM   21  C   UNL     1      43.899 -20.275   2.235  1.00  0.00     0.015 A 
ENDBRANCH  13  15
ENDBRANCH   5   9
BRANCH   1  22
HETATM   22  C   UNL     1      37.939 -11.464  -0.452  1.00  0.00     0.032 A 
HETATM   23  C   UNL     1      37.396 -11.212   0.812  1.00  0.00     0.020 A 
HETATM   24  C   UNL     1      36.030 -10.953   0.940  1.00  0.00     0.038 A 
HETATM   25  C   UNL     1      35.211 -10.898  -0.190  1.00  0.00     0.068 A 
HETATM   26  C   UNL     1      35.756 -11.137  -1.454  1.00  0.00     0.038 A 
HETATM   27  C   UNL     1      37.122 -11.411  -1.586  1.00  0.00     0.020 A 
BRANCH  25  28
HETATM   28  O   UNL     1      33.899 -10.613   0.066  1.00  0.00    -0.352 OA
BRANCH  28  29
HETATM   29  C   UNL     1      33.524 -10.566   1.442  1.00  0.00     0.171 C 
HETATM   30  C   UNL     1      32.724  -9.294   1.662  1.00  0.00     0.034 C 
ENDBRANCH  28  29
ENDBRANCH  25  28
ENDBRANCH   1  22
TORSDOF 5
ENDMDL
MODEL 5
REMARK VINA RESULT:      -7.5      1.787      2.579
REMARK  5 active torsions:
REMARK  status: ('A' for Active; 'I' for Inactive)
REMARK    1  A    between atoms: C_2  and  O_3 
REMARK    2  A    between atoms: O_3  and  C_4 
REMARK    3  A    between atoms: C_7  and  C_8 
REMARK       I    between atoms: C_8  and  N_9 
REMARK    4  A    between atoms: N_12  and  C_13 
REMARK    5  A    between atoms: C_17  and  C_18 
ROOT
HETATM    1  C   UNL     1      39.332  -9.453   7.618  1.00  0.00     0.253 C 
HETATM    2  N   UNL     1      40.144 -10.246   6.812  1.00  0.00    -0.345 N 
HETATM    3  C   UNL     1      39.884 -10.235   5.368  1.00  0.00     0.146 C 
HETATM    4  C   UNL     1      41.158 -10.533   4.562  1.00  0.00     0.144 C 
HETATM    5  N   UNL     1      41.802 -11.771   5.042  1.00  0.00    -0.363 N 
HETATM    6  C   UNL     1      42.081 -11.793   6.487  1.00  0.00     0.144 C 
HETATM    7  C   UNL     1      40.802 -11.474   7.287  1.00  0.00     0.146 C 
HETATM    8  O   UNL     1      38.364  -8.829   7.190  1.00  0.00    -0.267 OA
ENDROOT
BRANCH   5   9
HETATM    9  C   UNL     1      42.101 -12.792   4.192  1.00  0.00     0.122 A 
HETATM   10  N   UNL     1      42.323 -12.625   2.849  1.00  0.00    -0.262 N 
HETATM   11  H   UNL     1      42.273 -11.768   2.316  1.00  0.00     0.191 HD
HETATM   12  N   UNL     1      42.611 -13.756   2.186  1.00  0.00    -0.173 NA
HETATM   13  C   UNL     1      42.573 -14.714   3.126  1.00  0.00     0.090 A 
HETATM   14  C   UNL     1      42.238 -14.148   4.388  1.00  0.00     0.084 A 
BRANCH  13  15
HETATM   15  C   UNL     1      42.850 -16.119   2.808  1.00  0.00    -0.005 A 
HETATM   16  C   UNL     1      42.523 -17.132   3.725  1.00  0.00     0.015 A 
HETATM   17  C   UNL     1      42.784 -18.474   3.434  1.00  0.00     0.024 A 
HETATM   18  C   UNL     1      43.372 -18.816   2.219  1.00  0.00     0.034 A 
HETATM   19 CL   UNL     1      43.693 -20.466   1.856  1.00  0.00    -0.084 Cl
HETATM   20  C   UNL     1      43.700 -17.828   1.295  1.00  0.00     0.024 A 
HETATM   21  C   UNL     1      43.440 -16.485   1.589  1.00  0.00     0.015 A 
ENDBRANCH  13  15
ENDBRANCH   5   9
BRANCH   1  22
HETATM   22  C   UNL     1      39.686  -9.286   9.048  1.00  0.00     0.032 A 
HETATM   23  C   UNL     1      38.999  -9.987  10.043  1.00  0.00     0.020 A 
HETATM   24  C   UNL     1      39.389  -9.859  11.377  1.00  0.00     0.038 A 
HETATM   25  C   UNL     1      40.492  -9.072  11.719  1.00  0.00     0.068 A 
HETATM   26  C   UNL     1      41.186  -8.381  10.723  1.00  0.00     0.038 A 
HETATM   27  C   UNL     1      40.789  -8.495   9.387  1.00  0.00     0.020 A 
BRANCH  25  28
HETATM   28  O   UNL     1      40.787  -9.047  13.054  1.00  0.00    -0.352 OA
BRANCH  28  29
HETATM   29  C   UNL     1      41.205 -10.285  13.627  1.00  0.00     0.171 C 
HETATM   30  C   UNL     1      42.720 -10.350  13.539  1.00  0.00     0.034 C 
ENDBRANCH  28  29
ENDBRANCH  25  28
ENDBRANCH   1  22
TORSDOF 5
ENDMDL
MODEL 6
REMARK VINA RESULT:      -7.5      7.032     10.588
REMARK  5 active torsions:
REMARK  status: ('A' for Active; 'I' for Inactive)
REMARK    1  A    between atoms: C_2  and  O_3 
REMARK    2  A    between atoms: O_3  and  C_4 
REMARK    3  A    between atoms: C_7  and  C_8 
REMARK       I    between atoms: C_8  and  N_9 
REMARK    4  A    between atoms: N_12  and  C_13 
REMARK    5  A    between atoms: C_17  and  C_18 
ROOT
HETATM    1  C   UNL     1      42.936 -14.881   2.500  1.00  0.00     0.253 C 
HETATM    2  N   UNL     1      42.118 -14.623   1.404  1.00  0.00    -0.345 N 
HETATM    3  C   UNL     1      41.916 -13.220   1.024  1.00  0.00     0.146 C 
HETATM    4  C   UNL     1      41.627 -13.078  -0.479  1.00  0.00     0.144 C 
HETATM    5  N   UNL     1      40.523 -13.970  -0.885  1.00  0.00    -0.363 N 
HETATM    6  C   UNL     1      40.717 -15.384  -0.522  1.00  0.00     0.144 C 
HETATM    7  C   UNL     1      41.025 -15.515   0.983  1.00  0.00     0.146 C 
HETATM    8  O   UNL     1      43.411 -13.995   3.208  1.00  0.00    -0.267 OA
ENDROOT
BRANCH   5   9
HETATM    9  C   UNL     1      39.430 -13.494  -1.541  1.00  0.00     0.122 A 
HETATM   10  N   UNL     1      38.582 -12.549  -1.023  1.00  0.00    -0.262 N 
HETATM   11  H   UNL     1      38.626 -12.111  -0.113  1.00  0.00     0.191 HD
HETATM   12  N   UNL     1      37.566 -12.207  -1.831  1.00  0.00    -0.173 NA
HETATM   13  C   UNL     1      37.744 -12.959  -2.929  1.00  0.00     0.090 A 
HETATM   14  C   UNL     1      38.890 -13.789  -2.773  1.00  0.00     0.084 A 
BRANCH  13  15
HETATM   15  C   UNL     1      36.837 -12.874  -4.079  1.00  0.00    -0.005 A 
HETATM   16  C   UNL     1      36.233 -14.033  -4.594  1.00  0.00     0.015 A 
HETATM   17  C   UNL     1      35.369 -13.964  -5.691  1.00  0.00     0.024 A 
HETATM   18  C   UNL     1      35.097 -12.732  -6.280  1.00  0.00     0.034 A 
HETATM   19 CL   UNL     1      34.034 -12.643  -7.629  1.00  0.00    -0.084 Cl
HETATM   20  C   UNL     1      35.682 -11.571  -5.782  1.00  0.00     0.024 A 
HETATM   21  C   UNL     1      36.548 -11.642  -4.686  1.00  0.00     0.015 A 
ENDBRANCH  13  15
ENDBRANCH   5   9
BRANCH   1  22
HETATM   22  C   UNL     1      43.321 -16.282   2.794  1.00  0.00     0.032 A 
HETATM   23  C   UNL     1      42.932 -16.897   3.987  1.00  0.00     0.020 A 
HETATM   24  C   UNL     1      43.254 -18.236   4.214  1.00  0.00     0.038 A 
HETATM   25  C   UNL     1      43.922 -18.978   3.237  1.00  0.00     0.068 A 
HETATM   26  C   UNL     1      44.301 -18.367   2.040  1.00  0.00     0.038 A 
HETATM   27  C   UNL     1      43.992 -17.021   1.814  1.00  0.00     0.020 A 
BRANCH  25  28
HETATM   28  O   UNL     1      44.160 -20.283   3.570  1.00  0.00    -0.352 OA
BRANCH  28  29
HETATM   29  C   UNL     1      44.807 -21.077   2.576  1.00  0.00     0.171 C 
HETATM   30  C   UNL     1      43.733 -21.835   1.816  1.00  0.00     0.034 C 
ENDBRANCH  28  29
ENDBRANCH  25  28
ENDBRANCH   1  22
TORSDOF 5
ENDMDL
MODEL 7
REMARK VINA RESULT:      -7.5      6.365      9.425
REMARK  5 active torsions:
REMARK  status: ('A' for Active; 'I' for Inactive)
REMARK    1  A    between atoms: C_2  and  O_3 
REMARK    2  A    between atoms: O_3  and  C_4 
REMARK    3  A    between atoms: C_7  and  C_8 
REMARK       I    between atoms: C_8  and  N_9 
REMARK    4  A    between atoms: N_12  and  C_13 
REMARK    5  A    between atoms: C_17  and  C_18 
ROOT
HETATM    1  C   UNL     1      39.839 -12.867  -3.134  1.00  0.00     0.253 C 
HETATM    2  N   UNL     1      40.270 -13.351  -1.902  1.00  0.00    -0.345 N 
HETATM    3  C   UNL     1      41.620 -12.983  -1.463  1.00  0.00     0.146 C 
HETATM    4  C   UNL     1      41.728 -12.954   0.070  1.00  0.00     0.144 C 
HETATM    5  N   UNL     1      41.237 -14.218   0.652  1.00  0.00    -0.363 N 
HETATM    6  C   UNL     1      39.877 -14.596   0.231  1.00  0.00     0.144 C 
HETATM    7  C   UNL     1      39.773 -14.603  -1.307  1.00  0.00     0.146 C 
HETATM    8  O   UNL     1      40.564 -12.233  -3.898  1.00  0.00    -0.267 OA
ENDROOT
BRANCH   5   9
HETATM    9  C   UNL     1      42.002 -14.952   1.505  1.00  0.00     0.122 A 
HETATM   10  N   UNL     1      42.796 -14.405   2.480  1.00  0.00    -0.262 N 
HETATM   11  H   UNL     1      42.944 -13.424   2.678  1.00  0.00     0.191 HD
HETATM   12  N   UNL     1      43.467 -15.299   3.222  1.00  0.00    -0.173 NA
HETATM   13  C   UNL     1      43.107 -16.490   2.717  1.00  0.00     0.090 A 
HETATM   14  C   UNL     1      42.207 -16.308   1.630  1.00  0.00     0.084 A 
BRANCH  13  15
HETATM   15  C   UNL     1      43.619 -17.749   3.268  1.00  0.00    -0.005 A 
HETATM   16  C   UNL     1      43.835 -18.855   2.429  1.00  0.00     0.015 A 
HETATM   17  C   UNL     1      44.321 -20.061   2.944  1.00  0.00     0.024 A 
HETATM   18  C   UNL     1      44.599 -20.170   4.304  1.00  0.00     0.034 A 
HETATM   19 CL   UNL     1      45.198 -21.651   4.941  1.00  0.00    -0.084 Cl
HETATM   20  C   UNL     1      44.397 -19.083   5.152  1.00  0.00     0.024 A 
HETATM   21  C   UNL     1      43.909 -17.879   4.635  1.00  0.00     0.015 A 
ENDBRANCH  13  15
ENDBRANCH   5   9
BRANCH   1  22
HETATM   22  C   UNL     1      38.420 -13.053  -3.520  1.00  0.00     0.032 A 
HETATM   23  C   UNL     1      37.567 -11.955  -3.670  1.00  0.00     0.020 A 
HETATM   24  C   UNL     1      36.252 -12.151  -4.093  1.00  0.00     0.038 A 
HETATM   25  C   UNL     1      35.795 -13.431  -4.413  1.00  0.00     0.068 A 
HETATM   26  C   UNL     1      36.649 -14.527  -4.275  1.00  0.00     0.038 A 
HETATM   27  C   UNL     1      37.965 -14.337  -3.837  1.00  0.00     0.020 A 
BRANCH  25  28
HETATM   28  O   UNL     1      34.496 -13.488  -4.837  1.00  0.00    -0.352 OA
BRANCH  28  29
HETATM   29  C   UNL     1      33.748 -12.277  -4.731  1.00  0.00     0.171 C 
HETATM   30  C   UNL     1      32.503 -12.569  -3.913  1.00  0.00     0.034 C 
ENDBRANCH  28  29
ENDBRANCH  25  28
ENDBRANCH   1  22
TORSDOF 5
ENDMDL
MODEL 8
REMARK VINA RESULT:      -7.5      6.331      9.665
REMARK  5 active torsions:
REMARK  status: ('A' for Active; 'I' for Inactive)
REMARK    1  A    between atoms: C_2  and  O_3 
REMARK    2  A    between atoms: O_3  and  C_4 
REMARK    3  A    between atoms: C_7  and  C_8 
REMARK       I    between atoms: C_8  and  N_9 
REMARK    4  A    between atoms: N_12  and  C_13 
REMARK    5  A    between atoms: C_17  and  C_18 
ROOT
HETATM    1  C   UNL     1      42.327 -10.950  -2.109  1.00  0.00     0.253 C 
HETATM    2  N   UNL     1      41.986 -12.140  -1.474  1.00  0.00    -0.345 N 
HETATM    3  C   UNL     1      42.415 -12.313  -0.082  1.00  0.00     0.146 C 
HETATM    4  C   UNL     1      41.465 -13.241   0.692  1.00  0.00     0.144 C 
HETATM    5  N   UNL     1      41.269 -14.511  -0.033  1.00  0.00    -0.363 N 
HETATM    6  C   UNL     1      40.826 -14.355  -1.428  1.00  0.00     0.144 C 
HETATM    7  C   UNL     1      41.773 -13.408  -2.192  1.00  0.00     0.146 C 
HETATM    8  O   UNL     1      43.042 -10.094  -1.593  1.00  0.00    -0.267 OA
ENDROOT
BRANCH   5   9
HETATM    9  C   UNL     1      41.490 -15.713   0.567  1.00  0.00     0.122 A 
HETATM   10  N   UNL     1      40.624 -16.773   0.491  1.00  0.00    -0.262 N 
HETATM   11  H   UNL     1      39.727 -16.807   0.026  1.00  0.00     0.191 HD
HETATM   12  N   UNL     1      41.028 -17.873   1.147  1.00  0.00    -0.173 NA
HETATM   13  C   UNL     1      42.209 -17.527   1.683  1.00  0.00     0.090 A 
HETATM   14  C   UNL     1      42.519 -16.177   1.356  1.00  0.00     0.084 A 
BRANCH  13  15
HETATM   15  C   UNL     1      43.000 -18.469   2.481  1.00  0.00    -0.005 A 
HETATM   16  C   UNL     1      43.462 -19.668   1.912  1.00  0.00     0.015 A 
HETATM   17  C   UNL     1      44.216 -20.575   2.664  1.00  0.00     0.024 A 
HETATM   18  C   UNL     1      44.518 -20.288   3.992  1.00  0.00     0.034 A 
HETATM   19 CL   UNL     1      45.445 -21.400   4.920  1.00  0.00    -0.084 Cl
HETATM   20  C   UNL     1      44.073 -19.104   4.574  1.00  0.00     0.024 A 
HETATM   21  C   UNL     1      43.318 -18.199   3.821  1.00  0.00     0.015 A 
ENDBRANCH  13  15
ENDBRANCH   5   9
BRANCH   1  22
HETATM   22  C   UNL     1      41.746 -10.656  -3.441  1.00  0.00     0.032 A 
HETATM   23  C   UNL     1      40.389 -10.351  -3.581  1.00  0.00     0.020 A 
HETATM   24  C   UNL     1      39.878 -10.019  -4.837  1.00  0.00     0.038 A 
HETATM   25  C   UNL     1      40.723  -9.946  -5.947  1.00  0.00     0.068 A 
HETATM   26  C   UNL     1      42.081 -10.239  -5.806  1.00  0.00     0.038 A 
HETATM   27  C   UNL     1      42.594 -10.586  -4.551  1.00  0.00     0.020 A 
BRANCH  25  28
HETATM   28  O   UNL     1      40.107  -9.589  -7.114  1.00  0.00    -0.352 OA
BRANCH  28  29
HETATM   29  C   UNL     1      40.647 -10.155  -8.307  1.00  0.00     0.171 C 
HETATM   30  C   UNL     1      39.489 -10.683  -9.137  1.00  0.00     0.034 C 
ENDBRANCH  28  29
ENDBRANCH  25  28
ENDBRANCH   1  22
TORSDOF 5
ENDMDL
MODEL 9
REMARK VINA RESULT:      -7.4      6.902      9.848
REMARK  5 active torsions:
REMARK  status: ('A' for Active; 'I' for Inactive)
REMARK    1  A    between atoms: C_2  and  O_3 
REMARK    2  A    between atoms: O_3  and  C_4 
REMARK    3  A    between atoms: C_7  and  C_8 
REMARK       I    between atoms: C_8  and  N_9 
REMARK    4  A    between atoms: N_12  and  C_13 
REMARK    5  A    between atoms: C_17  and  C_18 
ROOT
HETATM    1  C   UNL     1      37.736 -14.746  -4.066  1.00  0.00     0.253 C 
HETATM    2  N   UNL     1      38.676 -14.741  -3.040  1.00  0.00    -0.345 N 
HETATM    3  C   UNL     1      39.806 -15.670  -3.150  1.00  0.00     0.146 C 
HETATM    4  C   UNL     1      41.049 -15.137  -2.421  1.00  0.00     0.144 C 
HETATM    5  N   UNL     1      40.720 -14.764  -1.031  1.00  0.00    -0.363 N 
HETATM    6  C   UNL     1      39.596 -13.822  -0.904  1.00  0.00     0.144 C 
HETATM    7  C   UNL     1      38.359 -14.354  -1.655  1.00  0.00     0.146 C 
HETATM    8  O   UNL     1      37.762 -15.547  -4.997  1.00  0.00    -0.267 OA
ENDROOT
BRANCH   5   9
HETATM    9  C   UNL     1      41.418 -15.267   0.024  1.00  0.00     0.122 A 
HETATM   10  N   UNL     1      41.868 -14.506   1.072  1.00  0.00    -0.262 N 
HETATM   11  H   UNL     1      41.777 -13.507   1.194  1.00  0.00     0.191 HD
HETATM   12  N   UNL     1      42.529 -15.193   2.017  1.00  0.00    -0.173 NA
HETATM   13  C   UNL     1      42.521 -16.461   1.576  1.00  0.00     0.090 A 
HETATM   14  C   UNL     1      41.851 -16.539   0.323  1.00  0.00     0.084 A 
BRANCH  13  15
HETATM   15  C   UNL     1      43.141 -17.548   2.341  1.00  0.00    -0.005 A 
HETATM   16  C   UNL     1      43.427 -17.383   3.706  1.00  0.00     0.015 A 
HETATM   17  C   UNL     1      44.019 -18.412   4.445  1.00  0.00     0.024 A 
HETATM   18  C   UNL     1      44.328 -19.619   3.823  1.00  0.00     0.034 A 
HETATM   19 CL   UNL     1      45.055 -20.888   4.728  1.00  0.00    -0.084 Cl
HETATM   20  C   UNL     1      44.049 -19.805   2.472  1.00  0.00     0.024 A 
HETATM   21  C   UNL     1      43.458 -18.774   1.734  1.00  0.00     0.015 A 
ENDBRANCH  13  15
ENDBRANCH   5   9
BRANCH   1  22
HETATM   22  C   UNL     1      36.694 -13.692  -4.088  1.00  0.00     0.032 A 
HETATM   23  C   UNL     1      36.981 -12.390  -3.666  1.00  0.00     0.020 A 
HETATM   24  C   UNL     1      36.000 -11.401  -3.752  1.00  0.00     0.038 A 
HETATM   25  C   UNL     1      34.748 -11.692  -4.300  1.00  0.00     0.068 A 
HETATM   26  C   UNL     1      34.464 -12.990  -4.732  1.00  0.00     0.038 A 
HETATM   27  C   UNL     1      35.440 -13.988  -4.634  1.00  0.00     0.020 A 
BRANCH  25  28
HETATM   28  O   UNL     1      33.883 -10.634  -4.350  1.00  0.00    -0.352 OA
BRANCH  28  29
HETATM   29  C   UNL     1      32.562 -10.881  -3.870  1.00  0.00     0.171 C 
HETATM   30  C   UNL     1      32.614 -10.895  -2.353  1.00  0.00     0.034 C 
ENDBRANCH  28  29
ENDBRANCH  25  28
ENDBRANCH   1  22
TORSDOF 5
ENDMDL
MODEL 10
REMARK VINA RESULT:      -7.3      6.556      9.781
REMARK  5 active torsions:
REMARK  status: ('A' for Active; 'I' for Inactive)
REMARK    1  A    between atoms: C_2  and  O_3 
REMARK    2  A    between atoms: O_3  and  C_4 
REMARK    3  A    between atoms: C_7  and  C_8 
REMARK       I    between atoms: C_8  and  N_9 
REMARK    4  A    between atoms: N_12  and  C_13 
REMARK    5  A    between atoms: C_17  and  C_18 
ROOT
HETATM    1  C   UNL     1      41.427 -17.270   1.948  1.00  0.00     0.253 C 
HETATM    2  N   UNL     1      41.522 -15.912   1.660  1.00  0.00    -0.345 N 
HETATM    3  C   UNL     1      40.628 -15.373   0.630  1.00  0.00     0.146 C 
HETATM    4  C   UNL     1      40.319 -13.887   0.872  1.00  0.00     0.144 C 
HETATM    5  N   UNL     1      41.565 -13.115   1.041  1.00  0.00    -0.363 N 
HETATM    6  C   UNL     1      42.468 -13.636   2.080  1.00  0.00     0.144 C 
HETATM    7  C   UNL     1      42.757 -15.131   1.842  1.00  0.00     0.146 C 
HETATM    8  O   UNL     1      40.706 -18.042   1.320  1.00  0.00    -0.267 OA
ENDROOT
BRANCH   5   9
HETATM    9  C   UNL     1      41.829 -12.015   0.283  1.00  0.00     0.122 A 
HETATM   10  N   UNL     1      42.209 -10.804   0.801  1.00  0.00    -0.262 N 
HETATM   11  H   UNL     1      42.317 -10.556   1.775  1.00  0.00     0.191 HD
HETATM   12  N   UNL     1      42.429  -9.848  -0.115  1.00  0.00    -0.173 NA
HETATM   13  C   UNL     1      42.180 -10.448  -1.290  1.00  0.00     0.090 A 
HETATM   14  C   UNL     1      41.784 -11.798  -1.077  1.00  0.00     0.084 A 
BRANCH  13  15
HETATM   15  C   UNL     1      42.320  -9.736  -2.565  1.00  0.00    -0.005 A 
HETATM   16  C   UNL     1      42.350 -10.448  -3.776  1.00  0.00     0.015 A 
HETATM   17  C   UNL     1      42.486  -9.779  -4.997  1.00  0.00     0.024 A 
HETATM   18  C   UNL     1      42.589  -8.391  -5.017  1.00  0.00     0.034 A 
HETATM   19 CL   UNL     1      42.754  -7.566  -6.517  1.00  0.00    -0.084 Cl
HETATM   20  C   UNL     1      42.557  -7.667  -3.828  1.00  0.00     0.024 A 
HETATM   21  C   UNL     1      42.423  -8.337  -2.607  1.00  0.00     0.015 A 
ENDBRANCH  13  15
ENDBRANCH   5   9
BRANCH   1  22
HETATM   22  C   UNL     1      42.171 -17.810   3.112  1.00  0.00     0.032 A 
HETATM   23  C   UNL     1      43.343 -18.550   2.933  1.00  0.00     0.020 A 
HETATM   24  C   UNL     1      44.058 -18.996   4.046  1.00  0.00     0.038 A 
HETATM   25  C   UNL     1      43.634 -18.670   5.336  1.00  0.00     0.068 A 
HETATM   26  C   UNL     1      42.469 -17.921   5.515  1.00  0.00     0.038 A 
HETATM   27  C   UNL     1      41.742 -17.483   4.402  1.00  0.00     0.020 A 
BRANCH  25  28
HETATM   28  O   UNL     1      44.431 -19.146   6.340  1.00  0.00    -0.352 OA
BRANCH  28  29
HETATM   29  C   UNL     1      43.756 -19.724   7.457  1.00  0.00     0.171 C 
HETATM   30  C   UNL     1      43.597 -21.209   7.186  1.00  0.00     0.034 C 
ENDBRANCH  28  29
ENDBRANCH  25  28
ENDBRANCH   1  22
TORSDOF 5
ENDMDL
