MODEL 1
REMARK VINA RESULT:      -9.7      0.000      0.000
REMARK  7 active torsions:
REMARK  status: ('A' for Active; 'I' for Inactive)
REMARK    1  A    between atoms: O_2  and  C_3 
REMARK    2  A    between atoms: C_6  and  C_7 
REMARK    3  A    between atoms: N_9  and  C_10 
REMARK    4  A    between atoms: C_10  and  C_11 
REMARK    5  A    between atoms: C_18  and  C_19 
REMARK       I    between atoms: C_19  and  N_20 
REMARK    6  A    between atoms: N_20  and  N_21 
REMARK       I    between atoms: N_21  and  C_22 
REMARK    7  A    between atoms: C_22  and  C_23 
ROOT
HETATM    1  C   UNL     1      43.213 -16.680   4.297  1.00  0.00     0.104 A 
HETATM    2  N   UNL     1      43.807 -17.880   4.152  1.00  0.00    -0.171 NA
HETATM    3  N   UNL     1      44.441 -18.101   5.311  1.00  0.00    -0.275 N 
HETATM    4  C   UNL     1      44.366 -17.048   6.171  1.00  0.00     0.132 A 
HETATM    5  C   UNL     1      43.546 -16.106   5.571  1.00  0.00     0.082 A 
ENDROOT
BRANCH   5   6
HETATM    6  C   UNL     1      43.101 -14.862   6.183  1.00  0.00     0.274 C 
HETATM    7  N   UNL     1      44.067 -14.211   6.925  1.00  0.00    -0.263 N 
HETATM    8  H   UNL     1      44.999 -14.585   7.083  1.00  0.00     0.190 HD
HETATM    9  O   UNL     1      41.963 -14.409   6.070  1.00  0.00    -0.266 OA
BRANCH   7  10
HETATM   10  N   UNL     1      43.707 -13.096   7.694  1.00  0.00    -0.262 N 
HETATM   11  C   UNL     1      44.624 -12.615   8.605  1.00  0.00     0.286 C 
HETATM   12  O   UNL     1      45.775 -13.053   8.654  1.00  0.00    -0.264 OA
HETATM   13  H   UNL     1      42.716 -12.873   7.737  1.00  0.00     0.190 HD
BRANCH  11  14
HETATM   14  C   UNL     1      44.147 -11.585   9.498  1.00  0.00     0.102 A 
HETATM   15  N   UNL     1      42.825 -11.187   9.493  1.00  0.00    -0.361 N 
HETATM   16  H   UNL     1      42.122 -11.583   8.880  1.00  0.00     0.165 HD
HETATM   17  C   UNL     1      42.621 -10.201  10.419  1.00  0.00     0.088 A 
HETATM   18  C   UNL     1      43.821  -9.953  11.043  1.00  0.00     0.019 A 
HETATM   19  C   UNL     1      44.782 -10.822  10.467  1.00  0.00     0.036 A 
ENDBRANCH  11  14
ENDBRANCH   7  10
ENDBRANCH   5   6
BRANCH   1  20
HETATM   20  C   UNL     1      42.370 -16.173   3.207  1.00  0.00    -0.004 A 
HETATM   21  C   UNL     1      41.172 -16.839   2.894  1.00  0.00     0.016 A 
HETATM   22  C   UNL     1      40.343 -16.402   1.854  1.00  0.00     0.037 A 
HETATM   23  C   UNL     1      40.699 -15.283   1.105  1.00  0.00     0.068 A 
HETATM   24  C   UNL     1      41.894 -14.623   1.398  1.00  0.00     0.037 A 
HETATM   25  C   UNL     1      42.728 -15.066   2.433  1.00  0.00     0.016 A 
BRANCH  23  26
HETATM   26  O   UNL     1      39.981 -14.746   0.072  1.00  0.00    -0.356 OA
HETATM   27  C   UNL     1      40.686 -14.506  -1.140  1.00  0.00     0.210 C 
ENDBRANCH  23  26
ENDBRANCH   1  20
BRANCH   3  28
HETATM   28  C   UNL     1      45.093 -19.382   5.553  1.00  0.00     0.189 C 
BRANCH  28  29
HETATM   29  C   UNL     1      44.793 -20.363   4.445  1.00  0.00    -0.038 A 
HETATM   30  C   UNL     1      44.816 -21.745   4.697  1.00  0.00     0.009 A 
HETATM   31  C   UNL     1      44.562 -22.658   3.674  1.00  0.00     0.001 A 
HETATM   32  C   UNL     1      44.276 -22.203   2.390  1.00  0.00     0.000 A 
HETATM   33  C   UNL     1      44.243 -20.834   2.127  1.00  0.00     0.001 A 
HETATM   34  C   UNL     1      44.500 -19.917   3.149  1.00  0.00     0.009 A 
ENDBRANCH  28  29
ENDBRANCH   3  28
TORSDOF 7
ENDMDL
MODEL 2
REMARK VINA RESULT:      -9.6      2.298      6.042
REMARK  7 active torsions:
REMARK  status: ('A' for Active; 'I' for Inactive)
REMARK    1  A    between atoms: O_2  and  C_3 
REMARK    2  A    between atoms: C_6  and  C_7 
REMARK    3  A    between atoms: N_9  and  C_10 
REMARK    4  A    between atoms: C_10  and  C_11 
REMARK    5  A    between atoms: C_18  and  C_19 
REMARK       I    between atoms: C_19  and  N_20 
REMARK    6  A    between atoms: N_20  and  N_21 
REMARK       I    between atoms: N_21  and  C_22 
REMARK    7  A    between atoms: C_22  and  C_23 
ROOT
HETATM    1  C   UNL     1      41.785 -16.153   3.606  1.00  0.00     0.104 A 
HETATM    2  N   UNL     1      40.710 -16.423   2.839  1.00  0.00    -0.171 NA
HETATM    3  N   UNL     1      40.078 -15.251   2.695  1.00  0.00    -0.275 N 
HETATM    4  C   UNL     1      40.642 -14.246   3.420  1.00  0.00     0.132 A 
HETATM    5  C   UNL     1      41.781 -14.774   4.008  1.00  0.00     0.082 A 
ENDROOT
BRANCH   5   6
HETATM    6  C   UNL     1      42.755 -14.023   4.787  1.00  0.00     0.274 C 
HETATM    7  N   UNL     1      42.424 -13.867   6.120  1.00  0.00    -0.263 N 
HETATM    8  H   UNL     1      41.552 -14.198   6.523  1.00  0.00     0.190 HD
HETATM    9  O   UNL     1      43.790 -13.550   4.322  1.00  0.00    -0.266 OA
BRANCH   7  10
HETATM   10  N   UNL     1      43.200 -13.024   6.925  1.00  0.00    -0.262 N 
HETATM   11  C   UNL     1      44.137 -13.602   7.756  1.00  0.00     0.286 C 
HETATM   12  O   UNL     1      44.391 -14.807   7.699  1.00  0.00    -0.264 OA
HETATM   13  H   UNL     1      42.854 -12.076   7.058  1.00  0.00     0.190 HD
BRANCH  11  14
HETATM   14  C   UNL     1      44.783 -12.715   8.695  1.00  0.00     0.102 A 
HETATM   15  N   UNL     1      44.253 -12.489   9.949  1.00  0.00    -0.361 N 
HETATM   16  H   UNL     1      43.399 -12.920  10.284  1.00  0.00     0.165 HD
HETATM   17  C   UNL     1      45.039 -11.615  10.647  1.00  0.00     0.088 A 
HETATM   18  C   UNL     1      46.101 -11.268   9.845  1.00  0.00     0.019 A 
HETATM   19  C   UNL     1      45.944 -11.960   8.617  1.00  0.00     0.036 A 
ENDBRANCH  11  14
ENDBRANCH   7  10
ENDBRANCH   5   6
BRANCH   1  20
HETATM   20  C   UNL     1      42.735 -17.235   3.897  1.00  0.00    -0.004 A 
HETATM   21  C   UNL     1      43.228 -18.022   2.841  1.00  0.00     0.016 A 
HETATM   22  C   UNL     1      44.123 -19.073   3.071  1.00  0.00     0.037 A 
HETATM   23  C   UNL     1      44.545 -19.356   4.368  1.00  0.00     0.068 A 
HETATM   24  C   UNL     1      44.051 -18.590   5.425  1.00  0.00     0.037 A 
HETATM   25  C   UNL     1      43.147 -17.544   5.196  1.00  0.00     0.016 A 
BRANCH  23  26
HETATM   26  O   UNL     1      45.419 -20.344   4.730  1.00  0.00    -0.356 OA
HETATM   27  C   UNL     1      44.885 -21.657   4.852  1.00  0.00     0.210 C 
ENDBRANCH  23  26
ENDBRANCH   1  20
BRANCH   3  28
HETATM   28  C   UNL     1      38.927 -15.148   1.807  1.00  0.00     0.189 C 
BRANCH  28  29
HETATM   29  C   UNL     1      39.261 -14.340   0.576  1.00  0.00    -0.038 A 
HETATM   30  C   UNL     1      40.457 -14.572  -0.122  1.00  0.00     0.009 A 
HETATM   31  C   UNL     1      40.783 -13.815  -1.247  1.00  0.00     0.001 A 
HETATM   32  C   UNL     1      39.914 -12.823  -1.693  1.00  0.00     0.000 A 
HETATM   33  C   UNL     1      38.719 -12.586  -1.014  1.00  0.00     0.001 A 
HETATM   34  C   UNL     1      38.392 -13.340   0.114  1.00  0.00     0.009 A 
ENDBRANCH  28  29
ENDBRANCH   3  28
TORSDOF 7
ENDMDL
MODEL 3
REMARK VINA RESULT:      -9.4      3.219      7.209
REMARK  7 active torsions:
REMARK  status: ('A' for Active; 'I' for Inactive)
REMARK    1  A    between atoms: O_2  and  C_3 
REMARK    2  A    between atoms: C_6  and  C_7 
REMARK    3  A    between atoms: N_9  and  C_10 
REMARK    4  A    between atoms: C_10  and  C_11 
REMARK    5  A    between atoms: C_18  and  C_19 
REMARK       I    between atoms: C_19  and  N_20 
REMARK    6  A    between atoms: N_20  and  N_21 
REMARK       I    between atoms: N_21  and  C_22 
REMARK    7  A    between atoms: C_22  and  C_23 
ROOT
HETATM    1  C   UNL     1      42.332 -16.254   4.292  1.00  0.00     0.104 A 
HETATM    2  N   UNL     1      43.271 -16.809   5.084  1.00  0.00    -0.171 NA
HETATM    3  N   UNL     1      43.607 -17.956   4.480  1.00  0.00    -0.275 N 
HETATM    4  C   UNL     1      42.852 -18.221   3.377  1.00  0.00     0.132 A 
HETATM    5  C   UNL     1      42.026 -17.124   3.190  1.00  0.00     0.082 A 
ENDROOT
BRANCH   5   6
HETATM    6  C   UNL     1      41.124 -16.927   2.064  1.00  0.00     0.274 C 
HETATM    7  N   UNL     1      41.757 -16.718   0.854  1.00  0.00    -0.263 N 
HETATM    8  H   UNL     1      42.766 -16.651   0.754  1.00  0.00     0.190 HD
HETATM    9  O   UNL     1      39.899 -16.936   2.157  1.00  0.00    -0.266 OA
BRANCH   7  10
HETATM   10  N   UNL     1      40.996 -16.352  -0.264  1.00  0.00    -0.262 N 
HETATM   11  C   UNL     1      41.006 -15.028  -0.648  1.00  0.00     0.286 C 
HETATM   12  O   UNL     1      41.764 -14.210  -0.123  1.00  0.00    -0.264 OA
HETATM   13  H   UNL     1      40.277 -17.008  -0.560  1.00  0.00     0.190 HD
BRANCH  11  14
HETATM   14  C   UNL     1      40.072 -14.664  -1.688  1.00  0.00     0.102 A 
HETATM   15  N   UNL     1      38.766 -14.327  -1.393  1.00  0.00    -0.361 N 
HETATM   16  H   UNL     1      38.389 -14.311  -0.452  1.00  0.00     0.165 HD
HETATM   17  C   UNL     1      38.082 -14.027  -2.538  1.00  0.00     0.088 A 
HETATM   18  C   UNL     1      38.949 -14.163  -3.596  1.00  0.00     0.019 A 
HETATM   19  C   UNL     1      40.201 -14.562  -3.065  1.00  0.00     0.036 A 
ENDBRANCH  11  14
ENDBRANCH   7  10
ENDBRANCH   5   6
BRANCH   1  20
HETATM   20  C   UNL     1      41.798 -14.934   4.649  1.00  0.00    -0.004 A 
HETATM   21  C   UNL     1      42.444 -13.778   4.177  1.00  0.00     0.016 A 
HETATM   22  C   UNL     1      41.981 -12.498   4.503  1.00  0.00     0.037 A 
HETATM   23  C   UNL     1      40.855 -12.350   5.310  1.00  0.00     0.068 A 
HETATM   24  C   UNL     1      40.214 -13.491   5.796  1.00  0.00     0.037 A 
HETATM   25  C   UNL     1      40.684 -14.772   5.477  1.00  0.00     0.016 A 
BRANCH  23  26
HETATM   26  O   UNL     1      40.294 -11.164   5.697  1.00  0.00    -0.356 OA
HETATM   27  C   UNL     1      39.675 -11.137   6.977  1.00  0.00     0.210 C 
ENDBRANCH  23  26
ENDBRANCH   1  20
BRANCH   3  28
HETATM   28  C   UNL     1      44.702 -18.762   5.002  1.00  0.00     0.189 C 
BRANCH  28  29
HETATM   29  C   UNL     1      44.670 -20.160   4.432  1.00  0.00    -0.038 A 
HETATM   30  C   UNL     1      44.688 -21.275   5.286  1.00  0.00     0.009 A 
HETATM   31  C   UNL     1      44.681 -22.569   4.766  1.00  0.00     0.001 A 
HETATM   32  C   UNL     1      44.649 -22.765   3.388  1.00  0.00     0.000 A 
HETATM   33  C   UNL     1      44.623 -21.667   2.529  1.00  0.00     0.001 A 
HETATM   34  C   UNL     1      44.633 -20.371   3.046  1.00  0.00     0.009 A 
ENDBRANCH  28  29
ENDBRANCH   3  28
TORSDOF 7
ENDMDL
MODEL 4
REMARK VINA RESULT:      -9.2      3.585      9.360
REMARK  7 active torsions:
REMARK  status: ('A' for Active; 'I' for Inactive)
REMARK    1  A    between atoms: O_2  and  C_3 
REMARK    2  A    between atoms: C_6  and  C_7 
REMARK    3  A    between atoms: N_9  and  C_10 
REMARK    4  A    between atoms: C_10  and  C_11 
REMARK    5  A    between atoms: C_18  and  C_19 
REMARK       I    between atoms: C_19  and  N_20 
REMARK    6  A    between atoms: N_20  and  N_21 
REMARK       I    between atoms: N_21  and  C_22 
REMARK    7  A    between atoms: C_22  and  C_23 
ROOT
HETATM    1  C   UNL     1      43.046 -16.517   3.548  1.00  0.00     0.104 A 
HETATM    2  N   UNL     1      43.455 -15.729   4.561  1.00  0.00    -0.171 NA
HETATM    3  N   UNL     1      42.831 -14.559   4.370  1.00  0.00    -0.275 N 
HETATM    4  C   UNL     1      42.108 -14.521   3.216  1.00  0.00     0.132 A 
HETATM    5  C   UNL     1      42.188 -15.787   2.658  1.00  0.00     0.082 A 
ENDROOT
BRANCH   5   6
HETATM    6  C   UNL     1      41.474 -16.232   1.470  1.00  0.00     0.274 C 
HETATM    7  N   UNL     1      41.897 -15.643   0.294  1.00  0.00    -0.263 N 
HETATM    8  H   UNL     1      42.609 -14.919   0.254  1.00  0.00     0.190 HD
HETATM    9  O   UNL     1      40.563 -17.057   1.485  1.00  0.00    -0.266 OA
BRANCH   7  10
HETATM   10  N   UNL     1      41.174 -15.868  -0.885  1.00  0.00    -0.262 N 
HETATM   11  C   UNL     1      40.515 -14.799  -1.455  1.00  0.00     0.286 C 
HETATM   12  O   UNL     1      40.664 -13.651  -1.031  1.00  0.00    -0.264 OA
HETATM   13  H   UNL     1      40.950 -16.836  -1.105  1.00  0.00     0.190 HD
BRANCH  11  14
HETATM   14  C   UNL     1      39.640 -15.112  -2.561  1.00  0.00     0.102 A 
HETATM   15  N   UNL     1      39.895 -16.180  -3.397  1.00  0.00    -0.361 N 
HETATM   16  H   UNL     1      40.690 -16.799  -3.291  1.00  0.00     0.165 HD
HETATM   17  C   UNL     1      38.932 -16.267  -4.364  1.00  0.00     0.088 A 
HETATM   18  C   UNL     1      38.033 -15.249  -4.157  1.00  0.00     0.019 A 
HETATM   19  C   UNL     1      38.474 -14.521  -3.024  1.00  0.00     0.036 A 
ENDBRANCH  11  14
ENDBRANCH   7  10
ENDBRANCH   5   6
BRANCH   1  20
HETATM   20  C   UNL     1      43.507 -17.911   3.508  1.00  0.00    -0.004 A 
HETATM   21  C   UNL     1      43.444 -18.625   2.298  1.00  0.00     0.016 A 
HETATM   22  C   UNL     1      43.858 -19.959   2.215  1.00  0.00     0.037 A 
HETATM   23  C   UNL     1      44.348 -20.607   3.347  1.00  0.00     0.068 A 
HETATM   24  C   UNL     1      44.402 -19.912   4.556  1.00  0.00     0.037 A 
HETATM   25  C   UNL     1      43.978 -18.580   4.641  1.00  0.00     0.016 A 
BRANCH  23  26
HETATM   26  O   UNL     1      44.792 -21.900   3.403  1.00  0.00    -0.356 OA
HETATM   27  C   UNL     1      44.805 -22.516   4.685  1.00  0.00     0.210 C 
ENDBRANCH  23  26
ENDBRANCH   1  20
BRANCH   3  28
HETATM   28  C   UNL     1      42.946 -13.500   5.364  1.00  0.00     0.189 C 
BRANCH  28  29
HETATM   29  C   UNL     1      41.665 -12.706   5.463  1.00  0.00    -0.038 A 
HETATM   30  C   UNL     1      40.532 -13.263   6.076  1.00  0.00     0.009 A 
HETATM   31  C   UNL     1      39.338 -12.544   6.153  1.00  0.00     0.001 A 
HETATM   32  C   UNL     1      39.266 -11.258   5.624  1.00  0.00     0.000 A 
HETATM   33  C   UNL     1      40.387 -10.690   5.018  1.00  0.00     0.001 A 
HETATM   34  C   UNL     1      41.581 -11.408   4.938  1.00  0.00     0.009 A 
ENDBRANCH  28  29
ENDBRANCH   3  28
TORSDOF 7
ENDMDL
MODEL 5
REMARK VINA RESULT:      -9.1      1.646      2.160
REMARK  7 active torsions:
REMARK  status: ('A' for Active; 'I' for Inactive)
REMARK    1  A    between atoms: O_2  and  C_3 
REMARK    2  A    between atoms: C_6  and  C_7 
REMARK    3  A    between atoms: N_9  and  C_10 
REMARK    4  A    between atoms: C_10  and  C_11 
REMARK    5  A    between atoms: C_18  and  C_19 
REMARK       I    between atoms: C_19  and  N_20 
REMARK    6  A    between atoms: N_20  and  N_21 
REMARK       I    between atoms: N_21  and  C_22 
REMARK    7  A    between atoms: C_22  and  C_23 
ROOT
HETATM    1  C   UNL     1      42.497 -16.120   3.255  1.00  0.00     0.104 A 
HETATM    2  N   UNL     1      42.856 -17.030   2.328  1.00  0.00    -0.171 NA
HETATM    3  N   UNL     1      43.730 -17.834   2.947  1.00  0.00    -0.275 N 
HETATM    4  C   UNL     1      44.033 -17.426   4.210  1.00  0.00     0.132 A 
HETATM    5  C   UNL     1      43.228 -16.329   4.474  1.00  0.00     0.082 A 
ENDROOT
BRANCH   5   6
HETATM    6  C   UNL     1      43.139 -15.635   5.751  1.00  0.00     0.274 C 
HETATM    7  N   UNL     1      43.501 -14.302   5.704  1.00  0.00    -0.263 N 
HETATM    8  H   UNL     1      43.854 -13.847   4.867  1.00  0.00     0.190 HD
HETATM    9  O   UNL     1      42.780 -16.167   6.799  1.00  0.00    -0.266 OA
BRANCH   7  10
HETATM   10  N   UNL     1      43.615 -13.580   6.898  1.00  0.00    -0.262 N 
HETATM   11  C   UNL     1      44.879 -13.234   7.328  1.00  0.00     0.286 C 
HETATM   12  O   UNL     1      45.873 -13.424   6.624  1.00  0.00    -0.264 OA
HETATM   13  H   UNL     1      42.805 -13.586   7.514  1.00  0.00     0.190 HD
BRANCH  11  14
HETATM   14  C   UNL     1      44.962 -12.651   8.647  1.00  0.00     0.102 A 
HETATM   15  N   UNL     1      44.052 -12.977   9.633  1.00  0.00    -0.361 N 
HETATM   16  H   UNL     1      43.288 -13.629   9.499  1.00  0.00     0.165 HD
HETATM   17  C   UNL     1      44.336 -12.297  10.785  1.00  0.00     0.088 A 
HETATM   18  C   UNL     1      45.447 -11.522  10.555  1.00  0.00     0.019 A 
HETATM   19  C   UNL     1      45.845 -11.743   9.213  1.00  0.00     0.036 A 
ENDBRANCH  11  14
ENDBRANCH   7  10
ENDBRANCH   5   6
BRANCH   1  20
HETATM   20  C   UNL     1      41.480 -15.119   2.905  1.00  0.00    -0.004 A 
HETATM   21  C   UNL     1      40.164 -15.537   2.641  1.00  0.00     0.016 A 
HETATM   22  C   UNL     1      39.165 -14.621   2.290  1.00  0.00     0.037 A 
HETATM   23  C   UNL     1      39.466 -13.265   2.197  1.00  0.00     0.068 A 
HETATM   24  C   UNL     1      40.773 -12.842   2.444  1.00  0.00     0.037 A 
HETATM   25  C   UNL     1      41.775 -13.759   2.786  1.00  0.00     0.016 A 
BRANCH  23  26
HETATM   26  O   UNL     1      38.588 -12.267   1.873  1.00  0.00    -0.356 OA
HETATM   27  C   UNL     1      38.113 -12.244   0.532  1.00  0.00     0.210 C 
ENDBRANCH  23  26
ENDBRANCH   1  20
BRANCH   3  28
HETATM   28  C   UNL     1      44.234 -19.022   2.269  1.00  0.00     0.189 C 
BRANCH  28  29
HETATM   29  C   UNL     1      44.396 -20.172   3.234  1.00  0.00    -0.038 A 
HETATM   30  C   UNL     1      44.497 -21.489   2.756  1.00  0.00     0.009 A 
HETATM   31  C   UNL     1      44.625 -22.559   3.642  1.00  0.00     0.001 A 
HETATM   32  C   UNL     1      44.659 -22.326   5.014  1.00  0.00     0.000 A 
HETATM   33  C   UNL     1      44.566 -21.022   5.502  1.00  0.00     0.001 A 
HETATM   34  C   UNL     1      44.435 -19.950   4.618  1.00  0.00     0.009 A 
ENDBRANCH  28  29
ENDBRANCH   3  28
TORSDOF 7
ENDMDL
MODEL 6
REMARK VINA RESULT:      -8.9      3.166      6.488
REMARK  7 active torsions:
REMARK  status: ('A' for Active; 'I' for Inactive)
REMARK    1  A    between atoms: O_2  and  C_3 
REMARK    2  A    between atoms: C_6  and  C_7 
REMARK    3  A    between atoms: N_9  and  C_10 
REMARK    4  A    between atoms: C_10  and  C_11 
REMARK    5  A    between atoms: C_18  and  C_19 
REMARK       I    between atoms: C_19  and  N_20 
REMARK    6  A    between atoms: N_20  and  N_21 
REMARK       I    between atoms: N_21  and  C_22 
REMARK    7  A    between atoms: C_22  and  C_23 
ROOT
HETATM    1  C   UNL     1      40.721 -15.499   2.855  1.00  0.00     0.104 A 
HETATM    2  N   UNL     1      40.253 -15.500   1.591  1.00  0.00    -0.171 NA
HETATM    3  N   UNL     1      39.554 -14.363   1.474  1.00  0.00    -0.275 N 
HETATM    4  C   UNL     1      39.464 -13.668   2.641  1.00  0.00     0.132 A 
HETATM    5  C   UNL     1      40.238 -14.349   3.568  1.00  0.00     0.082 A 
ENDROOT
BRANCH   5   6
HETATM    6  C   UNL     1      40.518 -13.904   4.926  1.00  0.00     0.274 C 
HETATM    7  N   UNL     1      39.395 -13.696   5.702  1.00  0.00    -0.263 N 
HETATM    8  H   UNL     1      38.446 -13.791   5.352  1.00  0.00     0.190 HD
HETATM    9  O   UNL     1      41.649 -13.714   5.367  1.00  0.00    -0.266 OA
BRANCH   7  10
HETATM   10  N   UNL     1      39.534 -13.109   6.967  1.00  0.00    -0.262 N 
HETATM   11  C   UNL     1      39.363 -11.744   7.069  1.00  0.00     0.286 C 
HETATM   12  O   UNL     1      38.964 -11.071   6.116  1.00  0.00    -0.264 OA
HETATM   13  H   UNL     1      40.011 -13.660   7.676  1.00  0.00     0.190 HD
BRANCH  11  14
HETATM   14  C   UNL     1      39.692 -11.159   8.348  1.00  0.00     0.102 A 
HETATM   15  N   UNL     1      40.955 -11.286   8.891  1.00  0.00    -0.361 N 
HETATM   16  H   UNL     1      41.713 -11.783   8.439  1.00  0.00     0.165 HD
HETATM   17  C   UNL     1      41.017 -10.654  10.102  1.00  0.00     0.088 A 
HETATM   18  C   UNL     1      39.784 -10.102  10.354  1.00  0.00     0.019 A 
HETATM   19  C   UNL     1      38.949 -10.416   9.253  1.00  0.00     0.036 A 
ENDBRANCH  11  14
ENDBRANCH   7  10
ENDBRANCH   5   6
BRANCH   1  20
HETATM   20  C   UNL     1      41.597 -16.597   3.284  1.00  0.00    -0.004 A 
HETATM   21  C   UNL     1      42.718 -16.931   2.504  1.00  0.00     0.016 A 
HETATM   22  C   UNL     1      43.572 -17.979   2.866  1.00  0.00     0.037 A 
HETATM   23  C   UNL     1      43.320 -18.715   4.021  1.00  0.00     0.068 A 
HETATM   24  C   UNL     1      42.201 -18.401   4.795  1.00  0.00     0.037 A 
HETATM   25  C   UNL     1      41.341 -17.358   4.428  1.00  0.00     0.016 A 
BRANCH  23  26
HETATM   26  O   UNL     1      44.075 -19.754   4.492  1.00  0.00    -0.356 OA
HETATM   27  C   UNL     1      45.040 -19.443   5.490  1.00  0.00     0.210 C 
ENDBRANCH  23  26
ENDBRANCH   1  20
BRANCH   3  28
HETATM   28  C   UNL     1      39.006 -13.974   0.182  1.00  0.00     0.189 C 
BRANCH  28  29
HETATM   29  C   UNL     1      40.100 -13.808  -0.846  1.00  0.00    -0.038 A 
HETATM   30  C   UNL     1      41.104 -12.843  -0.661  1.00  0.00     0.009 A 
HETATM   31  C   UNL     1      42.106 -12.668  -1.617  1.00  0.00     0.001 A 
HETATM   32  C   UNL     1      42.119 -13.458  -2.764  1.00  0.00     0.000 A 
HETATM   33  C   UNL     1      41.132 -14.423  -2.956  1.00  0.00     0.001 A 
HETATM   34  C   UNL     1      40.127 -14.599  -2.003  1.00  0.00     0.009 A 
ENDBRANCH  28  29
ENDBRANCH   3  28
TORSDOF 7
ENDMDL
MODEL 7
REMARK VINA RESULT:      -8.7      3.705      8.641
REMARK  7 active torsions:
REMARK  status: ('A' for Active; 'I' for Inactive)
REMARK    1  A    between atoms: O_2  and  C_3 
REMARK    2  A    between atoms: C_6  and  C_7 
REMARK    3  A    between atoms: N_9  and  C_10 
REMARK    4  A    between atoms: C_10  and  C_11 
REMARK    5  A    between atoms: C_18  and  C_19 
REMARK       I    between atoms: C_19  and  N_20 
REMARK    6  A    between atoms: N_20  and  N_21 
REMARK       I    between atoms: N_21  and  C_22 
REMARK    7  A    between atoms: C_22  and  C_23 
ROOT
HETATM    1  C   UNL     1      41.722 -14.569   1.114  1.00  0.00     0.104 A 
HETATM    2  N   UNL     1      41.590 -13.736   0.062  1.00  0.00    -0.171 NA
HETATM    3  N   UNL     1      41.542 -14.533  -1.013  1.00  0.00    -0.275 N 
HETATM    4  C   UNL     1      41.738 -15.847  -0.714  1.00  0.00     0.132 A 
HETATM    5  C   UNL     1      41.828 -15.930   0.667  1.00  0.00     0.082 A 
ENDROOT
BRANCH   5   6
HETATM    6  C   UNL     1      41.931 -17.162   1.434  1.00  0.00     0.274 C 
HETATM    7  N   UNL     1      43.204 -17.697   1.489  1.00  0.00    -0.263 N 
HETATM    8  H   UNL     1      43.999 -17.303   0.995  1.00  0.00     0.190 HD
HETATM    9  O   UNL     1      40.980 -17.706   1.992  1.00  0.00    -0.266 OA
BRANCH   7  10
HETATM   10  N   UNL     1      43.391 -18.964   2.056  1.00  0.00    -0.262 N 
HETATM   11  C   UNL     1      43.988 -19.036   3.298  1.00  0.00     0.286 C 
HETATM   12  O   UNL     1      44.224 -18.023   3.959  1.00  0.00    -0.264 OA
HETATM   13  H   UNL     1      43.333 -19.760   1.425  1.00  0.00     0.190 HD
BRANCH  11  14
HETATM   14  C   UNL     1      44.325 -20.362   3.762  1.00  0.00     0.102 A 
HETATM   15  N   UNL     1      44.334 -21.442   2.903  1.00  0.00    -0.361 N 
HETATM   16  H   UNL     1      44.112 -21.376   1.916  1.00  0.00     0.165 HD
HETATM   17  C   UNL     1      44.678 -22.582   3.575  1.00  0.00     0.088 A 
HETATM   18  C   UNL     1      44.903 -22.246   4.889  1.00  0.00     0.019 A 
HETATM   19  C   UNL     1      44.683 -20.851   5.010  1.00  0.00     0.036 A 
ENDBRANCH  11  14
ENDBRANCH   7  10
ENDBRANCH   5   6
BRANCH   1  20
HETATM   20  C   UNL     1      41.737 -13.999   2.467  1.00  0.00    -0.004 A 
HETATM   21  C   UNL     1      40.519 -13.684   3.097  1.00  0.00     0.016 A 
HETATM   22  C   UNL     1      40.484 -13.126   4.380  1.00  0.00     0.037 A 
HETATM   23  C   UNL     1      41.672 -12.873   5.061  1.00  0.00     0.068 A 
HETATM   24  C   UNL     1      42.887 -13.170   4.440  1.00  0.00     0.037 A 
HETATM   25  C   UNL     1      42.922 -13.719   3.152  1.00  0.00     0.016 A 
BRANCH  23  26
HETATM   26  O   UNL     1      41.781 -12.342   6.317  1.00  0.00    -0.356 OA
HETATM   27  C   UNL     1      41.412 -10.976   6.467  1.00  0.00     0.210 C 
ENDBRANCH  23  26
ENDBRANCH   1  20
BRANCH   3  28
HETATM   28  C   UNL     1      41.272 -13.968  -2.328  1.00  0.00     0.189 C 
BRANCH  28  29
HETATM   29  C   UNL     1      39.916 -14.396  -2.837  1.00  0.00    -0.038 A 
HETATM   30  C   UNL     1      38.751 -13.775  -2.357  1.00  0.00     0.009 A 
HETATM   31  C   UNL     1      37.494 -14.180  -2.805  1.00  0.00     0.001 A 
HETATM   32  C   UNL     1      37.385 -15.203  -3.743  1.00  0.00     0.000 A 
HETATM   33  C   UNL     1      38.534 -15.824  -4.233  1.00  0.00     0.001 A 
HETATM   34  C   UNL     1      39.794 -15.423  -3.784  1.00  0.00     0.009 A 
ENDBRANCH  28  29
ENDBRANCH   3  28
TORSDOF 7
ENDMDL
MODEL 8
REMARK VINA RESULT:      -8.6      4.235      8.703
REMARK  7 active torsions:
REMARK  status: ('A' for Active; 'I' for Inactive)
REMARK    1  A    between atoms: O_2  and  C_3 
REMARK    2  A    between atoms: C_6  and  C_7 
REMARK    3  A    between atoms: N_9  and  C_10 
REMARK    4  A    between atoms: C_10  and  C_11 
REMARK    5  A    between atoms: C_18  and  C_19 
REMARK       I    between atoms: C_19  and  N_20 
REMARK    6  A    between atoms: N_20  and  N_21 
REMARK       I    between atoms: N_21  and  C_22 
REMARK    7  A    between atoms: C_22  and  C_23 
ROOT
HETATM    1  C   UNL     1      41.130 -14.750   2.834  1.00  0.00     0.104 A 
HETATM    2  N   UNL     1      42.341 -15.286   3.082  1.00  0.00    -0.171 NA
HETATM    3  N   UNL     1      42.633 -16.011   1.994  1.00  0.00    -0.275 N 
HETATM    4  C   UNL     1      41.617 -16.051   1.088  1.00  0.00     0.132 A 
HETATM    5  C   UNL     1      40.623 -15.215   1.573  1.00  0.00     0.082 A 
ENDROOT
BRANCH   5   6
HETATM    6  C   UNL     1      39.394 -14.871   0.873  1.00  0.00     0.274 C 
HETATM    7  N   UNL     1      39.522 -14.783  -0.500  1.00  0.00    -0.263 N 
HETATM    8  H   UNL     1      40.406 -14.895  -0.988  1.00  0.00     0.190 HD
HETATM    9  O   UNL     1      38.320 -14.663   1.433  1.00  0.00    -0.266 OA
BRANCH   7  10
HETATM   10  N   UNL     1      38.451 -14.297  -1.260  1.00  0.00    -0.262 N 
HETATM   11  C   UNL     1      38.504 -14.453  -2.629  1.00  0.00     0.286 C 
HETATM   12  O   UNL     1      39.389 -15.121  -3.167  1.00  0.00    -0.264 OA
HETATM   13  H   UNL     1      37.836 -13.626  -0.804  1.00  0.00     0.190 HD
BRANCH  11  14
HETATM   14  C   UNL     1      37.471 -13.781  -3.384  1.00  0.00     0.102 A 
HETATM   15  N   UNL     1      37.233 -12.430  -3.226  1.00  0.00    -0.361 N 
HETATM   16  H   UNL     1      37.755 -11.839  -2.590  1.00  0.00     0.165 HD
HETATM   17  C   UNL     1      36.211 -12.030  -4.042  1.00  0.00     0.088 A 
HETATM   18  C   UNL     1      35.778 -13.128  -4.746  1.00  0.00     0.019 A 
HETATM   19  C   UNL     1      36.569 -14.230  -4.336  1.00  0.00     0.036 A 
ENDBRANCH  11  14
ENDBRANCH   7  10
ENDBRANCH   5   6
BRANCH   1  20
HETATM   20  C   UNL     1      40.549 -13.833   3.822  1.00  0.00    -0.004 A 
HETATM   21  C   UNL     1      40.403 -12.472   3.498  1.00  0.00     0.016 A 
HETATM   22  C   UNL     1      39.867 -11.558   4.413  1.00  0.00     0.037 A 
HETATM   23  C   UNL     1      39.465 -11.990   5.675  1.00  0.00     0.068 A 
HETATM   24  C   UNL     1      39.619 -13.336   6.011  1.00  0.00     0.037 A 
HETATM   25  C   UNL     1      40.163 -14.249   5.099  1.00  0.00     0.016 A 
BRANCH  23  26
HETATM   26  O   UNL     1      38.921 -11.208   6.656  1.00  0.00    -0.356 OA
HETATM   27  C   UNL     1      39.477 -11.338   7.959  1.00  0.00     0.210 C 
ENDBRANCH  23  26
ENDBRANCH   1  20
BRANCH   3  28
HETATM   28  C   UNL     1      43.943 -16.636   1.865  1.00  0.00     0.189 C 
BRANCH  28  29
HETATM   29  C   UNL     1      43.925 -18.052   2.389  1.00  0.00    -0.038 A 
HETATM   30  C   UNL     1      44.162 -18.307   3.749  1.00  0.00     0.009 A 
HETATM   31  C   UNL     1      44.169 -19.615   4.237  1.00  0.00     0.001 A 
HETATM   32  C   UNL     1      43.933 -20.681   3.374  1.00  0.00     0.000 A 
HETATM   33  C   UNL     1      43.689 -20.441   2.021  1.00  0.00     0.001 A 
HETATM   34  C   UNL     1      43.684 -19.134   1.530  1.00  0.00     0.009 A 
ENDBRANCH  28  29
ENDBRANCH   3  28
TORSDOF 7
ENDMDL
MODEL 9
REMARK VINA RESULT:      -8.6      3.563      6.927
REMARK  7 active torsions:
REMARK  status: ('A' for Active; 'I' for Inactive)
REMARK    1  A    between atoms: O_2  and  C_3 
REMARK    2  A    between atoms: C_6  and  C_7 
REMARK    3  A    between atoms: N_9  and  C_10 
REMARK    4  A    between atoms: C_10  and  C_11 
REMARK    5  A    between atoms: C_18  and  C_19 
REMARK       I    between atoms: C_19  and  N_20 
REMARK    6  A    between atoms: N_20  and  N_21 
REMARK       I    between atoms: N_21  and  C_22 
REMARK    7  A    between atoms: C_22  and  C_23 
ROOT
HETATM    1  C   UNL     1      42.034 -15.617   1.229  1.00  0.00     0.104 A 
HETATM    2  N   UNL     1      41.972 -15.565  -0.116  1.00  0.00    -0.171 NA
HETATM    3  N   UNL     1      41.494 -14.346  -0.399  1.00  0.00    -0.275 N 
HETATM    4  C   UNL     1      41.147 -13.637   0.710  1.00  0.00     0.132 A 
HETATM    5  C   UNL     1      41.511 -14.408   1.803  1.00  0.00     0.082 A 
ENDROOT
BRANCH   5   6
HETATM    6  C   UNL     1      41.423 -13.994   3.196  1.00  0.00     0.274 C 
HETATM    7  N   UNL     1      40.140 -13.979   3.708  1.00  0.00    -0.263 N 
HETATM    8  H   UNL     1      39.313 -14.185   3.155  1.00  0.00     0.190 HD
HETATM    9  O   UNL     1      42.393 -13.673   3.879  1.00  0.00    -0.266 OA
BRANCH   7  10
HETATM   10  N   UNL     1      39.916 -13.439   4.982  1.00  0.00    -0.262 N 
HETATM   11  C   UNL     1      39.493 -12.129   5.064  1.00  0.00     0.286 C 
HETATM   12  O   UNL     1      39.184 -11.487   4.058  1.00  0.00    -0.264 OA
HETATM   13  H   UNL     1      40.329 -13.936   5.767  1.00  0.00     0.190 HD
BRANCH  11  14
HETATM   14  C   UNL     1      39.450 -11.560   6.392  1.00  0.00     0.102 A 
HETATM   15  N   UNL     1      39.494 -10.195   6.589  1.00  0.00    -0.361 N 
HETATM   16  H   UNL     1      39.557  -9.521   5.835  1.00  0.00     0.165 HD
HETATM   17  C   UNL     1      39.443  -9.906   7.924  1.00  0.00     0.088 A 
HETATM   18  C   UNL     1      39.358 -11.093   8.611  1.00  0.00     0.019 A 
HETATM   19  C   UNL     1      39.361 -12.136   7.651  1.00  0.00     0.036 A 
ENDBRANCH  11  14
ENDBRANCH   7  10
ENDBRANCH   5   6
BRANCH   1  20
HETATM   20  C   UNL     1      42.590 -16.818   1.865  1.00  0.00    -0.004 A 
HETATM   21  C   UNL     1      43.574 -17.563   1.190  1.00  0.00     0.016 A 
HETATM   22  C   UNL     1      44.122 -18.723   1.750  1.00  0.00     0.037 A 
HETATM   23  C   UNL     1      43.695 -19.161   3.001  1.00  0.00     0.068 A 
HETATM   24  C   UNL     1      42.709 -18.437   3.673  1.00  0.00     0.037 A 
HETATM   25  C   UNL     1      42.153 -17.281   3.109  1.00  0.00     0.016 A 
BRANCH  23  26
HETATM   26  O   UNL     1      44.151 -20.267   3.663  1.00  0.00    -0.356 OA
HETATM   27  C   UNL     1      44.731 -20.052   4.944  1.00  0.00     0.210 C 
ENDBRANCH  23  26
ENDBRANCH   1  20
BRANCH   3  28
HETATM   28  C   UNL     1      41.416 -13.897  -1.783  1.00  0.00     0.189 C 
BRANCH  28  29
HETATM   29  C   UNL     1      40.213 -14.487  -2.480  1.00  0.00    -0.038 A 
HETATM   30  C   UNL     1      38.937 -13.936  -2.278  1.00  0.00     0.009 A 
HETATM   31  C   UNL     1      37.817 -14.489  -2.901  1.00  0.00     0.001 A 
HETATM   32  C   UNL     1      37.960 -15.593  -3.736  1.00  0.00     0.000 A 
HETATM   33  C   UNL     1      39.223 -16.147  -3.950  1.00  0.00     0.001 A 
HETATM   34  C   UNL     1      40.344 -15.597  -3.326  1.00  0.00     0.009 A 
ENDBRANCH  28  29
ENDBRANCH   3  28
TORSDOF 7
ENDMDL
MODEL 10
REMARK VINA RESULT:      -8.6      2.799      3.545
REMARK  7 active torsions:
REMARK  status: ('A' for Active; 'I' for Inactive)
REMARK    1  A    between atoms: O_2  and  C_3 
REMARK    2  A    between atoms: C_6  and  C_7 
REMARK    3  A    between atoms: N_9  and  C_10 
REMARK    4  A    between atoms: C_10  and  C_11 
REMARK    5  A    between atoms: C_18  and  C_19 
REMARK       I    between atoms: C_19  and  N_20 
REMARK    6  A    between atoms: N_20  and  N_21 
REMARK       I    between atoms: N_21  and  C_22 
REMARK    7  A    between atoms: C_22  and  C_23 
ROOT
HETATM    1  C   UNL     1      42.069 -16.250   2.270  1.00  0.00     0.104 A 
HETATM    2  N   UNL     1      42.528 -17.383   1.704  1.00  0.00    -0.171 NA
HETATM    3  N   UNL     1      43.507 -17.808   2.514  1.00  0.00    -0.275 N 
HETATM    4  C   UNL     1      43.772 -16.944   3.533  1.00  0.00     0.132 A 
HETATM    5  C   UNL     1      42.837 -15.925   3.439  1.00  0.00     0.082 A 
ENDROOT
BRANCH   5   6
HETATM    6  C   UNL     1      42.677 -14.835   4.391  1.00  0.00     0.274 C 
HETATM    7  N   UNL     1      41.700 -15.047   5.345  1.00  0.00    -0.263 N 
HETATM    8  H   UNL     1      41.099 -15.866   5.359  1.00  0.00     0.190 HD
HETATM    9  O   UNL     1      43.339 -13.799   4.367  1.00  0.00    -0.266 OA
BRANCH   7  10
HETATM   10  N   UNL     1      41.344 -14.001   6.207  1.00  0.00    -0.262 N 
HETATM   11  C   UNL     1      40.130 -13.378   6.002  1.00  0.00     0.286 C 
HETATM   12  O   UNL     1      39.316 -13.808   5.183  1.00  0.00    -0.264 OA
HETATM   13  H   UNL     1      42.095 -13.582   6.750  1.00  0.00     0.190 HD
BRANCH  11  14
HETATM   14  C   UNL     1      39.885 -12.195   6.794  1.00  0.00     0.102 A 
HETATM   15  N   UNL     1      39.357 -12.280   8.066  1.00  0.00    -0.361 N 
HETATM   16  H   UNL     1      39.115 -13.155   8.516  1.00  0.00     0.165 HD
HETATM   17  C   UNL     1      39.215 -11.032   8.606  1.00  0.00     0.088 A 
HETATM   18  C   UNL     1      39.660 -10.118   7.681  1.00  0.00     0.019 A 
HETATM   19  C   UNL     1      40.084 -10.846   6.541  1.00  0.00     0.036 A 
ENDBRANCH  11  14
ENDBRANCH   7  10
ENDBRANCH   5   6
BRANCH   1  20
HETATM   20  C   UNL     1      40.928 -15.564   1.649  1.00  0.00    -0.004 A 
HETATM   21  C   UNL     1      41.117 -14.864   0.444  1.00  0.00     0.016 A 
HETATM   22  C   UNL     1      40.063 -14.184  -0.177  1.00  0.00     0.037 A 
HETATM   23  C   UNL     1      38.795 -14.191   0.398  1.00  0.00     0.068 A 
HETATM   24  C   UNL     1      38.600 -14.871   1.602  1.00  0.00     0.037 A 
HETATM   25  C   UNL     1      39.657 -15.545   2.228  1.00  0.00     0.016 A 
BRANCH  23  26
HETATM   26  O   UNL     1      37.681 -13.578  -0.105  1.00  0.00    -0.356 OA
HETATM   27  C   UNL     1      37.152 -12.494   0.650  1.00  0.00     0.210 C 
ENDBRANCH  23  26
ENDBRANCH   1  20
BRANCH   3  28
HETATM   28  C   UNL     1      44.149 -19.093   2.271  1.00  0.00     0.189 C 
BRANCH  28  29
HETATM   29  C   UNL     1      44.267 -19.893   3.546  1.00  0.00    -0.038 A 
HETATM   30  C   UNL     1      44.687 -21.232   3.506  1.00  0.00     0.009 A 
HETATM   31  C   UNL     1      44.777 -21.985   4.678  1.00  0.00     0.001 A 
HETATM   32  C   UNL     1      44.455 -21.406   5.903  1.00  0.00     0.000 A 
HETATM   33  C   UNL     1      44.043 -20.075   5.958  1.00  0.00     0.001 A 
HETATM   34  C   UNL     1      43.949 -19.321   4.786  1.00  0.00     0.009 A 
ENDBRANCH  28  29
ENDBRANCH   3  28
TORSDOF 7
ENDMDL
