MODEL 1
REMARK VINA RESULT:      -8.8      0.000      0.000
REMARK  8 active torsions:
REMARK  status: ('A' for Active; 'I' for Inactive)
REMARK    1  A    between atoms: O_2  and  C_3 
REMARK    2  A    between atoms: C_5  and  C_6 
REMARK    3  A    between atoms: C_6  and  N_7 
REMARK    4  A    between atoms: C_16  and  C_17 
REMARK    5  A    between atoms: C_17  and  N_18 
REMARK    6  A    between atoms: C_22  and  O_23 
REMARK    7  A    between atoms: C_22  and  C_24 
REMARK    8  A    between atoms: C_34  and  O_35 
ROOT
HETATM    1  N   UNL     1      41.591 -16.950   1.178  1.00  0.00    -0.061 N 
HETATM    2  H   UNL     1      41.615 -17.960   0.997  1.00  0.00     0.280 HD
HETATM    3  C   UNL     1      40.356 -16.739   2.022  1.00  0.00     0.276 C 
HETATM    4  C   UNL     1      40.214 -15.369   2.613  1.00  0.00     0.002 A 
HETATM    5  C   UNL     1      40.058 -14.265   1.777  1.00  0.00     0.076 A 
HETATM    6  O   UNL     1      39.979 -14.424   0.422  1.00  0.00    -0.349 OA
HETATM    7  C   UNL     1      41.246 -14.779  -0.149  1.00  0.00     0.203 C 
HETATM    8  C   UNL     1      41.454 -16.302  -0.199  1.00  0.00     0.262 C 
HETATM    9  C   UNL     1      40.223 -15.168   4.007  1.00  0.00     0.020 A 
HETATM   10  C   UNL     1      40.098 -13.881   4.560  1.00  0.00    -0.032 A 
HETATM   11  C   UNL     1      39.941 -12.793   3.689  1.00  0.00     0.011 A 
HETATM   12  C   UNL     1      39.900 -12.988   2.305  1.00  0.00     0.038 A 
ENDROOT
BRANCH  10  13
HETATM   13  C   UNL     1      40.141 -13.680   6.057  1.00  0.00     0.273 C 
BRANCH  13  14
HETATM   14  N   UNL     1      40.249 -12.245   6.545  1.00  0.00    -0.067 N 
HETATM   15  H   UNL     1      39.826 -11.687   5.790  1.00  0.00     0.280 HD
HETATM   16  C   UNL     1      39.415 -11.969   7.771  1.00  0.00     0.238 C 
HETATM   17  C   UNL     1      39.461 -10.484   8.107  1.00  0.00     0.071 C 
HETATM   18  C   UNL     1      40.899  -9.958   8.299  1.00  0.00     0.089 C 
HETATM   19  C   UNL     1      41.667 -10.274   6.997  1.00  0.00     0.071 C 
HETATM   20  C   UNL     1      41.669 -11.761   6.688  1.00  0.00     0.238 C 
BRANCH  18  21
HETATM   21  O   UNL     1      40.796  -8.534   8.362  1.00  0.00    -0.385 OA
HETATM   22  H   UNL     1      41.680  -8.137   8.480  1.00  0.00     0.211 HD
ENDBRANCH  18  21
BRANCH  18  23
HETATM   23  C   UNL     1      41.625 -10.439   9.550  1.00  0.00    -0.006 A 
HETATM   24  C   UNL     1      40.970 -10.773  10.734  1.00  0.00     0.126 A 
HETATM   25  N   UNL     1      41.574 -11.263  11.838  1.00  0.00    -0.272 NA
HETATM   26  C   UNL     1      42.917 -11.359  11.817  1.00  0.00     0.116 A 
HETATM   27  C   UNL     1      43.681 -11.000  10.725  1.00  0.00     0.020 A 
HETATM   28  C   UNL     1      43.026 -10.535   9.585  1.00  0.00     0.013 A 
ENDBRANCH  18  23
ENDBRANCH  13  14
ENDBRANCH  10  13
BRANCH   1  29
HETATM   29  C   UNL     1      42.937 -16.641   1.827  1.00  0.00     0.276 C 
BRANCH  29  30
HETATM   30  C   UNL     1      43.501 -17.678   2.767  1.00  0.00     0.004 A 
HETATM   31  C   UNL     1      43.916 -18.932   2.290  1.00  0.00     0.048 A 
HETATM   32  C   UNL     1      44.400 -19.914   3.158  1.00  0.00     0.069 A 
HETATM   33  C   UNL     1      44.529 -19.626   4.513  1.00  0.00     0.039 A 
HETATM   34  C   UNL     1      44.168 -18.365   5.000  1.00  0.00     0.040 A 
HETATM   35  C   UNL     1      43.655 -17.392   4.139  1.00  0.00     0.076 A 
BRANCH  32  36
HETATM   36  O   UNL     1      44.683 -21.107   2.557  1.00  0.00    -0.356 OA
HETATM   37  C   UNL     1      43.697 -21.642   1.678  1.00  0.00     0.210 C 
ENDBRANCH  32  36
BRANCH  35  38
HETATM   38  O   UNL     1      43.234 -16.153   4.545  1.00  0.00    -0.355 OA
HETATM   39  C   UNL     1      43.577 -15.742   5.868  1.00  0.00     0.210 C 
ENDBRANCH  35  38
ENDBRANCH  29  30
ENDBRANCH   1  29
TORSDOF 8
ENDMDL
MODEL 2
REMARK VINA RESULT:      -8.8      2.298      9.015
REMARK  8 active torsions:
REMARK  status: ('A' for Active; 'I' for Inactive)
REMARK    1  A    between atoms: O_2  and  C_3 
REMARK    2  A    between atoms: C_5  and  C_6 
REMARK    3  A    between atoms: C_6  and  N_7 
REMARK    4  A    between atoms: C_16  and  C_17 
REMARK    5  A    between atoms: C_17  and  N_18 
REMARK    6  A    between atoms: C_22  and  O_23 
REMARK    7  A    between atoms: C_22  and  C_24 
REMARK    8  A    between atoms: C_34  and  O_35 
ROOT
HETATM    1  N   UNL     1      41.438  -9.465   7.771  1.00  0.00    -0.061 N 
HETATM    2  H   UNL     1      42.185  -8.780   7.930  1.00  0.00     0.280 HD
HETATM    3  C   UNL     1      41.787 -10.117   6.454  1.00  0.00     0.276 C 
HETATM    4  C   UNL     1      40.966 -11.322   6.101  1.00  0.00     0.002 A 
HETATM    5  C   UNL     1      39.596 -11.188   5.885  1.00  0.00     0.076 A 
HETATM    6  O   UNL     1      38.999  -9.961   5.939  1.00  0.00    -0.349 OA
HETATM    7  C   UNL     1      38.917  -9.465   7.282  1.00  0.00     0.203 C 
HETATM    8  C   UNL     1      40.155  -8.640   7.673  1.00  0.00     0.262 C 
HETATM    9  C   UNL     1      41.554 -12.594   5.970  1.00  0.00     0.020 A 
HETATM   10  C   UNL     1      40.781 -13.725   5.648  1.00  0.00    -0.032 A 
HETATM   11  C   UNL     1      39.406 -13.554   5.435  1.00  0.00     0.011 A 
HETATM   12  C   UNL     1      38.820 -12.288   5.534  1.00  0.00     0.038 A 
ENDROOT
BRANCH  10  13
HETATM   13  C   UNL     1      41.422 -15.090   5.542  1.00  0.00     0.273 C 
BRANCH  13  14
HETATM   14  N   UNL     1      41.821 -15.544   4.148  1.00  0.00    -0.067 N 
HETATM   15  H   UNL     1      41.464 -14.804   3.527  1.00  0.00     0.280 HD
HETATM   16  C   UNL     1      43.313 -15.570   3.935  1.00  0.00     0.238 C 
HETATM   17  C   UNL     1      43.625 -15.891   2.479  1.00  0.00     0.071 C 
HETATM   18  C   UNL     1      42.986 -17.215   2.007  1.00  0.00     0.089 C 
HETATM   19  C   UNL     1      41.467 -17.088   2.254  1.00  0.00     0.071 C 
HETATM   20  C   UNL     1      41.150 -16.823   3.714  1.00  0.00     0.238 C 
BRANCH  18  21
HETATM   21  O   UNL     1      43.156 -17.255   0.589  1.00  0.00    -0.385 OA
HETATM   22  H   UNL     1      44.070 -17.517   0.366  1.00  0.00     0.211 HD
ENDBRANCH  18  21
BRANCH  18  23
HETATM   23  C   UNL     1      43.580 -18.490   2.595  1.00  0.00    -0.006 A 
HETATM   24  C   UNL     1      44.172 -18.548   3.856  1.00  0.00     0.126 A 
HETATM   25  N   UNL     1      44.650 -19.672   4.433  1.00  0.00    -0.272 NA
HETATM   26  C   UNL     1      44.624 -20.802   3.700  1.00  0.00     0.116 A 
HETATM   27  C   UNL     1      44.119 -20.856   2.416  1.00  0.00     0.020 A 
HETATM   28  C   UNL     1      43.596 -19.688   1.862  1.00  0.00     0.013 A 
ENDBRANCH  18  23
ENDBRANCH  13  14
ENDBRANCH  10  13
BRANCH   1  29
HETATM   29  C   UNL     1      41.457 -10.352   9.012  1.00  0.00     0.276 C 
BRANCH  29  30
HETATM   30  C   UNL     1      42.808 -10.700   9.589  1.00  0.00     0.004 A 
HETATM   31  C   UNL     1      43.701 -11.522   8.883  1.00  0.00     0.048 A 
HETATM   32  C   UNL     1      44.936 -11.885   9.426  1.00  0.00     0.069 A 
HETATM   33  C   UNL     1      45.314 -11.375  10.664  1.00  0.00     0.039 A 
HETATM   34  C   UNL     1      44.459 -10.513  11.360  1.00  0.00     0.040 A 
HETATM   35  C   UNL     1      43.211 -10.174  10.833  1.00  0.00     0.076 A 
BRANCH  32  36
HETATM   36  O   UNL     1      45.656 -12.756   8.659  1.00  0.00    -0.356 OA
HETATM   37  C   UNL     1      44.930 -13.548   7.723  1.00  0.00     0.210 C 
ENDBRANCH  32  36
BRANCH  35  38
HETATM   38  O   UNL     1      42.299  -9.378  11.473  1.00  0.00    -0.355 OA
HETATM   39  C   UNL     1      41.743  -9.864  12.694  1.00  0.00     0.210 C 
ENDBRANCH  35  38
ENDBRANCH  29  30
ENDBRANCH   1  29
TORSDOF 8
ENDMDL
MODEL 3
REMARK VINA RESULT:      -8.8      0.844      2.282
REMARK  8 active torsions:
REMARK  status: ('A' for Active; 'I' for Inactive)
REMARK    1  A    between atoms: O_2  and  C_3 
REMARK    2  A    between atoms: C_5  and  C_6 
REMARK    3  A    between atoms: C_6  and  N_7 
REMARK    4  A    between atoms: C_16  and  C_17 
REMARK    5  A    between atoms: C_17  and  N_18 
REMARK    6  A    between atoms: C_22  and  O_23 
REMARK    7  A    between atoms: C_22  and  C_24 
REMARK    8  A    between atoms: C_34  and  O_35 
ROOT
HETATM    1  N   UNL     1      41.819 -16.972   1.549  1.00  0.00    -0.061 N 
HETATM    2  H   UNL     1      41.911 -17.984   1.410  1.00  0.00     0.280 HD
HETATM    3  C   UNL     1      40.530 -16.805   2.320  1.00  0.00     0.276 C 
HETATM    4  C   UNL     1      40.277 -15.424   2.848  1.00  0.00     0.002 A 
HETATM    5  C   UNL     1      40.102 -14.364   1.961  1.00  0.00     0.076 A 
HETATM    6  O   UNL     1      40.104 -14.577   0.612  1.00  0.00    -0.349 OA
HETATM    7  C   UNL     1      41.419 -14.875   0.121  1.00  0.00     0.203 C 
HETATM    8  C   UNL     1      41.717 -16.384   0.142  1.00  0.00     0.262 C 
HETATM    9  C   UNL     1      40.200 -15.173   4.231  1.00  0.00     0.020 A 
HETATM   10  C   UNL     1      39.971 -13.875   4.725  1.00  0.00    -0.032 A 
HETATM   11  C   UNL     1      39.798 -12.832   3.804  1.00  0.00     0.011 A 
HETATM   12  C   UNL     1      39.842 -13.080   2.429  1.00  0.00     0.038 A 
ENDROOT
BRANCH  10  13
HETATM   13  C   UNL     1      39.923 -13.617   6.213  1.00  0.00     0.273 C 
BRANCH  13  14
HETATM   14  N   UNL     1      40.144 -12.182   6.659  1.00  0.00    -0.067 N 
HETATM   15  H   UNL     1      39.728 -11.614   5.907  1.00  0.00     0.280 HD
HETATM   16  C   UNL     1      39.382 -11.822   7.909  1.00  0.00     0.238 C 
HETATM   17  C   UNL     1      39.537 -10.336   8.204  1.00  0.00     0.071 C 
HETATM   18  C   UNL     1      41.014  -9.902   8.326  1.00  0.00     0.089 C 
HETATM   19  C   UNL     1      41.705 -10.299   7.003  1.00  0.00     0.071 C 
HETATM   20  C   UNL     1      41.598 -11.789   6.733  1.00  0.00     0.238 C 
BRANCH  18  21
HETATM   21  O   UNL     1      41.007  -8.474   8.356  1.00  0.00    -0.385 OA
HETATM   22  H   UNL     1      41.840  -8.124   7.986  1.00  0.00     0.211 HD
ENDBRANCH  18  21
BRANCH  18  23
HETATM   23  C   UNL     1      41.758 -10.401   9.559  1.00  0.00    -0.006 A 
HETATM   24  C   UNL     1      41.134 -10.646  10.782  1.00  0.00     0.126 A 
HETATM   25  N   UNL     1      41.749 -11.148  11.874  1.00  0.00    -0.272 NA
HETATM   26  C   UNL     1      43.078 -11.350  11.798  1.00  0.00     0.116 A 
HETATM   27  C   UNL     1      43.816 -11.087  10.661  1.00  0.00     0.020 A 
HETATM   28  C   UNL     1      43.147 -10.606   9.535  1.00  0.00     0.013 A 
ENDBRANCH  18  23
ENDBRANCH  13  14
ENDBRANCH  10  13
BRANCH   1  29
HETATM   29  C   UNL     1      43.108 -16.559   2.252  1.00  0.00     0.276 C 
BRANCH  29  30
HETATM   30  C   UNL     1      43.531 -17.375   3.449  1.00  0.00     0.004 A 
HETATM   31  C   UNL     1      43.608 -16.794   4.725  1.00  0.00     0.048 A 
HETATM   32  C   UNL     1      44.040 -17.530   5.832  1.00  0.00     0.069 A 
HETATM   33  C   UNL     1      44.342 -18.879   5.680  1.00  0.00     0.039 A 
HETATM   34  C   UNL     1      44.222 -19.489   4.426  1.00  0.00     0.040 A 
HETATM   35  C   UNL     1      43.821 -18.748   3.312  1.00  0.00     0.076 A 
BRANCH  32  36
HETATM   36  O   UNL     1      44.144 -16.805   6.985  1.00  0.00    -0.356 OA
HETATM   37  C   UNL     1      43.227 -17.114   8.031  1.00  0.00     0.210 C 
ENDBRANCH  32  36
BRANCH  35  38
HETATM   38  O   UNL     1      43.726 -19.258   2.044  1.00  0.00    -0.355 OA
HETATM   39  C   UNL     1      43.605 -20.674   1.913  1.00  0.00     0.210 C 
ENDBRANCH  35  38
ENDBRANCH  29  30
ENDBRANCH   1  29
TORSDOF 8
ENDMDL
MODEL 4
REMARK VINA RESULT:      -8.7      2.310      9.839
REMARK  8 active torsions:
REMARK  status: ('A' for Active; 'I' for Inactive)
REMARK    1  A    between atoms: O_2  and  C_3 
REMARK    2  A    between atoms: C_5  and  C_6 
REMARK    3  A    between atoms: C_6  and  N_7 
REMARK    4  A    between atoms: C_16  and  C_17 
REMARK    5  A    between atoms: C_17  and  N_18 
REMARK    6  A    between atoms: C_22  and  O_23 
REMARK    7  A    between atoms: C_22  and  C_24 
REMARK    8  A    between atoms: C_34  and  O_35 
ROOT
HETATM    1  N   UNL     1      41.252  -9.683   8.215  1.00  0.00    -0.061 N 
HETATM    2  H   UNL     1      41.995  -9.059   8.548  1.00  0.00     0.280 HD
HETATM    3  C   UNL     1      41.775 -10.247   6.915  1.00  0.00     0.276 C 
HETATM    4  C   UNL     1      40.966 -11.368   6.334  1.00  0.00     0.002 A 
HETATM    5  C   UNL     1      39.656 -11.136   5.921  1.00  0.00     0.076 A 
HETATM    6  O   UNL     1      39.115  -9.883   5.990  1.00  0.00    -0.349 OA
HETATM    7  C   UNL     1      38.844  -9.493   7.343  1.00  0.00     0.203 C 
HETATM    8  C   UNL     1      40.041  -8.778   7.993  1.00  0.00     0.262 C 
HETATM    9  C   UNL     1      41.507 -12.659   6.183  1.00  0.00     0.020 A 
HETATM   10  C   UNL     1      40.744 -13.712   5.646  1.00  0.00    -0.032 A 
HETATM   11  C   UNL     1      39.429 -13.442   5.239  1.00  0.00     0.011 A 
HETATM   12  C   UNL     1      38.895 -12.155   5.357  1.00  0.00     0.038 A 
ENDROOT
BRANCH  10  13
HETATM   13  C   UNL     1      41.329 -15.100   5.520  1.00  0.00     0.273 C 
BRANCH  13  14
HETATM   14  N   UNL     1      41.726 -15.543   4.122  1.00  0.00    -0.067 N 
HETATM   15  H   UNL     1      41.350 -14.808   3.505  1.00  0.00     0.280 HD
HETATM   16  C   UNL     1      43.217 -15.541   3.897  1.00  0.00     0.238 C 
HETATM   17  C   UNL     1      43.523 -15.851   2.438  1.00  0.00     0.071 C 
HETATM   18  C   UNL     1      42.905 -17.186   1.968  1.00  0.00     0.089 C 
HETATM   19  C   UNL     1      41.386 -17.089   2.226  1.00  0.00     0.071 C 
HETATM   20  C   UNL     1      41.076 -16.833   3.690  1.00  0.00     0.238 C 
BRANCH  18  21
HETATM   21  O   UNL     1      43.065 -17.219   0.549  1.00  0.00    -0.385 OA
HETATM   22  H   UNL     1      43.921 -16.823   0.296  1.00  0.00     0.211 HD
ENDBRANCH  18  21
BRANCH  18  23
HETATM   23  C   UNL     1      43.528 -18.451   2.548  1.00  0.00    -0.006 A 
HETATM   24  C   UNL     1      44.131 -18.501   3.804  1.00  0.00     0.126 A 
HETATM   25  N   UNL     1      44.634 -19.617   4.374  1.00  0.00    -0.272 NA
HETATM   26  C   UNL     1      44.624 -20.745   3.639  1.00  0.00     0.116 A 
HETATM   27  C   UNL     1      44.111 -20.805   2.358  1.00  0.00     0.020 A 
HETATM   28  C   UNL     1      43.562 -19.646   1.811  1.00  0.00     0.013 A 
ENDBRANCH  18  23
ENDBRANCH  13  14
ENDBRANCH  10  13
BRANCH   1  29
HETATM   29  C   UNL     1      41.031 -10.667   9.360  1.00  0.00     0.276 C 
BRANCH  29  30
HETATM   30  C   UNL     1      41.853 -10.464  10.609  1.00  0.00     0.004 A 
HETATM   31  C   UNL     1      41.233 -10.291  11.858  1.00  0.00     0.048 A 
HETATM   32  C   UNL     1      41.983 -10.059  13.014  1.00  0.00     0.069 A 
HETATM   33  C   UNL     1      43.372 -10.058  12.938  1.00  0.00     0.039 A 
HETATM   34  C   UNL     1      44.010 -10.279  11.712  1.00  0.00     0.040 A 
HETATM   35  C   UNL     1      43.262 -10.480  10.550  1.00  0.00     0.076 A 
BRANCH  32  36
HETATM   36  O   UNL     1      41.236  -9.827  14.133  1.00  0.00    -0.356 OA
HETATM   37  C   UNL     1      41.943  -9.597  15.349  1.00  0.00     0.210 C 
ENDBRANCH  32  36
BRANCH  35  38
HETATM   38  O   UNL     1      43.808 -10.654   9.306  1.00  0.00    -0.355 OA
HETATM   39  C   UNL     1      44.678 -11.769   9.120  1.00  0.00     0.210 C 
ENDBRANCH  35  38
ENDBRANCH  29  30
ENDBRANCH   1  29
TORSDOF 8
ENDMDL
MODEL 5
REMARK VINA RESULT:      -8.6      4.431      8.618
REMARK  8 active torsions:
REMARK  status: ('A' for Active; 'I' for Inactive)
REMARK    1  A    between atoms: O_2  and  C_3 
REMARK    2  A    between atoms: C_5  and  C_6 
REMARK    3  A    between atoms: C_6  and  N_7 
REMARK    4  A    between atoms: C_16  and  C_17 
REMARK    5  A    between atoms: C_17  and  N_18 
REMARK    6  A    between atoms: C_22  and  O_23 
REMARK    7  A    between atoms: C_22  and  C_24 
REMARK    8  A    between atoms: C_34  and  O_35 
ROOT
HETATM    1  N   UNL     1      37.748 -11.902  -0.722  1.00  0.00    -0.061 N 
HETATM    2  H   UNL     1      37.013 -11.859  -1.436  1.00  0.00     0.280 HD
HETATM    3  C   UNL     1      37.243 -12.903   0.291  1.00  0.00     0.276 C 
HETATM    4  C   UNL     1      38.240 -13.317   1.331  1.00  0.00     0.002 A 
HETATM    5  C   UNL     1      38.735 -12.376   2.231  1.00  0.00     0.076 A 
HETATM    6  O   UNL     1      38.280 -11.087   2.212  1.00  0.00    -0.349 OA
HETATM    7  C   UNL     1      38.763 -10.367   1.069  1.00  0.00     0.203 C 
HETATM    8  C   UNL     1      37.818 -10.492  -0.138  1.00  0.00     0.262 C 
HETATM    9  C   UNL     1      38.685 -14.649   1.428  1.00  0.00     0.020 A 
HETATM   10  C   UNL     1      39.628 -15.034   2.399  1.00  0.00    -0.032 A 
HETATM   11  C   UNL     1      40.103 -14.061   3.290  1.00  0.00     0.011 A 
HETATM   12  C   UNL     1      39.642 -12.743   3.219  1.00  0.00     0.038 A 
ENDROOT
BRANCH  10  13
HETATM   13  C   UNL     1      40.119 -16.462   2.470  1.00  0.00     0.273 C 
BRANCH  13  14
HETATM   14  N   UNL     1      41.359 -16.710   3.311  1.00  0.00    -0.067 N 
HETATM   15  H   UNL     1      41.460 -15.855   3.876  1.00  0.00     0.280 HD
HETATM   16  C   UNL     1      41.191 -17.834   4.302  1.00  0.00     0.238 C 
HETATM   17  C   UNL     1      42.417 -17.922   5.202  1.00  0.00     0.071 C 
HETATM   18  C   UNL     1      43.731 -18.090   4.409  1.00  0.00     0.089 C 
HETATM   19  C   UNL     1      43.819 -16.894   3.435  1.00  0.00     0.071 C 
HETATM   20  C   UNL     1      42.624 -16.836   2.500  1.00  0.00     0.238 C 
BRANCH  18  21
HETATM   21  O   UNL     1      44.790 -17.912   5.351  1.00  0.00    -0.385 OA
HETATM   22  H   UNL     1      45.485 -17.340   4.974  1.00  0.00     0.211 HD
ENDBRANCH  18  21
BRANCH  18  23
HETATM   23  C   UNL     1      43.927 -19.435   3.719  1.00  0.00    -0.006 A 
HETATM   24  C   UNL     1      44.593 -20.508   4.309  1.00  0.00     0.126 A 
HETATM   25  N   UNL     1      44.730 -21.731   3.754  1.00  0.00    -0.272 NA
HETATM   26  C   UNL     1      44.256 -21.899   2.505  1.00  0.00     0.116 A 
HETATM   27  C   UNL     1      43.633 -20.893   1.794  1.00  0.00     0.020 A 
HETATM   28  C   UNL     1      43.471 -19.652   2.408  1.00  0.00     0.013 A 
ENDBRANCH  18  23
ENDBRANCH  13  14
ENDBRANCH  10  13
BRANCH   1  29
HETATM   29  C   UNL     1      39.013 -12.270  -1.490  1.00  0.00     0.276 C 
BRANCH  29  30
HETATM   30  C   UNL     1      38.943 -13.475  -2.396  1.00  0.00     0.004 A 
HETATM   31  C   UNL     1      37.791 -13.736  -3.157  1.00  0.00     0.048 A 
HETATM   32  C   UNL     1      37.699 -14.872  -3.965  1.00  0.00     0.069 A 
HETATM   33  C   UNL     1      38.790 -15.730  -4.065  1.00  0.00     0.039 A 
HETATM   34  C   UNL     1      39.964 -15.460  -3.353  1.00  0.00     0.040 A 
HETATM   35  C   UNL     1      40.048 -14.342  -2.521  1.00  0.00     0.076 A 
BRANCH  32  36
HETATM   36  O   UNL     1      36.489 -15.032  -4.576  1.00  0.00    -0.356 OA
HETATM   37  C   UNL     1      35.808 -13.850  -4.988  1.00  0.00     0.210 C 
ENDBRANCH  32  36
BRANCH  35  38
HETATM   38  O   UNL     1      41.141 -14.035  -1.755  1.00  0.00    -0.355 OA
HETATM   39  C   UNL     1      41.522 -14.971  -0.747  1.00  0.00     0.210 C 
ENDBRANCH  35  38
ENDBRANCH  29  30
ENDBRANCH   1  29
TORSDOF 8
ENDMDL
MODEL 6
REMARK VINA RESULT:      -8.5      2.870      8.723
REMARK  8 active torsions:
REMARK  status: ('A' for Active; 'I' for Inactive)
REMARK    1  A    between atoms: O_2  and  C_3 
REMARK    2  A    between atoms: C_5  and  C_6 
REMARK    3  A    between atoms: C_6  and  N_7 
REMARK    4  A    between atoms: C_16  and  C_17 
REMARK    5  A    between atoms: C_17  and  N_18 
REMARK    6  A    between atoms: C_22  and  O_23 
REMARK    7  A    between atoms: C_22  and  C_24 
REMARK    8  A    between atoms: C_34  and  O_35 
ROOT
HETATM    1  N   UNL     1      41.188  -9.141   8.069  1.00  0.00    -0.061 N 
HETATM    2  H   UNL     1      41.873  -8.480   8.449  1.00  0.00     0.280 HD
HETATM    3  C   UNL     1      41.603  -9.342   6.630  1.00  0.00     0.276 C 
HETATM    4  C   UNL     1      40.890 -10.446   5.908  1.00  0.00     0.002 A 
HETATM    5  C   UNL     1      39.516 -10.360   5.694  1.00  0.00     0.076 A 
HETATM    6  O   UNL     1      38.817  -9.254   6.089  1.00  0.00    -0.349 OA
HETATM    7  C   UNL     1      38.681  -9.189   7.515  1.00  0.00     0.203 C 
HETATM    8  C   UNL     1      39.842  -8.426   8.175  1.00  0.00     0.262 C 
HETATM    9  C   UNL     1      41.583 -11.573   5.426  1.00  0.00     0.020 A 
HETATM   10  C   UNL     1      40.910 -12.611   4.756  1.00  0.00    -0.032 A 
HETATM   11  C   UNL     1      39.528 -12.491   4.557  1.00  0.00     0.011 A 
HETATM   12  C   UNL     1      38.838 -11.361   5.006  1.00  0.00     0.038 A 
ENDROOT
BRANCH  10  13
HETATM   13  C   UNL     1      41.664 -13.829   4.273  1.00  0.00     0.273 C 
BRANCH  13  14
HETATM   14  N   UNL     1      41.949 -14.904   5.307  1.00  0.00    -0.067 N 
HETATM   15  H   UNL     1      41.669 -14.477   6.202  1.00  0.00     0.280 HD
HETATM   16  C   UNL     1      41.080 -16.126   5.151  1.00  0.00     0.238 C 
HETATM   17  C   UNL     1      41.321 -17.088   6.307  1.00  0.00     0.071 C 
HETATM   18  C   UNL     1      42.805 -17.492   6.450  1.00  0.00     0.089 C 
HETATM   19  C   UNL     1      43.608 -16.184   6.616  1.00  0.00     0.071 C 
HETATM   20  C   UNL     1      43.412 -15.245   5.438  1.00  0.00     0.238 C 
BRANCH  18  21
HETATM   21  O   UNL     1      42.910 -18.182   7.696  1.00  0.00    -0.385 OA
HETATM   22  H   UNL     1      42.249 -18.900   7.741  1.00  0.00     0.211 HD
ENDBRANCH  18  21
BRANCH  18  23
HETATM   23  C   UNL     1      43.359 -18.396   5.355  1.00  0.00    -0.006 A 
HETATM   24  C   UNL     1      42.780 -18.513   4.092  1.00  0.00     0.126 A 
HETATM   25  N   UNL     1      43.280 -19.254   3.080  1.00  0.00    -0.272 NA
HETATM   26  C   UNL     1      44.374 -19.996   3.338  1.00  0.00     0.116 A 
HETATM   27  C   UNL     1      45.001 -20.010   4.569  1.00  0.00     0.020 A 
HETATM   28  C   UNL     1      44.485 -19.205   5.583  1.00  0.00     0.013 A 
ENDBRANCH  18  23
ENDBRANCH  13  14
ENDBRANCH  10  13
BRANCH   1  29
HETATM   29  C   UNL     1      41.268 -10.355   8.990  1.00  0.00     0.276 C 
BRANCH  29  30
HETATM   30  C   UNL     1      42.577 -10.591   9.704  1.00  0.00     0.004 A 
HETATM   31  C   UNL     1      43.579 -11.386   9.123  1.00  0.00     0.048 A 
HETATM   32  C   UNL     1      44.777 -11.647   9.794  1.00  0.00     0.069 A 
HETATM   33  C   UNL     1      45.008 -11.060  11.034  1.00  0.00     0.039 A 
HETATM   34  C   UNL     1      44.042 -10.224  11.606  1.00  0.00     0.040 A 
HETATM   35  C   UNL     1      42.831  -9.987  10.952  1.00  0.00     0.076 A 
BRANCH  32  36
HETATM   36  O   UNL     1      45.615 -12.503   9.139  1.00  0.00    -0.356 OA
HETATM   37  C   UNL     1      45.079 -13.209   8.023  1.00  0.00     0.210 C 
ENDBRANCH  32  36
BRANCH  35  38
HETATM   38  O   UNL     1      41.818  -9.222  11.466  1.00  0.00    -0.355 OA
HETATM   39  C   UNL     1      41.165  -9.700  12.641  1.00  0.00     0.210 C 
ENDBRANCH  35  38
ENDBRANCH  29  30
ENDBRANCH   1  29
TORSDOF 8
ENDMDL
MODEL 7
REMARK VINA RESULT:      -8.5      3.811      8.338
REMARK  8 active torsions:
REMARK  status: ('A' for Active; 'I' for Inactive)
REMARK    1  A    between atoms: O_2  and  C_3 
REMARK    2  A    between atoms: C_5  and  C_6 
REMARK    3  A    between atoms: C_6  and  N_7 
REMARK    4  A    between atoms: C_16  and  C_17 
REMARK    5  A    between atoms: C_17  and  N_18 
REMARK    6  A    between atoms: C_22  and  O_23 
REMARK    7  A    between atoms: C_22  and  C_24 
REMARK    8  A    between atoms: C_34  and  O_35 
ROOT
HETATM    1  N   UNL     1      42.770 -15.969   4.896  1.00  0.00    -0.061 N 
HETATM    2  H   UNL     1      43.661 -16.414   5.139  1.00  0.00     0.280 HD
HETATM    3  C   UNL     1      43.124 -14.529   4.607  1.00  0.00     0.276 C 
HETATM    4  C   UNL     1      42.022 -13.708   4.007  1.00  0.00     0.002 A 
HETATM    5  C   UNL     1      40.859 -13.470   4.736  1.00  0.00     0.076 A 
HETATM    6  O   UNL     1      40.734 -13.931   6.017  1.00  0.00    -0.349 OA
HETATM    7  C   UNL     1      40.563 -15.354   6.057  1.00  0.00     0.203 C 
HETATM    8  C   UNL     1      41.906 -16.097   6.150  1.00  0.00     0.262 C 
HETATM    9  C   UNL     1      42.138 -13.158   2.716  1.00  0.00     0.020 A 
HETATM   10  C   UNL     1      41.099 -12.396   2.152  1.00  0.00    -0.032 A 
HETATM   11  C   UNL     1      39.944 -12.174   2.915  1.00  0.00     0.011 A 
HETATM   12  C   UNL     1      39.834 -12.691   4.209  1.00  0.00     0.038 A 
ENDROOT
BRANCH  10  13
HETATM   13  C   UNL     1      41.228 -11.839   0.752  1.00  0.00     0.273 C 
BRANCH  13  14
HETATM   14  N   UNL     1      41.559 -12.835  -0.345  1.00  0.00    -0.067 N 
HETATM   15  H   UNL     1      42.560 -13.037  -0.213  1.00  0.00     0.280 HD
HETATM   16  C   UNL     1      40.852 -14.157  -0.183  1.00  0.00     0.238 C 
HETATM   17  C   UNL     1      41.348 -15.144  -1.231  1.00  0.00     0.071 C 
HETATM   18  C   UNL     1      41.187 -14.617  -2.673  1.00  0.00     0.089 C 
HETATM   19  C   UNL     1      41.948 -13.275  -2.744  1.00  0.00     0.071 C 
HETATM   20  C   UNL     1      41.420 -12.270  -1.737  1.00  0.00     0.238 C 
BRANCH  18  21
HETATM   21  O   UNL     1      41.905 -15.525  -3.511  1.00  0.00    -0.385 OA
HETATM   22  H   UNL     1      41.454 -15.618  -4.372  1.00  0.00     0.211 HD
ENDBRANCH  18  21
BRANCH  18  23
HETATM   23  C   UNL     1      39.757 -14.518  -3.193  1.00  0.00    -0.006 A 
HETATM   24  C   UNL     1      39.113 -15.556  -3.864  1.00  0.00     0.126 A 
HETATM   25  N   UNL     1      37.829 -15.526  -4.280  1.00  0.00    -0.272 NA
HETATM   26  C   UNL     1      37.148 -14.377  -4.104  1.00  0.00     0.116 A 
HETATM   27  C   UNL     1      37.699 -13.260  -3.508  1.00  0.00     0.020 A 
HETATM   28  C   UNL     1      39.014 -13.334  -3.053  1.00  0.00     0.013 A 
ENDBRANCH  18  23
ENDBRANCH  13  14
ENDBRANCH  10  13
BRANCH   1  29
HETATM   29  C   UNL     1      42.226 -16.797   3.736  1.00  0.00     0.276 C 
BRANCH  29  30
HETATM   30  C   UNL     1      42.972 -18.060   3.384  1.00  0.00     0.004 A 
HETATM   31  C   UNL     1      43.615 -18.816   4.377  1.00  0.00     0.048 A 
HETATM   32  C   UNL     1      44.345 -19.964   4.056  1.00  0.00     0.069 A 
HETATM   33  C   UNL     1      44.387 -20.399   2.736  1.00  0.00     0.039 A 
HETATM   34  C   UNL     1      43.711 -19.688   1.739  1.00  0.00     0.040 A 
HETATM   35  C   UNL     1      43.006 -18.523   2.052  1.00  0.00     0.076 A 
BRANCH  32  36
HETATM   36  O   UNL     1      44.983 -20.542   5.116  1.00  0.00    -0.356 OA
HETATM   37  C   UNL     1      44.856 -21.954   5.259  1.00  0.00     0.210 C 
ENDBRANCH  32  36
BRANCH  35  38
HETATM   38  O   UNL     1      42.360 -17.745   1.129  1.00  0.00    -0.355 OA
HETATM   39  C   UNL     1      40.951 -17.923   0.989  1.00  0.00     0.210 C 
ENDBRANCH  35  38
ENDBRANCH  29  30
ENDBRANCH   1  29
TORSDOF 8
ENDMDL
MODEL 8
REMARK VINA RESULT:      -8.4      3.479      8.368
REMARK  8 active torsions:
REMARK  status: ('A' for Active; 'I' for Inactive)
REMARK    1  A    between atoms: O_2  and  C_3 
REMARK    2  A    between atoms: C_5  and  C_6 
REMARK    3  A    between atoms: C_6  and  N_7 
REMARK    4  A    between atoms: C_16  and  C_17 
REMARK    5  A    between atoms: C_17  and  N_18 
REMARK    6  A    between atoms: C_22  and  O_23 
REMARK    7  A    between atoms: C_22  and  C_24 
REMARK    8  A    between atoms: C_34  and  O_35 
ROOT
HETATM    1  N   UNL     1      39.454 -10.565   1.859  1.00  0.00    -0.061 N 
HETATM    2  H   UNL     1      39.181 -10.390   0.886  1.00  0.00     0.280 HD
HETATM    3  C   UNL     1      38.758 -11.854   2.228  1.00  0.00     0.276 C 
HETATM    4  C   UNL     1      39.175 -12.452   3.539  1.00  0.00     0.002 A 
HETATM    5  C   UNL     1      38.928 -11.763   4.724  1.00  0.00     0.076 A 
HETATM    6  O   UNL     1      38.262 -10.570   4.711  1.00  0.00    -0.349 OA
HETATM    7  C   UNL     1      39.068  -9.514   4.171  1.00  0.00     0.203 C 
HETATM    8  C   UNL     1      38.902  -9.378   2.648  1.00  0.00     0.262 C 
HETATM    9  C   UNL     1      39.804 -13.710   3.603  1.00  0.00     0.020 A 
HETATM   10  C   UNL     1      40.201 -14.265   4.833  1.00  0.00    -0.032 A 
HETATM   11  C   UNL     1      39.936 -13.545   6.006  1.00  0.00     0.011 A 
HETATM   12  C   UNL     1      39.284 -12.309   5.953  1.00  0.00     0.038 A 
ENDROOT
BRANCH  10  13
HETATM   13  C   UNL     1      40.905 -15.602   4.881  1.00  0.00     0.273 C 
BRANCH  13  14
HETATM   14  N   UNL     1      41.600 -16.048   3.607  1.00  0.00    -0.067 N 
HETATM   15  H   UNL     1      41.349 -15.328   2.914  1.00  0.00     0.280 HD
HETATM   16  C   UNL     1      43.104 -16.012   3.705  1.00  0.00     0.238 C 
HETATM   17  C   UNL     1      43.722 -16.328   2.349  1.00  0.00     0.071 C 
HETATM   18  C   UNL     1      43.248 -17.681   1.776  1.00  0.00     0.089 C 
HETATM   19  C   UNL     1      41.707 -17.619   1.703  1.00  0.00     0.071 C 
HETATM   20  C   UNL     1      41.086 -17.357   3.064  1.00  0.00     0.238 C 
BRANCH  18  21
HETATM   21  O   UNL     1      43.708 -17.723   0.424  1.00  0.00    -0.385 OA
HETATM   22  H   UNL     1      44.404 -17.053   0.283  1.00  0.00     0.211 HD
ENDBRANCH  18  21
BRANCH  18  23
HETATM   23  C   UNL     1      43.760 -18.925   2.493  1.00  0.00    -0.006 A 
HETATM   24  C   UNL     1      44.283 -18.904   3.785  1.00  0.00     0.126 A 
HETATM   25  N   UNL     1      44.686 -19.994   4.473  1.00  0.00    -0.272 NA
HETATM   26  C   UNL     1      44.653 -21.177   3.830  1.00  0.00     0.116 A 
HETATM   27  C   UNL     1      44.214 -21.315   2.528  1.00  0.00     0.020 A 
HETATM   28  C   UNL     1      43.767 -20.178   1.857  1.00  0.00     0.013 A 
ENDBRANCH  18  23
ENDBRANCH  13  14
ENDBRANCH  10  13
BRANCH   1  29
HETATM   29  C   UNL     1      40.979 -10.580   1.838  1.00  0.00     0.276 C 
BRANCH  29  30
HETATM   30  C   UNL     1      41.645 -10.956   0.537  1.00  0.00     0.004 A 
HETATM   31  C   UNL     1      41.497 -12.245  -0.001  1.00  0.00     0.048 A 
HETATM   32  C   UNL     1      42.145 -12.616  -1.183  1.00  0.00     0.069 A 
HETATM   33  C   UNL     1      42.901 -11.674  -1.872  1.00  0.00     0.039 A 
HETATM   34  C   UNL     1      43.020 -10.370  -1.379  1.00  0.00     0.040 A 
HETATM   35  C   UNL     1      42.400 -10.005  -0.182  1.00  0.00     0.076 A 
BRANCH  32  36
HETATM   36  O   UNL     1      41.972 -13.924  -1.533  1.00  0.00    -0.356 OA
HETATM   37  C   UNL     1      41.351 -14.776  -0.575  1.00  0.00     0.210 C 
ENDBRANCH  32  36
BRANCH  35  38
HETATM   38  O   UNL     1      42.506  -8.766   0.392  1.00  0.00    -0.355 OA
HETATM   39  C   UNL     1      43.649  -7.981   0.054  1.00  0.00     0.210 C 
ENDBRANCH  35  38
ENDBRANCH  29  30
ENDBRANCH   1  29
TORSDOF 8
ENDMDL
MODEL 9
REMARK VINA RESULT:      -8.4      2.927      9.475
REMARK  8 active torsions:
REMARK  status: ('A' for Active; 'I' for Inactive)
REMARK    1  A    between atoms: O_2  and  C_3 
REMARK    2  A    between atoms: C_5  and  C_6 
REMARK    3  A    between atoms: C_6  and  N_7 
REMARK    4  A    between atoms: C_16  and  C_17 
REMARK    5  A    between atoms: C_17  and  N_18 
REMARK    6  A    between atoms: C_22  and  O_23 
REMARK    7  A    between atoms: C_22  and  C_24 
REMARK    8  A    between atoms: C_34  and  O_35 
ROOT
HETATM    1  N   UNL     1      41.158  -9.170   8.368  1.00  0.00    -0.061 N 
HETATM    2  H   UNL     1      41.842  -8.530   8.787  1.00  0.00     0.280 HD
HETATM    3  C   UNL     1      41.616  -9.344   6.939  1.00  0.00     0.276 C 
HETATM    4  C   UNL     1      40.907 -10.417   6.168  1.00  0.00     0.002 A 
HETATM    5  C   UNL     1      39.543 -10.300   5.911  1.00  0.00     0.076 A 
HETATM    6  O   UNL     1      38.852  -9.190   6.309  1.00  0.00    -0.349 OA
HETATM    7  C   UNL     1      38.670  -9.156   7.732  1.00  0.00     0.203 C 
HETATM    8  C   UNL     1      39.822  -8.432   8.448  1.00  0.00     0.262 C 
HETATM    9  C   UNL     1      41.595 -11.545   5.681  1.00  0.00     0.020 A 
HETATM   10  C   UNL     1      40.926 -12.554   4.965  1.00  0.00    -0.032 A 
HETATM   11  C   UNL     1      39.553 -12.403   4.723  1.00  0.00     0.011 A 
HETATM   12  C   UNL     1      38.870 -11.270   5.177  1.00  0.00     0.038 A 
ENDROOT
BRANCH  10  13
HETATM   13  C   UNL     1      41.673 -13.774   4.477  1.00  0.00     0.273 C 
BRANCH  13  14
HETATM   14  N   UNL     1      41.995 -14.832   5.518  1.00  0.00    -0.067 N 
HETATM   15  H   UNL     1      41.745 -14.392   6.415  1.00  0.00     0.280 HD
HETATM   16  C   UNL     1      41.123 -16.058   5.410  1.00  0.00     0.238 C 
HETATM   17  C   UNL     1      41.406 -17.001   6.572  1.00  0.00     0.071 C 
HETATM   18  C   UNL     1      42.894 -17.401   6.671  1.00  0.00     0.089 C 
HETATM   19  C   UNL     1      43.700 -16.089   6.789  1.00  0.00     0.071 C 
HETATM   20  C   UNL     1      43.462 -15.170   5.604  1.00  0.00     0.238 C 
BRANCH  18  21
HETATM   21  O   UNL     1      43.043 -18.072   7.923  1.00  0.00    -0.385 OA
HETATM   22  H   UNL     1      42.363 -18.767   8.017  1.00  0.00     0.211 HD
ENDBRANCH  18  21
BRANCH  18  23
HETATM   23  C   UNL     1      43.412 -18.322   5.572  1.00  0.00    -0.006 A 
HETATM   24  C   UNL     1      42.800 -18.446   4.326  1.00  0.00     0.126 A 
HETATM   25  N   UNL     1      43.268 -19.202   3.309  1.00  0.00    -0.272 NA
HETATM   26  C   UNL     1      44.361 -19.951   3.548  1.00  0.00     0.116 A 
HETATM   27  C   UNL     1      45.018 -19.960   4.762  1.00  0.00     0.020 A 
HETATM   28  C   UNL     1      44.535 -19.139   5.780  1.00  0.00     0.013 A 
ENDBRANCH  18  23
ENDBRANCH  13  14
ENDBRANCH  10  13
BRANCH   1  29
HETATM   29  C   UNL     1      41.185 -10.406   9.262  1.00  0.00     0.276 C 
BRANCH  29  30
HETATM   30  C   UNL     1      41.932 -10.293  10.568  1.00  0.00     0.004 A 
HETATM   31  C   UNL     1      41.241 -10.123  11.780  1.00  0.00     0.048 A 
HETATM   32  C   UNL     1      41.925  -9.975  12.990  1.00  0.00     0.069 A 
HETATM   33  C   UNL     1      43.313 -10.055  13.004  1.00  0.00     0.039 A 
HETATM   34  C   UNL     1      44.017 -10.274  11.814  1.00  0.00     0.040 A 
HETATM   35  C   UNL     1      43.338 -10.392  10.600  1.00  0.00     0.076 A 
BRANCH  32  36
HETATM   36  O   UNL     1      41.120  -9.734  14.066  1.00  0.00    -0.356 OA
HETATM   37  C   UNL     1      41.727  -9.779  15.354  1.00  0.00     0.210 C 
ENDBRANCH  32  36
BRANCH  35  38
HETATM   38  O   UNL     1      43.955 -10.558   9.388  1.00  0.00    -0.355 OA
HETATM   39  C   UNL     1      45.082 -11.431   9.339  1.00  0.00     0.210 C 
ENDBRANCH  35  38
ENDBRANCH  29  30
ENDBRANCH   1  29
TORSDOF 8
ENDMDL
MODEL 10
REMARK VINA RESULT:      -8.3      3.652      7.604
REMARK  8 active torsions:
REMARK  status: ('A' for Active; 'I' for Inactive)
REMARK    1  A    between atoms: O_2  and  C_3 
REMARK    2  A    between atoms: C_5  and  C_6 
REMARK    3  A    between atoms: C_6  and  N_7 
REMARK    4  A    between atoms: C_16  and  C_17 
REMARK    5  A    between atoms: C_17  and  N_18 
REMARK    6  A    between atoms: C_22  and  O_23 
REMARK    7  A    between atoms: C_22  and  C_24 
REMARK    8  A    between atoms: C_34  and  O_35 
ROOT
HETATM    1  N   UNL     1      43.531 -15.025   4.541  1.00  0.00    -0.061 N 
HETATM    2  H   UNL     1      44.478 -15.389   4.692  1.00  0.00     0.280 HD
HETATM    3  C   UNL     1      43.621 -14.233   3.257  1.00  0.00     0.276 C 
HETATM    4  C   UNL     1      42.309 -13.778   2.694  1.00  0.00     0.002 A 
HETATM    5  C   UNL     1      41.521 -12.880   3.410  1.00  0.00     0.076 A 
HETATM    6  O   UNL     1      41.957 -12.365   4.599  1.00  0.00    -0.349 OA
HETATM    7  C   UNL     1      41.932 -13.345   5.646  1.00  0.00     0.203 C 
HETATM    8  C   UNL     1      43.256 -14.122   5.744  1.00  0.00     0.262 C 
HETATM    9  C   UNL     1      41.853 -14.232   1.442  1.00  0.00     0.020 A 
HETATM   10  C   UNL     1      40.617 -13.811   0.918  1.00  0.00    -0.032 A 
HETATM   11  C   UNL     1      39.851 -12.905   1.665  1.00  0.00     0.011 A 
HETATM   12  C   UNL     1      40.311 -12.425   2.895  1.00  0.00     0.038 A 
ENDROOT
BRANCH  10  13
HETATM   13  C   UNL     1      40.128 -14.333  -0.414  1.00  0.00     0.273 C 
BRANCH  13  14
HETATM   14  N   UNL     1      40.778 -13.741  -1.652  1.00  0.00    -0.067 N 
HETATM   15  H   UNL     1      40.821 -14.526  -2.318  1.00  0.00     0.280 HD
HETATM   16  C   UNL     1      39.933 -12.687  -2.322  1.00  0.00     0.238 C 
HETATM   17  C   UNL     1      40.583 -12.252  -3.629  1.00  0.00     0.071 C 
HETATM   18  C   UNL     1      42.029 -11.749  -3.440  1.00  0.00     0.089 C 
HETATM   19  C   UNL     1      42.814 -12.893  -2.763  1.00  0.00     0.071 C 
HETATM   20  C   UNL     1      42.200 -13.291  -1.433  1.00  0.00     0.238 C 
BRANCH  18  21
HETATM   21  O   UNL     1      42.578 -11.614  -4.752  1.00  0.00    -0.385 OA
HETATM   22  H   UNL     1      42.368 -10.733  -5.117  1.00  0.00     0.211 HD
ENDBRANCH  18  21
BRANCH  18  23
HETATM   23  C   UNL     1      42.183 -10.414  -2.720  1.00  0.00    -0.006 A 
HETATM   24  C   UNL     1      41.223  -9.404  -2.765  1.00  0.00     0.126 A 
HETATM   25  N   UNL     1      41.297  -8.238  -2.089  1.00  0.00    -0.272 NA
HETATM   26  C   UNL     1      42.420  -8.002  -1.385  1.00  0.00     0.116 A 
HETATM   27  C   UNL     1      43.467  -8.899  -1.314  1.00  0.00     0.020 A 
HETATM   28  C   UNL     1      43.345 -10.112  -1.990  1.00  0.00     0.013 A 
ENDBRANCH  18  23
ENDBRANCH  13  14
ENDBRANCH  10  13
BRANCH   1  29
HETATM   29  C   UNL     1      42.636 -16.260   4.534  1.00  0.00     0.276 C 
BRANCH  29  30
HETATM   30  C   UNL     1      43.315 -17.600   4.384  1.00  0.00     0.004 A 
HETATM   31  C   UNL     1      43.207 -18.331   3.190  1.00  0.00     0.048 A 
HETATM   32  C   UNL     1      43.796 -19.592   3.056  1.00  0.00     0.069 A 
HETATM   33  C   UNL     1      44.553 -20.107   4.103  1.00  0.00     0.039 A 
HETATM   34  C   UNL     1      44.715 -19.371   5.282  1.00  0.00     0.040 A 
HETATM   35  C   UNL     1      44.102 -18.125   5.430  1.00  0.00     0.076 A 
BRANCH  32  36
HETATM   36  O   UNL     1      43.532 -20.214   1.870  1.00  0.00    -0.356 OA
HETATM   37  C   UNL     1      43.884 -21.591   1.766  1.00  0.00     0.210 C 
ENDBRANCH  32  36
BRANCH  35  38
HETATM   38  O   UNL     1      44.171 -17.365   6.568  1.00  0.00    -0.355 OA
HETATM   39  C   UNL     1      43.548 -17.883   7.743  1.00  0.00     0.210 C 
ENDBRANCH  35  38
ENDBRANCH  29  30
ENDBRANCH   1  29
TORSDOF 8
ENDMDL
