MODEL 1
REMARK VINA RESULT:      -7.7      0.000      0.000
REMARK  5 active torsions:
REMARK  status: ('A' for Active; 'I' for Inactive)
REMARK    1  A    between atoms: C_3  and  N_4 
REMARK       I    between atoms: N_4  and  C_5 
REMARK       I    between atoms: C_5  and  N_6 
REMARK    2  A    between atoms: N_6  and  C_7 
REMARK    3  A    between atoms: C_7  and  C_8 
REMARK    4  A    between atoms: C_8  and  O_9 
REMARK    5  A    between atoms: O_9  and  C_10 
ROOT
HETATM    1  N   UNL     1      40.360 -16.478   2.962  1.00  0.00    -0.307 N 
HETATM    2  C   UNL     1      41.063 -16.005   4.049  1.00  0.00     0.320 C 
HETATM    3  N   UNL     1      40.857 -16.809   5.147  1.00  0.00    -0.340 N 
HETATM    4  O   UNL     1      41.808 -15.036   4.060  1.00  0.00    -0.247 OA
HETATM    5  H   UNL     1      40.410 -17.486   2.894  1.00  0.00     0.170 HD
HETATM    6  H   UNL     1      40.008 -17.355   5.150  1.00  0.00     0.164 HD
ENDROOT
BRANCH   3   7
HETATM    7  C   UNL     1      41.517 -16.563   6.418  1.00  0.00     0.156 C 
BRANCH   7   8
HETATM    8  C   UNL     1      42.624 -17.578   6.770  1.00  0.00     0.142 C 
HETATM    9  C   UNL     1      43.278 -17.285   8.120  1.00  0.00     0.042 C 
BRANCH   8  10
HETATM   10  O   UNL     1      43.676 -17.471   5.795  1.00  0.00    -0.345 OA
BRANCH  10  11
HETATM   11  C   UNL     1      44.000 -18.562   5.041  1.00  0.00     0.070 A 
HETATM   12  C   UNL     1      44.413 -19.804   5.519  1.00  0.00     0.060 A 
HETATM   13  C   UNL     1      44.717 -20.828   4.617  1.00  0.00     0.036 A 
HETATM   14 CL   UNL     1      45.240 -22.356   5.213  1.00  0.00    -0.084 Cl
HETATM   15  C   UNL     1      44.600 -20.629   3.242  1.00  0.00     0.024 A 
HETATM   16  C   UNL     1      44.168 -19.394   2.763  1.00  0.00     0.004 A 
HETATM   17  C   UNL     1      43.869 -18.369   3.661  1.00  0.00     0.037 A 
ENDBRANCH  10  11
ENDBRANCH   8  10
ENDBRANCH   7   8
ENDBRANCH   3   7
BRANCH   1  18
HETATM   18  C   UNL     1      40.257 -15.781   1.735  1.00  0.00     0.059 A 
HETATM   19  C   UNL     1      41.138 -15.939   0.655  1.00  0.00    -0.032 A 
HETATM   20  C   UNL     1      42.347 -16.830   0.680  1.00  0.00     0.050 C 
HETATM   21  C   UNL     1      40.892 -15.202  -0.514  1.00  0.00     0.028 A 
HETATM   22  C   UNL     1      39.835 -14.306  -0.547  1.00  0.00     0.117 A 
HETATM   23  N   UNL     1      39.011 -14.086   0.496  1.00  0.00    -0.271 NA
HETATM   24  C   UNL     1      39.245 -14.825   1.605  1.00  0.00     0.146 A 
ENDBRANCH   1  18
TORSDOF 5
ENDMDL
MODEL 2
REMARK VINA RESULT:      -7.3      4.686      7.430
REMARK  5 active torsions:
REMARK  status: ('A' for Active; 'I' for Inactive)
REMARK    1  A    between atoms: C_3  and  N_4 
REMARK       I    between atoms: N_4  and  C_5 
REMARK       I    between atoms: C_5  and  N_6 
REMARK    2  A    between atoms: N_6  and  C_7 
REMARK    3  A    between atoms: C_7  and  C_8 
REMARK    4  A    between atoms: C_8  and  O_9 
REMARK    5  A    between atoms: O_9  and  C_10 
ROOT
HETATM    1  N   UNL     1      44.995 -18.930   5.072  1.00  0.00    -0.307 N 
HETATM    2  C   UNL     1      44.011 -18.316   5.819  1.00  0.00     0.320 C 
HETATM    3  N   UNL     1      44.543 -17.300   6.579  1.00  0.00    -0.340 N 
HETATM    4  O   UNL     1      42.819 -18.584   5.799  1.00  0.00    -0.247 OA
HETATM    5  H   UNL     1      45.639 -18.257   4.678  1.00  0.00     0.170 HD
HETATM    6  H   UNL     1      45.529 -17.365   6.789  1.00  0.00     0.164 HD
ENDROOT
BRANCH   3   7
HETATM    7  C   UNL     1      43.716 -16.458   7.428  1.00  0.00     0.156 C 
BRANCH   7   8
HETATM    8  C   UNL     1      43.620 -14.988   6.970  1.00  0.00     0.142 C 
HETATM    9  C   UNL     1      43.165 -14.857   5.517  1.00  0.00     0.042 C 
BRANCH   8  10
HETATM   10  O   UNL     1      44.932 -14.401   7.023  1.00  0.00    -0.345 OA
BRANCH  10  11
HETATM   11  C   UNL     1      45.160 -13.351   7.865  1.00  0.00     0.070 A 
HETATM   12  C   UNL     1      44.365 -12.968   8.943  1.00  0.00     0.060 A 
HETATM   13  C   UNL     1      44.728 -11.860   9.713  1.00  0.00     0.036 A 
HETATM   14 CL   UNL     1      43.734 -11.384  11.036  1.00  0.00    -0.084 Cl
HETATM   15  C   UNL     1      45.885 -11.137   9.427  1.00  0.00     0.024 A 
HETATM   16  C   UNL     1      46.693 -11.530   8.362  1.00  0.00     0.004 A 
HETATM   17  C   UNL     1      46.329 -12.633   7.588  1.00  0.00     0.037 A 
ENDBRANCH  10  11
ENDBRANCH   8  10
ENDBRANCH   7   8
ENDBRANCH   3   7
BRANCH   1  18
HETATM   18  C   UNL     1      44.779 -20.101   4.308  1.00  0.00     0.059 A 
HETATM   19  C   UNL     1      44.340 -20.110   2.975  1.00  0.00    -0.032 A 
HETATM   20  C   UNL     1      43.985 -18.874   2.199  1.00  0.00     0.050 C 
HETATM   21  C   UNL     1      44.200 -21.350   2.332  1.00  0.00     0.028 A 
HETATM   22  C   UNL     1      44.439 -22.517   3.041  1.00  0.00     0.117 A 
HETATM   23  N   UNL     1      44.799 -22.541   4.339  1.00  0.00    -0.271 NA
HETATM   24  C   UNL     1      44.957 -21.337   4.935  1.00  0.00     0.146 A 
ENDBRANCH   1  18
TORSDOF 5
ENDMDL
MODEL 3
REMARK VINA RESULT:      -7.2      2.966      6.485
REMARK  5 active torsions:
REMARK  status: ('A' for Active; 'I' for Inactive)
REMARK    1  A    between atoms: C_3  and  N_4 
REMARK       I    between atoms: N_4  and  C_5 
REMARK       I    between atoms: C_5  and  N_6 
REMARK    2  A    between atoms: N_6  and  C_7 
REMARK    3  A    between atoms: C_7  and  C_8 
REMARK    4  A    between atoms: C_8  and  O_9 
REMARK    5  A    between atoms: O_9  and  C_10 
ROOT
HETATM    1  N   UNL     1      44.366 -19.155   2.200  1.00  0.00    -0.307 N 
HETATM    2  C   UNL     1      43.150 -18.635   1.809  1.00  0.00     0.320 C 
HETATM    3  N   UNL     1      43.323 -17.429   1.170  1.00  0.00    -0.340 N 
HETATM    4  O   UNL     1      42.059 -19.166   1.955  1.00  0.00    -0.247 OA
HETATM    5  H   UNL     1      45.072 -19.032   1.487  1.00  0.00     0.170 HD
HETATM    6  H   UNL     1      44.171 -16.924   1.384  1.00  0.00     0.164 HD
ENDROOT
BRANCH   3   7
HETATM    7  C   UNL     1      42.205 -16.684   0.614  1.00  0.00     0.156 C 
BRANCH   7   8
HETATM    8  C   UNL     1      41.287 -16.029   1.665  1.00  0.00     0.142 C 
HETATM    9  C   UNL     1      40.316 -15.022   1.049  1.00  0.00     0.042 C 
BRANCH   8  10
HETATM   10  O   UNL     1      42.099 -15.277   2.583  1.00  0.00    -0.345 OA
BRANCH  10  11
HETATM   11  C   UNL     1      42.186 -15.682   3.884  1.00  0.00     0.070 A 
HETATM   12  C   UNL     1      43.108 -15.237   4.829  1.00  0.00     0.060 A 
HETATM   13  C   UNL     1      43.074 -15.754   6.128  1.00  0.00     0.036 A 
HETATM   14 CL   UNL     1      44.225 -15.210   7.287  1.00  0.00    -0.084 Cl
HETATM   15  C   UNL     1      42.121 -16.702   6.496  1.00  0.00     0.024 A 
HETATM   16  C   UNL     1      41.185 -17.133   5.559  1.00  0.00     0.004 A 
HETATM   17  C   UNL     1      41.220 -16.623   4.261  1.00  0.00     0.037 A 
ENDBRANCH  10  11
ENDBRANCH   8  10
ENDBRANCH   7   8
ENDBRANCH   3   7
BRANCH   1  18
HETATM   18  C   UNL     1      44.498 -20.309   3.008  1.00  0.00     0.059 A 
HETATM   19  C   UNL     1      44.666 -20.289   4.401  1.00  0.00    -0.032 A 
HETATM   20  C   UNL     1      44.786 -19.032   5.215  1.00  0.00     0.050 C 
HETATM   21  C   UNL     1      44.753 -21.517   5.076  1.00  0.00     0.028 A 
HETATM   22  C   UNL     1      44.730 -22.698   4.350  1.00  0.00     0.117 A 
HETATM   23  N   UNL     1      44.634 -22.746   3.007  1.00  0.00    -0.271 NA
HETATM   24  C   UNL     1      44.523 -21.555   2.375  1.00  0.00     0.146 A 
ENDBRANCH   1  18
TORSDOF 5
ENDMDL
MODEL 4
REMARK VINA RESULT:      -7.2      3.259      6.365
REMARK  5 active torsions:
REMARK  status: ('A' for Active; 'I' for Inactive)
REMARK    1  A    between atoms: C_3  and  N_4 
REMARK       I    between atoms: N_4  and  C_5 
REMARK       I    between atoms: C_5  and  N_6 
REMARK    2  A    between atoms: N_6  and  C_7 
REMARK    3  A    between atoms: C_7  and  C_8 
REMARK    4  A    between atoms: C_8  and  O_9 
REMARK    5  A    between atoms: O_9  and  C_10 
ROOT
HETATM    1  N   UNL     1      44.280 -18.537   4.526  1.00  0.00    -0.307 N 
HETATM    2  C   UNL     1      43.129 -17.980   5.042  1.00  0.00     0.320 C 
HETATM    3  N   UNL     1      43.353 -16.681   5.436  1.00  0.00    -0.340 N 
HETATM    4  O   UNL     1      42.036 -18.522   5.114  1.00  0.00    -0.247 OA
HETATM    5  H   UNL     1      44.778 -17.884   3.934  1.00  0.00     0.170 HD
HETATM    6  H   UNL     1      44.309 -16.436   5.651  1.00  0.00     0.164 HD
ENDROOT
BRANCH   3   7
HETATM    7  C   UNL     1      42.294 -15.845   5.975  1.00  0.00     0.156 C 
BRANCH   7   8
HETATM    8  C   UNL     1      41.668 -14.870   4.957  1.00  0.00     0.142 C 
HETATM    9  C   UNL     1      40.842 -13.774   5.627  1.00  0.00     0.042 C 
BRANCH   8  10
HETATM   10  O   UNL     1      40.748 -15.599   4.125  1.00  0.00    -0.345 OA
BRANCH  10  11
HETATM   11  C   UNL     1      40.976 -15.669   2.781  1.00  0.00     0.070 A 
HETATM   12  C   UNL     1      41.283 -14.603   1.937  1.00  0.00     0.060 A 
HETATM   13  C   UNL     1      41.484 -14.834   0.573  1.00  0.00     0.036 A 
HETATM   14 CL   UNL     1      41.849 -13.511  -0.466  1.00  0.00    -0.084 Cl
HETATM   15  C   UNL     1      41.397 -16.121   0.045  1.00  0.00     0.024 A 
HETATM   16  C   UNL     1      41.111 -17.191   0.889  1.00  0.00     0.004 A 
HETATM   17  C   UNL     1      40.904 -16.962   2.250  1.00  0.00     0.037 A 
ENDBRANCH  10  11
ENDBRANCH   8  10
ENDBRANCH   7   8
ENDBRANCH   3   7
BRANCH   1  18
HETATM   18  C   UNL     1      44.398 -19.902   4.175  1.00  0.00     0.059 A 
HETATM   19  C   UNL     1      44.150 -20.419   2.895  1.00  0.00    -0.032 A 
HETATM   20  C   UNL     1      43.666 -19.595   1.736  1.00  0.00     0.050 C 
HETATM   21  C   UNL     1      44.339 -21.794   2.687  1.00  0.00     0.028 A 
HETATM   22  C   UNL     1      44.704 -22.602   3.753  1.00  0.00     0.117 A 
HETATM   23  N   UNL     1      44.887 -22.145   5.006  1.00  0.00    -0.271 NA
HETATM   24  C   UNL     1      44.728 -20.813   5.184  1.00  0.00     0.146 A 
ENDBRANCH   1  18
TORSDOF 5
ENDMDL
MODEL 5
REMARK VINA RESULT:      -7.1      2.615      3.910
REMARK  5 active torsions:
REMARK  status: ('A' for Active; 'I' for Inactive)
REMARK    1  A    between atoms: C_3  and  N_4 
REMARK       I    between atoms: N_4  and  C_5 
REMARK       I    between atoms: C_5  and  N_6 
REMARK    2  A    between atoms: N_6  and  C_7 
REMARK    3  A    between atoms: C_7  and  C_8 
REMARK    4  A    between atoms: C_8  and  O_9 
REMARK    5  A    between atoms: O_9  and  C_10 
ROOT
HETATM    1  N   UNL     1      41.721 -15.109  -1.017  1.00  0.00    -0.307 N 
HETATM    2  C   UNL     1      40.891 -15.300   0.067  1.00  0.00     0.320 C 
HETATM    3  N   UNL     1      41.092 -16.546   0.616  1.00  0.00    -0.340 N 
HETATM    4  O   UNL     1      40.107 -14.484   0.528  1.00  0.00    -0.247 OA
HETATM    5  H   UNL     1      42.651 -15.465  -0.843  1.00  0.00     0.170 HD
HETATM    6  H   UNL     1      41.483 -17.249   0.006  1.00  0.00     0.164 HD
ENDROOT
BRANCH   3   7
HETATM    7  C   UNL     1      40.377 -16.990   1.802  1.00  0.00     0.156 C 
BRANCH   7   8
HETATM    8  C   UNL     1      41.227 -17.015   3.088  1.00  0.00     0.142 C 
HETATM    9  C   UNL     1      41.110 -15.721   3.892  1.00  0.00     0.042 C 
BRANCH   8  10
HETATM   10  O   UNL     1      42.614 -17.124   2.724  1.00  0.00    -0.345 OA
BRANCH  10  11
HETATM   11  C   UNL     1      43.275 -18.296   2.957  1.00  0.00     0.070 A 
HETATM   12  C   UNL     1      43.326 -19.399   2.106  1.00  0.00     0.060 A 
HETATM   13  C   UNL     1      44.044 -20.536   2.489  1.00  0.00     0.036 A 
HETATM   14 CL   UNL     1      44.093 -21.901   1.441  1.00  0.00    -0.084 Cl
HETATM   15  C   UNL     1      44.722 -20.579   3.706  1.00  0.00     0.024 A 
HETATM   16  C   UNL     1      44.688 -19.470   4.549  1.00  0.00     0.004 A 
HETATM   17  C   UNL     1      43.969 -18.336   4.171  1.00  0.00     0.037 A 
ENDBRANCH  10  11
ENDBRANCH   8  10
ENDBRANCH   7   8
ENDBRANCH   3   7
BRANCH   1  18
HETATM   18  C   UNL     1      41.639 -13.986  -1.874  1.00  0.00     0.059 A 
HETATM   19  C   UNL     1      40.825 -13.914  -3.014  1.00  0.00    -0.032 A 
HETATM   20  C   UNL     1      39.971 -15.047  -3.510  1.00  0.00     0.050 C 
HETATM   21  C   UNL     1      40.823 -12.721  -3.754  1.00  0.00     0.028 A 
HETATM   22  C   UNL     1      41.661 -11.683  -3.376  1.00  0.00     0.117 A 
HETATM   23  N   UNL     1      42.500 -11.747  -2.325  1.00  0.00    -0.271 NA
HETATM   24  C   UNL     1      42.469 -12.893  -1.607  1.00  0.00     0.146 A 
ENDBRANCH   1  18
TORSDOF 5
ENDMDL
MODEL 6
REMARK VINA RESULT:      -7.0      6.339      8.777
REMARK  5 active torsions:
REMARK  status: ('A' for Active; 'I' for Inactive)
REMARK    1  A    between atoms: C_3  and  N_4 
REMARK       I    between atoms: N_4  and  C_5 
REMARK       I    between atoms: C_5  and  N_6 
REMARK    2  A    between atoms: N_6  and  C_7 
REMARK    3  A    between atoms: C_7  and  C_8 
REMARK    4  A    between atoms: C_8  and  O_9 
REMARK    5  A    between atoms: O_9  and  C_10 
ROOT
HETATM    1  N   UNL     1      43.509 -15.465   7.276  1.00  0.00    -0.307 N 
HETATM    2  C   UNL     1      44.341 -14.370   7.176  1.00  0.00     0.320 C 
HETATM    3  N   UNL     1      44.332 -13.647   8.347  1.00  0.00    -0.340 N 
HETATM    4  O   UNL     1      45.036 -14.079   6.215  1.00  0.00    -0.247 OA
HETATM    5  H   UNL     1      43.592 -15.917   8.176  1.00  0.00     0.170 HD
HETATM    6  H   UNL     1      43.517 -13.752   8.933  1.00  0.00     0.164 HD
ENDROOT
BRANCH   3   7
HETATM    7  C   UNL     1      45.158 -12.465   8.530  1.00  0.00     0.156 C 
BRANCH   7   8
HETATM    8  C   UNL     1      44.576 -11.423   9.506  1.00  0.00     0.142 C 
HETATM    9  C   UNL     1      45.661 -10.676  10.280  1.00  0.00     0.042 C 
BRANCH   8  10
HETATM   10  O   UNL     1      43.790 -12.108  10.497  1.00  0.00    -0.345 OA
BRANCH  10  11
HETATM   11  C   UNL     1      42.935 -11.389  11.283  1.00  0.00     0.070 A 
HETATM   12  C   UNL     1      43.071 -11.150  12.649  1.00  0.00     0.060 A 
HETATM   13  C   UNL     1      42.103 -10.397  13.320  1.00  0.00     0.036 A 
HETATM   14 CL   UNL     1      42.269 -10.116  15.011  1.00  0.00    -0.084 Cl
HETATM   15  C   UNL     1      41.008  -9.868  12.639  1.00  0.00     0.024 A 
HETATM   16  C   UNL     1      40.881 -10.089  11.270  1.00  0.00     0.004 A 
HETATM   17  C   UNL     1      41.842 -10.845  10.599  1.00  0.00     0.037 A 
ENDBRANCH  10  11
ENDBRANCH   8  10
ENDBRANCH   7   8
ENDBRANCH   3   7
BRANCH   1  18
HETATM   18  C   UNL     1      43.198 -16.312   6.185  1.00  0.00     0.059 A 
HETATM   19  C   UNL     1      43.919 -17.466   5.845  1.00  0.00    -0.032 A 
HETATM   20  C   UNL     1      45.156 -17.927   6.563  1.00  0.00     0.050 C 
HETATM   21  C   UNL     1      43.474 -18.228   4.753  1.00  0.00     0.028 A 
HETATM   22  C   UNL     1      42.386 -17.790   4.014  1.00  0.00     0.117 A 
HETATM   23  N   UNL     1      41.714 -16.653   4.278  1.00  0.00    -0.271 NA
HETATM   24  C   UNL     1      42.138 -15.946   5.350  1.00  0.00     0.146 A 
ENDBRANCH   1  18
TORSDOF 5
ENDMDL
MODEL 7
REMARK VINA RESULT:      -7.0      2.119      2.801
REMARK  5 active torsions:
REMARK  status: ('A' for Active; 'I' for Inactive)
REMARK    1  A    between atoms: C_3  and  N_4 
REMARK       I    between atoms: N_4  and  C_5 
REMARK       I    between atoms: C_5  and  N_6 
REMARK    2  A    between atoms: N_6  and  C_7 
REMARK    3  A    between atoms: C_7  and  C_8 
REMARK    4  A    between atoms: C_8  and  O_9 
REMARK    5  A    between atoms: O_9  and  C_10 
ROOT
HETATM    1  N   UNL     1      40.126 -15.477   5.214  1.00  0.00    -0.307 N 
HETATM    2  C   UNL     1      41.331 -15.646   5.864  1.00  0.00     0.320 C 
HETATM    3  N   UNL     1      41.336 -16.825   6.573  1.00  0.00    -0.340 N 
HETATM    4  O   UNL     1      42.293 -14.896   5.805  1.00  0.00    -0.247 OA
HETATM    5  H   UNL     1      39.798 -16.341   4.804  1.00  0.00     0.170 HD
HETATM    6  H   UNL     1      40.435 -17.196   6.836  1.00  0.00     0.164 HD
ENDROOT
BRANCH   3   7
HETATM    7  C   UNL     1      42.503 -17.273   7.316  1.00  0.00     0.156 C 
BRANCH   7   8
HETATM    8  C   UNL     1      43.283 -18.424   6.648  1.00  0.00     0.142 C 
HETATM    9  C   UNL     1      44.206 -19.150   7.625  1.00  0.00     0.042 C 
BRANCH   8  10
HETATM   10  O   UNL     1      44.143 -17.872   5.635  1.00  0.00    -0.345 OA
BRANCH  10  11
HETATM   11  C   UNL     1      43.964 -18.244   4.333  1.00  0.00     0.070 A 
HETATM   12  C   UNL     1      44.047 -19.539   3.825  1.00  0.00     0.060 A 
HETATM   13  C   UNL     1      43.844 -19.761   2.460  1.00  0.00     0.036 A 
HETATM   14 CL   UNL     1      43.961 -21.361   1.834  1.00  0.00    -0.084 Cl
HETATM   15  C   UNL     1      43.545 -18.706   1.599  1.00  0.00     0.024 A 
HETATM   16  C   UNL     1      43.442 -17.414   2.108  1.00  0.00     0.004 A 
HETATM   17  C   UNL     1      43.650 -17.188   3.470  1.00  0.00     0.037 A 
ENDBRANCH  10  11
ENDBRANCH   8  10
ENDBRANCH   7   8
ENDBRANCH   3   7
BRANCH   1  18
HETATM   18  C   UNL     1      39.769 -14.292   4.528  1.00  0.00     0.059 A 
HETATM   19  C   UNL     1      39.688 -14.176   3.132  1.00  0.00    -0.032 A 
HETATM   20  C   UNL     1      40.027 -15.284   2.176  1.00  0.00     0.050 C 
HETATM   21  C   UNL     1      39.289 -12.944   2.592  1.00  0.00     0.028 A 
HETATM   22  C   UNL     1      39.048 -11.873   3.438  1.00  0.00     0.117 A 
HETATM   23  N   UNL     1      39.180 -11.936   4.777  1.00  0.00    -0.271 NA
HETATM   24  C   UNL     1      39.537 -13.139   5.284  1.00  0.00     0.146 A 
ENDBRANCH   1  18
TORSDOF 5
ENDMDL
MODEL 8
REMARK VINA RESULT:      -6.9      2.227      3.527
REMARK  5 active torsions:
REMARK  status: ('A' for Active; 'I' for Inactive)
REMARK    1  A    between atoms: C_3  and  N_4 
REMARK       I    between atoms: N_4  and  C_5 
REMARK       I    between atoms: C_5  and  N_6 
REMARK    2  A    between atoms: N_6  and  C_7 
REMARK    3  A    between atoms: C_7  and  C_8 
REMARK    4  A    between atoms: C_8  and  O_9 
REMARK    5  A    between atoms: O_9  and  C_10 
ROOT
HETATM    1  N   UNL     1      40.618 -15.323  -0.872  1.00  0.00    -0.307 N 
HETATM    2  C   UNL     1      41.436 -15.115   0.219  1.00  0.00     0.320 C 
HETATM    3  N   UNL     1      41.653 -16.295   0.892  1.00  0.00    -0.340 N 
HETATM    4  O   UNL     1      41.947 -14.054   0.545  1.00  0.00    -0.247 OA
HETATM    5  H   UNL     1      40.859 -16.174  -1.363  1.00  0.00     0.170 HD
HETATM    6  H   UNL     1      40.959 -17.018   0.769  1.00  0.00     0.164 HD
ENDROOT
BRANCH   3   7
HETATM    7  C   UNL     1      42.519 -16.369   2.058  1.00  0.00     0.156 C 
BRANCH   7   8
HETATM    8  C   UNL     1      42.357 -17.656   2.893  1.00  0.00     0.142 C 
HETATM    9  C   UNL     1      41.599 -17.415   4.198  1.00  0.00     0.042 C 
BRANCH   8  10
HETATM   10  O   UNL     1      43.661 -18.123   3.279  1.00  0.00    -0.345 OA
BRANCH  10  11
HETATM   11  C   UNL     1      43.939 -19.458   3.212  1.00  0.00     0.070 A 
HETATM   12  C   UNL     1      44.498 -20.238   4.222  1.00  0.00     0.060 A 
HETATM   13  C   UNL     1      44.729 -21.599   4.000  1.00  0.00     0.036 A 
HETATM   14 CL   UNL     1      45.433 -22.555   5.247  1.00  0.00    -0.084 Cl
HETATM   15  C   UNL     1      44.395 -22.192   2.784  1.00  0.00     0.024 A 
HETATM   16  C   UNL     1      43.817 -21.419   1.780  1.00  0.00     0.004 A 
HETATM   17  C   UNL     1      43.590 -20.059   1.997  1.00  0.00     0.037 A 
ENDBRANCH  10  11
ENDBRANCH   8  10
ENDBRANCH   7   8
ENDBRANCH   3   7
BRANCH   1  18
HETATM   18  C   UNL     1      40.099 -14.276  -1.669  1.00  0.00     0.059 A 
HETATM   19  C   UNL     1      38.919 -13.571  -1.385  1.00  0.00    -0.032 A 
HETATM   20  C   UNL     1      38.018 -13.876  -0.223  1.00  0.00     0.050 C 
HETATM   21  C   UNL     1      38.542 -12.534  -2.252  1.00  0.00     0.028 A 
HETATM   22  C   UNL     1      39.303 -12.277  -3.382  1.00  0.00     0.117 A 
HETATM   23  N   UNL     1      40.404 -12.978  -3.714  1.00  0.00    -0.271 NA
HETATM   24  C   UNL     1      40.770 -13.956  -2.854  1.00  0.00     0.146 A 
ENDBRANCH   1  18
TORSDOF 5
ENDMDL
MODEL 9
REMARK VINA RESULT:      -6.9      2.965      6.326
REMARK  5 active torsions:
REMARK  status: ('A' for Active; 'I' for Inactive)
REMARK    1  A    between atoms: C_3  and  N_4 
REMARK       I    between atoms: N_4  and  C_5 
REMARK       I    between atoms: C_5  and  N_6 
REMARK    2  A    between atoms: N_6  and  C_7 
REMARK    3  A    between atoms: C_7  and  C_8 
REMARK    4  A    between atoms: C_8  and  O_9 
REMARK    5  A    between atoms: O_9  and  C_10 
ROOT
HETATM    1  N   UNL     1      44.371 -19.088   2.370  1.00  0.00    -0.307 N 
HETATM    2  C   UNL     1      43.222 -18.329   2.310  1.00  0.00     0.320 C 
HETATM    3  N   UNL     1      43.436 -17.184   1.577  1.00  0.00    -0.340 N 
HETATM    4  O   UNL     1      42.138 -18.624   2.790  1.00  0.00    -0.247 OA
HETATM    5  H   UNL     1      44.850 -19.113   1.479  1.00  0.00     0.170 HD
HETATM    6  H   UNL     1      44.391 -16.864   1.511  1.00  0.00     0.164 HD
ENDROOT
BRANCH   3   7
HETATM    7  C   UNL     1      42.374 -16.225   1.318  1.00  0.00     0.156 C 
BRANCH   7   8
HETATM    8  C   UNL     1      42.058 -15.286   2.499  1.00  0.00     0.142 C 
HETATM    9  C   UNL     1      41.387 -13.988   2.053  1.00  0.00     0.042 C 
BRANCH   8  10
HETATM   10  O   UNL     1      43.295 -14.892   3.120  1.00  0.00    -0.345 OA
BRANCH  10  11
HETATM   11  C   UNL     1      43.451 -15.065   4.465  1.00  0.00     0.070 A 
HETATM   12  C   UNL     1      43.024 -16.160   5.213  1.00  0.00     0.060 A 
HETATM   13  C   UNL     1      43.253 -16.189   6.592  1.00  0.00     0.036 A 
HETATM   14 CL   UNL     1      42.712 -17.539   7.513  1.00  0.00    -0.084 Cl
HETATM   15  C   UNL     1      43.916 -15.142   7.230  1.00  0.00     0.024 A 
HETATM   16  C   UNL     1      44.362 -14.055   6.481  1.00  0.00     0.004 A 
HETATM   17  C   UNL     1      44.130 -14.021   5.106  1.00  0.00     0.037 A 
ENDBRANCH  10  11
ENDBRANCH   8  10
ENDBRANCH   7   8
ENDBRANCH   3   7
BRANCH   1  18
HETATM   18  C   UNL     1      44.502 -20.245   3.174  1.00  0.00     0.059 A 
HETATM   19  C   UNL     1      44.379 -21.560   2.701  1.00  0.00    -0.032 A 
HETATM   20  C   UNL     1      44.034 -21.913   1.282  1.00  0.00     0.050 C 
HETATM   21  C   UNL     1      44.566 -22.612   3.611  1.00  0.00     0.028 A 
HETATM   22  C   UNL     1      44.804 -22.325   4.946  1.00  0.00     0.117 A 
HETATM   23  N   UNL     1      44.863 -21.074   5.441  1.00  0.00    -0.271 NA
HETATM   24  C   UNL     1      44.709 -20.072   4.546  1.00  0.00     0.146 A 
ENDBRANCH   1  18
TORSDOF 5
ENDMDL
MODEL 10
REMARK VINA RESULT:      -6.9      1.864      2.749
REMARK  5 active torsions:
REMARK  status: ('A' for Active; 'I' for Inactive)
REMARK    1  A    between atoms: C_3  and  N_4 
REMARK       I    between atoms: N_4  and  C_5 
REMARK       I    between atoms: C_5  and  N_6 
REMARK    2  A    between atoms: N_6  and  C_7 
REMARK    3  A    between atoms: C_7  and  C_8 
REMARK    4  A    between atoms: C_8  and  O_9 
REMARK    5  A    between atoms: O_9  and  C_10 
ROOT
HETATM    1  N   UNL     1      40.360 -14.359   1.687  1.00  0.00    -0.307 N 
HETATM    2  C   UNL     1      40.483 -15.583   2.310  1.00  0.00     0.320 C 
HETATM    3  N   UNL     1      41.016 -15.434   3.569  1.00  0.00    -0.340 N 
HETATM    4  O   UNL     1      40.136 -16.662   1.852  1.00  0.00    -0.247 OA
HETATM    5  H   UNL     1      40.023 -13.648   2.323  1.00  0.00     0.170 HD
HETATM    6  H   UNL     1      41.565 -14.601   3.730  1.00  0.00     0.164 HD
ENDROOT
BRANCH   3   7
HETATM    7  C   UNL     1      41.211 -16.564   4.463  1.00  0.00     0.156 C 
BRANCH   7   8
HETATM    8  C   UNL     1      42.683 -16.846   4.824  1.00  0.00     0.142 C 
HETATM    9  C   UNL     1      43.437 -15.583   5.239  1.00  0.00     0.042 C 
BRANCH   8  10
HETATM   10  O   UNL     1      43.360 -17.338   3.654  1.00  0.00    -0.345 OA
BRANCH  10  11
HETATM   11  C   UNL     1      43.804 -18.629   3.633  1.00  0.00     0.070 A 
HETATM   12  C   UNL     1      43.741 -19.507   2.553  1.00  0.00     0.060 A 
HETATM   13  C   UNL     1      44.235 -20.808   2.688  1.00  0.00     0.036 A 
HETATM   14 CL   UNL     1      44.142 -21.893   1.354  1.00  0.00    -0.084 Cl
HETATM   15  C   UNL     1      44.804 -21.237   3.885  1.00  0.00     0.024 A 
HETATM   16  C   UNL     1      44.886 -20.355   4.960  1.00  0.00     0.004 A 
HETATM   17  C   UNL     1      44.389 -19.057   4.830  1.00  0.00     0.037 A 
ENDBRANCH  10  11
ENDBRANCH   8  10
ENDBRANCH   7   8
ENDBRANCH   3   7
BRANCH   1  18
HETATM   18  C   UNL     1      39.982 -14.206   0.332  1.00  0.00     0.059 A 
HETATM   19  C   UNL     1      38.666 -13.999  -0.107  1.00  0.00    -0.032 A 
HETATM   20  C   UNL     1      37.471 -13.969   0.803  1.00  0.00     0.050 C 
HETATM   21  C   UNL     1      38.445 -13.833  -1.483  1.00  0.00     0.028 A 
HETATM   22  C   UNL     1      39.511 -13.937  -2.364  1.00  0.00     0.117 A 
HETATM   23  N   UNL     1      40.774 -14.199  -1.977  1.00  0.00    -0.271 NA
HETATM   24  C   UNL     1      40.975 -14.328  -0.645  1.00  0.00     0.146 A 
ENDBRANCH   1  18
TORSDOF 5
ENDMDL
