MODEL 1
REMARK VINA RESULT:      -7.6      0.000      0.000
REMARK  4 active torsions:
REMARK  status: ('A' for Active; 'I' for Inactive)
REMARK    1  A    between atoms: C_2  and  O_3 
REMARK    2  A    between atoms: O_3  and  C_4 
REMARK    3  A    between atoms: C_7  and  N_8 
REMARK       I    between atoms: N_8  and  C_9 
REMARK    4  A    between atoms: C_9  and  C_10 
ROOT
HETATM    1  N   UNL     1      44.164 -14.663   7.490  1.00  0.00    -0.323 N 
HETATM    2  C   UNL     1      45.102 -13.654   7.362  1.00  0.00     0.257 C 
HETATM    3  O   UNL     1      45.884 -13.500   6.431  1.00  0.00    -0.267 OA
HETATM    4  H   UNL     1      43.524 -14.620   8.269  1.00  0.00     0.169 HD
ENDROOT
BRANCH   1   5
HETATM    5  C   UNL     1      43.965 -15.760   6.621  1.00  0.00     0.035 A 
HETATM    6  C   UNL     1      44.611 -16.991   6.748  1.00  0.00     0.032 A 
HETATM    7  C   UNL     1      44.340 -18.035   5.855  1.00  0.00     0.039 A 
HETATM    8  C   UNL     1      43.397 -17.864   4.846  1.00  0.00     0.069 A 
HETATM    9  C   UNL     1      42.777 -16.629   4.685  1.00  0.00     0.039 A 
HETATM   10  C   UNL     1      43.054 -15.584   5.571  1.00  0.00     0.032 A 
BRANCH   8  11
HETATM   11  O   UNL     1      43.086 -18.826   3.928  1.00  0.00    -0.347 OA
BRANCH  11  12
HETATM   12  C   UNL     1      44.077 -19.047   2.912  1.00  0.00     0.120 C 
HETATM   13  C   UNL     1      43.539 -18.472   1.607  1.00  0.00     0.040 C 
HETATM   14  C   UNL     1      44.294 -20.552   2.791  1.00  0.00     0.040 C 
ENDBRANCH  11  12
ENDBRANCH   8  11
ENDBRANCH   1   5
BRANCH   2  15
HETATM   15  C   UNL     1      45.141 -12.658   8.465  1.00  0.00     0.051 A 
HETATM   16  C   UNL     1      46.132 -11.680   8.438  1.00  0.00     0.133 A 
HETATM   17  N   UNL     1      46.278 -10.717   9.383  1.00  0.00    -0.271 NA
HETATM   18  C   UNL     1      45.403 -10.742  10.414  1.00  0.00     0.135 A 
HETATM   19  C   UNL     1      44.395 -11.687  10.538  1.00  0.00     0.029 A 
HETATM   20 BR   UNL     1      43.224 -11.657  12.016  1.00  0.00    -0.050 Br
HETATM   21  C   UNL     1      44.262 -12.665   9.553  1.00  0.00     0.039 A 
ENDBRANCH   2  15
TORSDOF 4
ENDMDL
MODEL 2
REMARK VINA RESULT:      -6.9      6.303      9.172
REMARK  4 active torsions:
REMARK  status: ('A' for Active; 'I' for Inactive)
REMARK    1  A    between atoms: C_2  and  O_3 
REMARK    2  A    between atoms: O_3  and  C_4 
REMARK    3  A    between atoms: C_7  and  N_8 
REMARK       I    between atoms: N_8  and  C_9 
REMARK    4  A    between atoms: C_9  and  C_10 
ROOT
HETATM    1  N   UNL     1      41.610 -16.716   0.210  1.00  0.00    -0.323 N 
HETATM    2  C   UNL     1      41.477 -15.363  -0.050  1.00  0.00     0.257 C 
HETATM    3  O   UNL     1      41.952 -14.446   0.609  1.00  0.00    -0.267 OA
HETATM    4  H   UNL     1      41.239 -17.368  -0.466  1.00  0.00     0.169 HD
ENDROOT
BRANCH   1   5
HETATM    5  C   UNL     1      42.249 -17.315   1.320  1.00  0.00     0.035 A 
HETATM    6  C   UNL     1      41.704 -17.370   2.604  1.00  0.00     0.032 A 
HETATM    7  C   UNL     1      42.395 -18.003   3.645  1.00  0.00     0.039 A 
HETATM    8  C   UNL     1      43.623 -18.610   3.401  1.00  0.00     0.069 A 
HETATM    9  C   UNL     1      44.193 -18.527   2.135  1.00  0.00     0.039 A 
HETATM   10  C   UNL     1      43.508 -17.888   1.097  1.00  0.00     0.032 A 
BRANCH   8  11
HETATM   11  O   UNL     1      44.365 -19.234   4.363  1.00  0.00    -0.347 OA
BRANCH  11  12
HETATM   12  C   UNL     1      44.003 -18.920   5.717  1.00  0.00     0.120 C 
HETATM   13  C   UNL     1      45.136 -18.101   6.322  1.00  0.00     0.040 C 
HETATM   14  C   UNL     1      43.823 -20.235   6.470  1.00  0.00     0.040 C 
ENDBRANCH  11  12
ENDBRANCH   8  11
ENDBRANCH   1   5
BRANCH   2  15
HETATM   15  C   UNL     1      40.691 -15.008  -1.261  1.00  0.00     0.051 A 
HETATM   16  C   UNL     1      41.017 -15.628  -2.465  1.00  0.00     0.133 A 
HETATM   17  N   UNL     1      40.380 -15.389  -3.640  1.00  0.00    -0.271 NA
HETATM   18  C   UNL     1      39.383 -14.476  -3.615  1.00  0.00     0.135 A 
HETATM   19  C   UNL     1      39.000 -13.794  -2.470  1.00  0.00     0.029 A 
HETATM   20 BR   UNL     1      37.606 -12.526  -2.526  1.00  0.00    -0.050 Br
HETATM   21  C   UNL     1      39.666 -14.057  -1.273  1.00  0.00     0.039 A 
ENDBRANCH   2  15
TORSDOF 4
ENDMDL
MODEL 3
REMARK VINA RESULT:      -6.8      6.432      9.227
REMARK  4 active torsions:
REMARK  status: ('A' for Active; 'I' for Inactive)
REMARK    1  A    between atoms: C_2  and  O_3 
REMARK    2  A    between atoms: O_3  and  C_4 
REMARK    3  A    between atoms: C_7  and  N_8 
REMARK       I    between atoms: N_8  and  C_9 
REMARK    4  A    between atoms: C_9  and  C_10 
ROOT
HETATM    1  N   UNL     1      40.977 -16.601   0.511  1.00  0.00    -0.323 N 
HETATM    2  C   UNL     1      41.220 -15.344  -0.014  1.00  0.00     0.257 C 
HETATM    3  O   UNL     1      41.951 -14.484   0.465  1.00  0.00    -0.267 OA
HETATM    4  H   UNL     1      40.420 -17.242  -0.033  1.00  0.00     0.169 HD
ENDROOT
BRANCH   1   5
HETATM    5  C   UNL     1      41.453 -17.123   1.735  1.00  0.00     0.035 A 
HETATM    6  C   UNL     1      40.933 -16.789   2.987  1.00  0.00     0.032 A 
HETATM    7  C   UNL     1      41.450 -17.370   4.152  1.00  0.00     0.039 A 
HETATM    8  C   UNL     1      42.472 -18.311   4.069  1.00  0.00     0.069 A 
HETATM    9  C   UNL     1      43.024 -18.621   2.831  1.00  0.00     0.039 A 
HETATM   10  C   UNL     1      42.515 -18.036   1.668  1.00  0.00     0.032 A 
BRANCH   8  11
HETATM   11  O   UNL     1      43.039 -18.912   5.157  1.00  0.00    -0.347 OA
BRANCH  11  12
HETATM   12  C   UNL     1      44.449 -19.164   5.053  1.00  0.00     0.120 C 
HETATM   13  C   UNL     1      44.674 -20.652   5.293  1.00  0.00     0.040 C 
HETATM   14  C   UNL     1      45.152 -18.331   6.120  1.00  0.00     0.040 C 
ENDBRANCH  11  12
ENDBRANCH   8  11
ENDBRANCH   1   5
BRANCH   2  15
HETATM   15  C   UNL     1      40.532 -15.028  -1.294  1.00  0.00     0.051 A 
HETATM   16  C   UNL     1      40.957 -15.679  -2.450  1.00  0.00     0.133 A 
HETATM   17  N   UNL     1      40.415 -15.479  -3.678  1.00  0.00    -0.271 NA
HETATM   18  C   UNL     1      39.414 -14.574  -3.759  1.00  0.00     0.135 A 
HETATM   19  C   UNL     1      38.936 -13.863  -2.668  1.00  0.00     0.029 A 
HETATM   20 BR   UNL     1      37.543 -12.609  -2.872  1.00  0.00    -0.050 Br
HETATM   21  C   UNL     1      39.505 -14.087  -1.415  1.00  0.00     0.039 A 
ENDBRANCH   2  15
TORSDOF 4
ENDMDL
MODEL 4
REMARK VINA RESULT:      -6.7      6.444      8.234
REMARK  4 active torsions:
REMARK  status: ('A' for Active; 'I' for Inactive)
REMARK    1  A    between atoms: C_2  and  O_3 
REMARK    2  A    between atoms: O_3  and  C_4 
REMARK    3  A    between atoms: C_7  and  N_8 
REMARK       I    between atoms: N_8  and  C_9 
REMARK    4  A    between atoms: C_9  and  C_10 
ROOT
HETATM    1  N   UNL     1      42.364 -16.560   1.612  1.00  0.00    -0.323 N 
HETATM    2  C   UNL     1      40.998 -16.386   1.469  1.00  0.00     0.257 C 
HETATM    3  O   UNL     1      40.120 -16.999   2.064  1.00  0.00    -0.267 OA
HETATM    4  H   UNL     1      42.976 -15.925   1.122  1.00  0.00     0.169 HD
ENDROOT
BRANCH   1   5
HETATM    5  C   UNL     1      43.024 -17.522   2.410  1.00  0.00     0.035 A 
HETATM    6  C   UNL     1      43.473 -18.757   1.939  1.00  0.00     0.032 A 
HETATM    7  C   UNL     1      44.139 -19.646   2.792  1.00  0.00     0.039 A 
HETATM    8  C   UNL     1      44.387 -19.292   4.115  1.00  0.00     0.069 A 
HETATM    9  C   UNL     1      43.908 -18.081   4.604  1.00  0.00     0.039 A 
HETATM   10  C   UNL     1      43.236 -17.197   3.756  1.00  0.00     0.032 A 
BRANCH   8  11
HETATM   11  O   UNL     1      45.016 -20.106   5.013  1.00  0.00    -0.347 OA
BRANCH  11  12
HETATM   12  C   UNL     1      44.291 -21.289   5.381  1.00  0.00     0.120 C 
HETATM   13  C   UNL     1      43.859 -21.136   6.835  1.00  0.00     0.040 C 
HETATM   14  C   UNL     1      45.228 -22.482   5.218  1.00  0.00     0.040 C 
ENDBRANCH  11  12
ENDBRANCH   8  11
ENDBRANCH   1   5
BRANCH   2  15
HETATM   15  C   UNL     1      40.573 -15.337   0.504  1.00  0.00     0.051 A 
HETATM   16  C   UNL     1      39.550 -14.470   0.880  1.00  0.00     0.133 A 
HETATM   17  N   UNL     1      39.069 -13.475   0.093  1.00  0.00    -0.271 NA
HETATM   18  C   UNL     1      39.624 -13.350  -1.134  1.00  0.00     0.135 A 
HETATM   19  C   UNL     1      40.633 -14.177  -1.604  1.00  0.00     0.029 A 
HETATM   20 BR   UNL     1      41.342 -13.942  -3.335  1.00  0.00    -0.050 Br
HETATM   21  C   UNL     1      41.114 -15.192  -0.777  1.00  0.00     0.039 A 
ENDBRANCH   2  15
TORSDOF 4
ENDMDL
MODEL 5
REMARK VINA RESULT:      -6.6      6.574      9.009
REMARK  4 active torsions:
REMARK  status: ('A' for Active; 'I' for Inactive)
REMARK    1  A    between atoms: C_2  and  O_3 
REMARK    2  A    between atoms: O_3  and  C_4 
REMARK    3  A    between atoms: C_7  and  N_8 
REMARK       I    between atoms: N_8  and  C_9 
REMARK    4  A    between atoms: C_9  and  C_10 
ROOT
HETATM    1  N   UNL     1      42.074 -16.116  -0.071  1.00  0.00    -0.323 N 
HETATM    2  C   UNL     1      41.766 -14.767  -0.030  1.00  0.00     0.257 C 
HETATM    3  O   UNL     1      41.837 -14.034   0.949  1.00  0.00    -0.267 OA
HETATM    4  H   UNL     1      42.053 -16.580  -0.967  1.00  0.00     0.169 HD
ENDROOT
BRANCH   1   5
HETATM    5  C   UNL     1      42.458 -16.938   1.013  1.00  0.00     0.035 A 
HETATM    6  C   UNL     1      43.658 -17.648   1.073  1.00  0.00     0.032 A 
HETATM    7  C   UNL     1      43.971 -18.424   2.195  1.00  0.00     0.039 A 
HETATM    8  C   UNL     1      43.099 -18.472   3.279  1.00  0.00     0.069 A 
HETATM    9  C   UNL     1      41.883 -17.800   3.212  1.00  0.00     0.039 A 
HETATM   10  C   UNL     1      41.565 -17.032   2.089  1.00  0.00     0.032 A 
BRANCH   8  11
HETATM   11  O   UNL     1      43.325 -19.214   4.403  1.00  0.00    -0.347 OA
BRANCH  11  12
HETATM   12  C   UNL     1      44.706 -19.445   4.718  1.00  0.00     0.120 C 
HETATM   13  C   UNL     1      44.861 -20.918   5.076  1.00  0.00     0.040 C 
HETATM   14  C   UNL     1      45.069 -18.558   5.905  1.00  0.00     0.040 C 
ENDBRANCH  11  12
ENDBRANCH   8  11
ENDBRANCH   1   5
BRANCH   2  15
HETATM   15  C   UNL     1      41.321 -14.162  -1.314  1.00  0.00     0.051 A 
HETATM   16  C   UNL     1      40.183 -14.680  -1.928  1.00  0.00     0.133 A 
HETATM   17  N   UNL     1      39.676 -14.220  -3.100  1.00  0.00    -0.271 NA
HETATM   18  C   UNL     1      40.346 -13.208  -3.696  1.00  0.00     0.135 A 
HETATM   19  C   UNL     1      41.498 -12.641  -3.171  1.00  0.00     0.029 A 
HETATM   20 BR   UNL     1      42.379 -11.240  -4.074  1.00  0.00    -0.050 Br
HETATM   21  C   UNL     1      42.000 -13.127  -1.964  1.00  0.00     0.039 A 
ENDBRANCH   2  15
TORSDOF 4
ENDMDL
MODEL 6
REMARK VINA RESULT:      -6.5      6.173      8.776
REMARK  4 active torsions:
REMARK  status: ('A' for Active; 'I' for Inactive)
REMARK    1  A    between atoms: C_2  and  O_3 
REMARK    2  A    between atoms: O_3  and  C_4 
REMARK    3  A    between atoms: C_7  and  N_8 
REMARK       I    between atoms: N_8  and  C_9 
REMARK    4  A    between atoms: C_9  and  C_10 
ROOT
HETATM    1  N   UNL     1      41.614 -17.058   1.970  1.00  0.00    -0.323 N 
HETATM    2  C   UNL     1      42.607 -16.904   2.921  1.00  0.00     0.257 C 
HETATM    3  O   UNL     1      42.915 -15.864   3.490  1.00  0.00    -0.267 OA
HETATM    4  H   UNL     1      41.408 -17.992   1.646  1.00  0.00     0.169 HD
ENDROOT
BRANCH   1   5
HETATM    5  C   UNL     1      40.806 -16.045   1.406  1.00  0.00     0.035 A 
HETATM    6  C   UNL     1      41.124 -15.345   0.240  1.00  0.00     0.032 A 
HETATM    7  C   UNL     1      40.256 -14.369  -0.265  1.00  0.00     0.039 A 
HETATM    8  C   UNL     1      39.050 -14.107   0.378  1.00  0.00     0.069 A 
HETATM    9  C   UNL     1      38.742 -14.770   1.561  1.00  0.00     0.039 A 
HETATM   10  C   UNL     1      39.611 -15.738   2.071  1.00  0.00     0.032 A 
BRANCH   8  11
HETATM   11  O   UNL     1      38.157 -13.162  -0.042  1.00  0.00    -0.347 OA
BRANCH  11  12
HETATM   12  C   UNL     1      37.694 -12.261   0.976  1.00  0.00     0.120 C 
HETATM   13  C   UNL     1      36.328 -11.739   0.546  1.00  0.00     0.040 C 
HETATM   14  C   UNL     1      38.701 -11.120   1.083  1.00  0.00     0.040 C 
ENDBRANCH  11  12
ENDBRANCH   8  11
ENDBRANCH   1   5
BRANCH   2  15
HETATM   15  C   UNL     1      43.354 -18.137   3.288  1.00  0.00     0.051 A 
HETATM   16  C   UNL     1      44.036 -18.159   4.502  1.00  0.00     0.133 A 
HETATM   17  N   UNL     1      44.755 -19.219   4.951  1.00  0.00    -0.271 NA
HETATM   18  C   UNL     1      44.811 -20.300   4.142  1.00  0.00     0.135 A 
HETATM   19  C   UNL     1      44.182 -20.364   2.908  1.00  0.00     0.029 A 
HETATM   20 BR   UNL     1      44.322 -21.909   1.835  1.00  0.00    -0.050 Br
HETATM   21  C   UNL     1      43.446 -19.265   2.467  1.00  0.00     0.039 A 
ENDBRANCH   2  15
TORSDOF 4
ENDMDL
MODEL 7
REMARK VINA RESULT:      -6.2      4.871      8.430
REMARK  4 active torsions:
REMARK  status: ('A' for Active; 'I' for Inactive)
REMARK    1  A    between atoms: C_2  and  O_3 
REMARK    2  A    between atoms: O_3  and  C_4 
REMARK    3  A    between atoms: C_7  and  N_8 
REMARK       I    between atoms: N_8  and  C_9 
REMARK    4  A    between atoms: C_9  and  C_10 
ROOT
HETATM    1  N   UNL     1      42.791 -16.422   5.005  1.00  0.00    -0.323 N 
HETATM    2  C   UNL     1      42.822 -17.137   3.820  1.00  0.00     0.257 C 
HETATM    3  O   UNL     1      42.309 -16.806   2.757  1.00  0.00    -0.267 OA
HETATM    4  H   UNL     1      43.331 -16.771   5.783  1.00  0.00     0.169 HD
ENDROOT
BRANCH   1   5
HETATM    5  C   UNL     1      42.106 -15.211   5.255  1.00  0.00     0.035 A 
HETATM    6  C   UNL     1      40.743 -15.126   5.544  1.00  0.00     0.032 A 
HETATM    7  C   UNL     1      40.145 -13.886   5.802  1.00  0.00     0.039 A 
HETATM    8  C   UNL     1      40.914 -12.726   5.802  1.00  0.00     0.069 A 
HETATM    9  C   UNL     1      42.264 -12.795   5.477  1.00  0.00     0.039 A 
HETATM   10  C   UNL     1      42.860 -14.031   5.211  1.00  0.00     0.032 A 
BRANCH   8  11
HETATM   11  O   UNL     1      40.405 -11.479   6.030  1.00  0.00    -0.347 OA
BRANCH  11  12
HETATM   12  C   UNL     1      40.832 -10.856   7.251  1.00  0.00     0.120 C 
HETATM   13  C   UNL     1      39.620 -10.759   8.170  1.00  0.00     0.040 C 
HETATM   14  C   UNL     1      41.364  -9.468   6.907  1.00  0.00     0.040 C 
ENDBRANCH  11  12
ENDBRANCH   8  11
ENDBRANCH   1   5
BRANCH   2  15
HETATM   15  C   UNL     1      43.568 -18.423   3.855  1.00  0.00     0.051 A 
HETATM   16  C   UNL     1      44.391 -18.679   4.949  1.00  0.00     0.133 A 
HETATM   17  N   UNL     1      45.125 -19.810   5.100  1.00  0.00    -0.271 NA
HETATM   18  C   UNL     1      45.048 -20.721   4.104  1.00  0.00     0.135 A 
HETATM   19  C   UNL     1      44.272 -20.546   2.968  1.00  0.00     0.029 A 
HETATM   20 BR   UNL     1      44.232 -21.862   1.618  1.00  0.00    -0.050 Br
HETATM   21  C   UNL     1      43.523 -19.377   2.834  1.00  0.00     0.039 A 
ENDBRANCH   2  15
TORSDOF 4
ENDMDL
MODEL 8
REMARK VINA RESULT:      -6.2      5.061      8.302
REMARK  4 active torsions:
REMARK  status: ('A' for Active; 'I' for Inactive)
REMARK    1  A    between atoms: C_2  and  O_3 
REMARK    2  A    between atoms: O_3  and  C_4 
REMARK    3  A    between atoms: C_7  and  N_8 
REMARK       I    between atoms: N_8  and  C_9 
REMARK    4  A    between atoms: C_9  and  C_10 
ROOT
HETATM    1  N   UNL     1      42.751 -16.217   4.937  1.00  0.00    -0.323 N 
HETATM    2  C   UNL     1      42.690 -17.015   3.808  1.00  0.00     0.257 C 
HETATM    3  O   UNL     1      42.083 -16.766   2.773  1.00  0.00    -0.267 OA
HETATM    4  H   UNL     1      43.360 -16.505   5.689  1.00  0.00     0.169 HD
ENDROOT
BRANCH   1   5
HETATM    5  C   UNL     1      42.074 -14.997   5.160  1.00  0.00     0.035 A 
HETATM    6  C   UNL     1      42.630 -13.737   4.931  1.00  0.00     0.032 A 
HETATM    7  C   UNL     1      41.881 -12.575   5.157  1.00  0.00     0.039 A 
HETATM    8  C   UNL     1      40.560 -12.667   5.585  1.00  0.00     0.069 A 
HETATM    9  C   UNL     1      40.009 -13.916   5.853  1.00  0.00     0.039 A 
HETATM   10  C   UNL     1      40.759 -15.076   5.637  1.00  0.00     0.032 A 
BRANCH   8  11
HETATM   11  O   UNL     1      39.768 -11.584   5.841  1.00  0.00    -0.347 OA
BRANCH  11  12
HETATM   12  C   UNL     1      39.624 -10.659   4.752  1.00  0.00     0.120 C 
HETATM   13  C   UNL     1      39.144  -9.333   5.330  1.00  0.00     0.040 C 
HETATM   14  C   UNL     1      38.593 -11.233   3.785  1.00  0.00     0.040 C 
ENDBRANCH  11  12
ENDBRANCH   8  11
ENDBRANCH   1   5
BRANCH   2  15
HETATM   15  C   UNL     1      43.453 -18.290   3.870  1.00  0.00     0.051 A 
HETATM   16  C   UNL     1      44.283 -18.510   4.967  1.00  0.00     0.133 A 
HETATM   17  N   UNL     1      45.033 -19.627   5.141  1.00  0.00    -0.271 NA
HETATM   18  C   UNL     1      44.965 -20.561   4.166  1.00  0.00     0.135 A 
HETATM   19  C   UNL     1      44.184 -20.423   3.029  1.00  0.00     0.029 A 
HETATM   20 BR   UNL     1      44.157 -21.770   1.709  1.00  0.00    -0.050 Br
HETATM   21  C   UNL     1      43.419 -19.268   2.871  1.00  0.00     0.039 A 
ENDBRANCH   2  15
TORSDOF 4
ENDMDL
MODEL 9
REMARK VINA RESULT:      -6.2      5.721      8.000
REMARK  4 active torsions:
REMARK  status: ('A' for Active; 'I' for Inactive)
REMARK    1  A    between atoms: C_2  and  O_3 
REMARK    2  A    between atoms: O_3  and  C_4 
REMARK    3  A    between atoms: C_7  and  N_8 
REMARK       I    between atoms: N_8  and  C_9 
REMARK    4  A    between atoms: C_9  and  C_10 
ROOT
HETATM    1  N   UNL     1      42.581 -16.785   2.722  1.00  0.00    -0.323 N 
HETATM    2  C   UNL     1      43.655 -17.657   2.671  1.00  0.00     0.257 C 
HETATM    3  O   UNL     1      44.437 -17.794   1.737  1.00  0.00    -0.267 OA
HETATM    4  H   UNL     1      42.070 -16.713   3.589  1.00  0.00     0.169 HD
ENDROOT
BRANCH   1   5
HETATM    5  C   UNL     1      42.121 -15.934   1.692  1.00  0.00     0.035 A 
HETATM    6  C   UNL     1      42.120 -14.540   1.766  1.00  0.00     0.032 A 
HETATM    7  C   UNL     1      41.666 -13.769   0.689  1.00  0.00     0.039 A 
HETATM    8  C   UNL     1      41.237 -14.387  -0.482  1.00  0.00     0.069 A 
HETATM    9  C   UNL     1      41.197 -15.775  -0.552  1.00  0.00     0.039 A 
HETATM   10  C   UNL     1      41.642 -16.546   0.526  1.00  0.00     0.032 A 
BRANCH   8  11
HETATM   11  O   UNL     1      40.767 -13.708  -1.570  1.00  0.00    -0.347 OA
BRANCH  11  12
HETATM   12  C   UNL     1      39.499 -14.156  -2.071  1.00  0.00     0.120 C 
HETATM   13  C   UNL     1      39.430 -13.793  -3.550  1.00  0.00     0.040 C 
HETATM   14  C   UNL     1      38.406 -13.438  -1.286  1.00  0.00     0.040 C 
ENDBRANCH  11  12
ENDBRANCH   8  11
ENDBRANCH   1   5
BRANCH   2  15
HETATM   15  C   UNL     1      43.875 -18.490   3.882  1.00  0.00     0.051 A 
HETATM   16  C   UNL     1      43.671 -17.907   5.131  1.00  0.00     0.133 A 
HETATM   17  N   UNL     1      43.840 -18.556   6.310  1.00  0.00    -0.271 NA
HETATM   18  C   UNL     1      44.249 -19.843   6.241  1.00  0.00     0.135 A 
HETATM   19  C   UNL     1      44.495 -20.503   5.046  1.00  0.00     0.029 A 
HETATM   20 BR   UNL     1      45.075 -22.298   5.040  1.00  0.00    -0.050 Br
HETATM   21  C   UNL     1      44.313 -19.818   3.846  1.00  0.00     0.039 A 
ENDBRANCH   2  15
TORSDOF 4
ENDMDL
MODEL 10
REMARK VINA RESULT:      -6.2      5.716      8.006
REMARK  4 active torsions:
REMARK  status: ('A' for Active; 'I' for Inactive)
REMARK    1  A    between atoms: C_2  and  O_3 
REMARK    2  A    between atoms: O_3  and  C_4 
REMARK    3  A    between atoms: C_7  and  N_8 
REMARK       I    between atoms: N_8  and  C_9 
REMARK    4  A    between atoms: C_9  and  C_10 
ROOT
HETATM    1  N   UNL     1      42.663 -16.758   2.464  1.00  0.00    -0.323 N 
HETATM    2  C   UNL     1      43.790 -17.548   2.313  1.00  0.00     0.257 C 
HETATM    3  O   UNL     1      44.601 -17.490   1.396  1.00  0.00    -0.267 OA
HETATM    4  H   UNL     1      42.128 -16.853   3.314  1.00  0.00     0.169 HD
ENDROOT
BRANCH   1   5
HETATM    5  C   UNL     1      42.176 -15.782   1.564  1.00  0.00     0.035 A 
HETATM    6  C   UNL     1      42.208 -14.408   1.804  1.00  0.00     0.032 A 
HETATM    7  C   UNL     1      41.723 -13.506   0.848  1.00  0.00     0.039 A 
HETATM    8  C   UNL     1      41.231 -13.972  -0.367  1.00  0.00     0.069 A 
HETATM    9  C   UNL     1      41.158 -15.342  -0.600  1.00  0.00     0.039 A 
HETATM   10  C   UNL     1      41.633 -16.243   0.357  1.00  0.00     0.032 A 
BRANCH   8  11
HETATM   11  O   UNL     1      40.728 -13.161  -1.343  1.00  0.00    -0.347 OA
BRANCH  11  12
HETATM   12  C   UNL     1      41.049 -13.548  -2.688  1.00  0.00     0.120 C 
HETATM   13  C   UNL     1      42.087 -12.566  -3.218  1.00  0.00     0.040 C 
HETATM   14  C   UNL     1      39.768 -13.480  -3.513  1.00  0.00     0.040 C 
ENDBRANCH  11  12
ENDBRANCH   8  11
ENDBRANCH   1   5
BRANCH   2  15
HETATM   15  C   UNL     1      44.031 -18.548   3.385  1.00  0.00     0.051 A 
HETATM   16  C   UNL     1      44.418 -19.834   3.014  1.00  0.00     0.133 A 
HETATM   17  N   UNL     1      44.666 -20.838   3.893  1.00  0.00    -0.271 NA
HETATM   18  C   UNL     1      44.503 -20.549   5.204  1.00  0.00     0.135 A 
HETATM   19  C   UNL     1      44.103 -19.306   5.669  1.00  0.00     0.029 A 
HETATM   20 BR   UNL     1      43.887 -18.992   7.516  1.00  0.00    -0.050 Br
HETATM   21  C   UNL     1      43.856 -18.288   4.748  1.00  0.00     0.039 A 
ENDBRANCH   2  15
TORSDOF 4
ENDMDL
