MODEL 1
REMARK VINA RESULT:      -8.4      0.000      0.000
REMARK  8 active torsions:
REMARK  status: ('A' for Active; 'I' for Inactive)
REMARK    1  A    between atoms: C_2  and  N_3 
REMARK    2  A    between atoms: C_11  and  C_12 
REMARK    3  A    between atoms: C_14  and  O_15 
REMARK    4  A    between atoms: O_15  and  C_16 
REMARK    5  A    between atoms: C_18  and  O_19 
REMARK    6  A    between atoms: O_19  and  C_20 
REMARK    7  A    between atoms: C_20  and  C_21 
REMARK    8  A    between atoms: C_31  and  O_32 
ROOT
HETATM    1  N   UNL     1      39.040 -12.840  -3.761  1.00  0.00    -0.067 N 
HETATM    2  H   UNL     1      38.969 -13.262  -4.694  1.00  0.00     0.280 HD
HETATM    3  C   UNL     1      40.501 -13.022  -3.336  1.00  0.00     0.281 C 
HETATM    4  C   UNL     1      40.649 -12.843  -1.865  1.00  0.00     0.018 A 
HETATM    5  C   UNL     1      39.615 -12.909  -0.945  1.00  0.00    -0.024 A 
HETATM    6  C   UNL     1      40.097 -12.682   0.383  1.00  0.00     0.057 A 
HETATM    7  C   UNL     1      41.456 -12.491   0.401  1.00  0.00     0.087 A 
HETATM    8  N   UNL     1      42.126 -12.270   1.547  1.00  0.00    -0.357 N 
HETATM    9  C   UNL     1      41.474 -12.718   2.778  1.00  0.00     0.243 C 
HETATM   10  N   UNL     1      39.998 -12.591   2.797  1.00  0.00    -0.235 NA
HETATM   11  C   UNL     1      39.422 -12.610   1.653  1.00  0.00     0.173 C 
HETATM   12  S   UNL     1      42.160 -12.549  -1.140  1.00  0.00    -0.074 SA
HETATM   13  C   UNL     1      38.199 -13.156  -1.374  1.00  0.00     0.068 C 
HETATM   14  C   UNL     1      38.126 -13.645  -2.834  1.00  0.00     0.240 C 
HETATM   15  H   UNL     1      43.139 -12.323   1.546  1.00  0.00     0.162 HD
ENDROOT
BRANCH   9  16
HETATM   16  C   UNL     1      41.948 -14.139   3.112  1.00  0.00    -0.012 A 
HETATM   17  C   UNL     1      41.227 -14.980   3.983  1.00  0.00     0.050 A 
HETATM   18  C   UNL     1      41.635 -16.295   4.228  1.00  0.00     0.103 A 
HETATM   19  C   UNL     1      42.773 -16.785   3.574  1.00  0.00     0.112 A 
HETATM   20  C   UNL     1      43.520 -15.968   2.730  1.00  0.00     0.041 A 
HETATM   21  C   UNL     1      43.122 -14.647   2.522  1.00  0.00     0.014 A 
BRANCH  18  22
HETATM   22  O   UNL     1      40.961 -17.173   5.037  1.00  0.00    -0.349 OA
BRANCH  22  23
HETATM   23  C   UNL     1      40.774 -16.760   6.391  1.00  0.00     0.171 C 
HETATM   24  C   UNL     1      42.029 -17.117   7.168  1.00  0.00     0.034 C 
ENDBRANCH  22  23
ENDBRANCH  18  22
BRANCH  19  25
HETATM   25  O   UNL     1      43.054 -18.162   3.745  1.00  0.00    -0.272 OA
BRANCH  25  26
HETATM   26  C   UNL     1      44.117 -18.637   4.494  1.00  0.00     0.298 C 
HETATM   27  O   UNL     1      44.810 -18.009   5.278  1.00  0.00    -0.259 OA
BRANCH  26  28
HETATM   28  C   UNL     1      44.349 -20.066   4.146  1.00  0.00     0.039 A 
HETATM   29  C   UNL     1      44.238 -20.445   2.802  1.00  0.00     0.017 A 
HETATM   30  C   UNL     1      44.421 -21.779   2.431  1.00  0.00     0.001 A 
HETATM   31  C   UNL     1      44.723 -22.737   3.398  1.00  0.00     0.000 A 
HETATM   32  C   UNL     1      44.847 -22.365   4.737  1.00  0.00     0.001 A 
HETATM   33  C   UNL     1      44.660 -21.033   5.113  1.00  0.00     0.017 A 
ENDBRANCH  26  28
ENDBRANCH  25  26
ENDBRANCH  19  25
ENDBRANCH   9  16
BRANCH  11  34
HETATM   34  O   UNL     1      38.079 -12.556   1.613  1.00  0.00    -0.344 OA
HETATM   35  H   UNL     1      37.850 -11.764   1.095  1.00  0.00     0.219 HD
ENDBRANCH  11  34
BRANCH   1  36
HETATM   36  C   UNL     1      38.686 -11.376  -3.917  1.00  0.00     0.231 C 
HETATM   37  C   UNL     1      39.799 -10.618  -4.616  1.00  0.00     0.034 C 
ENDBRANCH   1  36
TORSDOF 8
ENDMDL
MODEL 2
REMARK VINA RESULT:      -8.3      1.726      2.417
REMARK  8 active torsions:
REMARK  status: ('A' for Active; 'I' for Inactive)
REMARK    1  A    between atoms: C_2  and  N_3 
REMARK    2  A    between atoms: C_11  and  C_12 
REMARK    3  A    between atoms: C_14  and  O_15 
REMARK    4  A    between atoms: O_15  and  C_16 
REMARK    5  A    between atoms: C_18  and  O_19 
REMARK    6  A    between atoms: O_19  and  C_20 
REMARK    7  A    between atoms: C_20  and  C_21 
REMARK    8  A    between atoms: C_31  and  O_32 
ROOT
HETATM    1  N   UNL     1      41.903 -12.801  -3.765  1.00  0.00    -0.067 N 
HETATM    2  H   UNL     1      42.589 -12.924  -4.519  1.00  0.00     0.280 HD
HETATM    3  C   UNL     1      42.709 -12.343  -2.545  1.00  0.00     0.281 C 
HETATM    4  C   UNL     1      41.924 -12.529  -1.294  1.00  0.00     0.018 A 
HETATM    5  C   UNL     1      40.816 -13.351  -1.161  1.00  0.00    -0.024 A 
HETATM    6  C   UNL     1      40.292 -13.294   0.169  1.00  0.00     0.057 A 
HETATM    7  C   UNL     1      41.039 -12.467   0.969  1.00  0.00     0.087 A 
HETATM    8  N   UNL     1      40.735 -12.270   2.266  1.00  0.00    -0.357 N 
HETATM    9  C   UNL     1      39.920 -13.303   2.907  1.00  0.00     0.243 C 
HETATM   10  N   UNL     1      38.900 -13.937   2.038  1.00  0.00    -0.235 NA
HETATM   11  C   UNL     1      39.150 -13.921   0.781  1.00  0.00     0.173 C 
HETATM   12  S   UNL     1      42.335 -11.738   0.156  1.00  0.00    -0.074 SA
HETATM   13  C   UNL     1      40.282 -14.138  -2.321  1.00  0.00     0.068 C 
HETATM   14  C   UNL     1      41.283 -14.173  -3.493  1.00  0.00     0.240 C 
HETATM   15  H   UNL     1      41.408 -11.811   2.869  1.00  0.00     0.162 HD
ENDROOT
BRANCH   9  16
HETATM   16  C   UNL     1      40.842 -14.330   3.578  1.00  0.00    -0.012 A 
HETATM   17  C   UNL     1      40.991 -15.638   3.076  1.00  0.00     0.050 A 
HETATM   18  C   UNL     1      41.884 -16.543   3.658  1.00  0.00     0.103 A 
HETATM   19  C   UNL     1      42.658 -16.127   4.749  1.00  0.00     0.112 A 
HETATM   20  C   UNL     1      42.512 -14.849   5.282  1.00  0.00     0.041 A 
HETATM   21  C   UNL     1      41.591 -13.967   4.714  1.00  0.00     0.014 A 
BRANCH  18  22
HETATM   22  O   UNL     1      42.099 -17.817   3.198  1.00  0.00    -0.349 OA
BRANCH  22  23
HETATM   23  C   UNL     1      42.438 -17.935   1.816  1.00  0.00     0.171 C 
HETATM   24  C   UNL     1      43.906 -17.580   1.660  1.00  0.00     0.034 C 
ENDBRANCH  22  23
ENDBRANCH  18  22
BRANCH  19  25
HETATM   25  O   UNL     1      43.646 -17.032   5.204  1.00  0.00    -0.272 OA
BRANCH  25  26
HETATM   26  C   UNL     1      43.525 -17.774   6.367  1.00  0.00     0.298 C 
HETATM   27  O   UNL     1      43.200 -17.371   7.471  1.00  0.00    -0.259 OA
BRANCH  26  28
HETATM   28  C   UNL     1      43.929 -19.178   6.084  1.00  0.00     0.039 A 
HETATM   29  C   UNL     1      44.681 -19.430   4.929  1.00  0.00     0.017 A 
HETATM   30  C   UNL     1      45.061 -20.735   4.608  1.00  0.00     0.001 A 
HETATM   31  C   UNL     1      44.700 -21.792   5.443  1.00  0.00     0.000 A 
HETATM   32  C   UNL     1      43.961 -21.548   6.601  1.00  0.00     0.001 A 
HETATM   33  C   UNL     1      43.575 -20.244   6.924  1.00  0.00     0.017 A 
ENDBRANCH  26  28
ENDBRANCH  25  26
ENDBRANCH  19  25
ENDBRANCH   9  16
BRANCH  11  34
HETATM   34  O   UNL     1      38.287 -14.532  -0.049  1.00  0.00    -0.344 OA
HETATM   35  H   UNL     1      38.281 -14.012  -0.872  1.00  0.00     0.219 HD
ENDBRANCH  11  34
BRANCH   1  36
HETATM   36  C   UNL     1      40.938 -11.728  -4.227  1.00  0.00     0.231 C 
HETATM   37  C   UNL     1      41.660 -10.417  -4.479  1.00  0.00     0.034 C 
ENDBRANCH   1  36
TORSDOF 8
ENDMDL
MODEL 3
REMARK VINA RESULT:      -8.3      1.771      2.194
REMARK  8 active torsions:
REMARK  status: ('A' for Active; 'I' for Inactive)
REMARK    1  A    between atoms: C_2  and  N_3 
REMARK    2  A    between atoms: C_11  and  C_12 
REMARK    3  A    between atoms: C_14  and  O_15 
REMARK    4  A    between atoms: O_15  and  C_16 
REMARK    5  A    between atoms: C_18  and  O_19 
REMARK    6  A    between atoms: O_19  and  C_20 
REMARK    7  A    between atoms: C_20  and  C_21 
REMARK    8  A    between atoms: C_31  and  O_32 
ROOT
HETATM    1  N   UNL     1      42.356 -11.267  -3.253  1.00  0.00    -0.067 N 
HETATM    2  H   UNL     1      43.188 -11.085  -3.826  1.00  0.00     0.280 HD
HETATM    3  C   UNL     1      42.824 -11.151  -1.799  1.00  0.00     0.281 C 
HETATM    4  C   UNL     1      41.846 -11.792  -0.876  1.00  0.00     0.018 A 
HETATM    5  C   UNL     1      40.875 -12.706  -1.252  1.00  0.00    -0.024 A 
HETATM    6  C   UNL     1      40.097 -13.119  -0.125  1.00  0.00     0.057 A 
HETATM    7  C   UNL     1      40.534 -12.527   1.033  1.00  0.00     0.087 A 
HETATM    8  N   UNL     1      39.953 -12.778   2.221  1.00  0.00    -0.357 N 
HETATM    9  C   UNL     1      39.198 -14.027   2.324  1.00  0.00     0.243 C 
HETATM   10  N   UNL     1      38.480 -14.439   1.095  1.00  0.00    -0.235 NA
HETATM   11  C   UNL     1      38.968 -14.004  -0.008  1.00  0.00     0.173 C 
HETATM   12  S   UNL     1      41.836 -11.468   0.794  1.00  0.00    -0.074 SA
HETATM   13  C   UNL     1      40.710 -13.129  -2.682  1.00  0.00     0.068 C 
HETATM   14  C   UNL     1      41.915 -12.703  -3.543  1.00  0.00     0.240 C 
HETATM   15  H   UNL     1      40.414 -12.477   3.072  1.00  0.00     0.162 HD
ENDROOT
BRANCH   9  16
HETATM   16  C   UNL     1      40.118 -15.129   2.867  1.00  0.00    -0.012 A 
HETATM   17  C   UNL     1      40.747 -15.023   4.124  1.00  0.00     0.050 A 
HETATM   18  C   UNL     1      41.530 -16.063   4.634  1.00  0.00     0.103 A 
HETATM   19  C   UNL     1      41.672 -17.237   3.885  1.00  0.00     0.112 A 
HETATM   20  C   UNL     1      41.085 -17.359   2.628  1.00  0.00     0.041 A 
HETATM   21  C   UNL     1      40.335 -16.300   2.114  1.00  0.00     0.014 A 
BRANCH  18  22
HETATM   22  O   UNL     1      42.140 -16.036   5.862  1.00  0.00    -0.349 OA
BRANCH  22  23
HETATM   23  C   UNL     1      43.024 -14.939   6.099  1.00  0.00     0.171 C 
HETATM   24  C   UNL     1      43.974 -15.334   7.216  1.00  0.00     0.034 C 
ENDBRANCH  22  23
ENDBRANCH  18  22
BRANCH  19  25
HETATM   25  O   UNL     1      42.353 -18.308   4.512  1.00  0.00    -0.272 OA
BRANCH  25  26
HETATM   26  C   UNL     1      43.720 -18.504   4.418  1.00  0.00     0.298 C 
HETATM   27  O   UNL     1      44.603 -17.735   4.761  1.00  0.00    -0.259 OA
BRANCH  26  28
HETATM   28  C   UNL     1      43.973 -19.811   3.753  1.00  0.00     0.039 A 
HETATM   29  C   UNL     1      43.616 -19.947   2.405  1.00  0.00     0.017 A 
HETATM   30  C   UNL     1      43.811 -21.162   1.746  1.00  0.00     0.001 A 
HETATM   31  C   UNL     1      44.369 -22.244   2.427  1.00  0.00     0.000 A 
HETATM   32  C   UNL     1      44.738 -22.113   3.765  1.00  0.00     0.001 A 
HETATM   33  C   UNL     1      44.541 -20.900   4.430  1.00  0.00     0.017 A 
ENDBRANCH  26  28
ENDBRANCH  25  26
ENDBRANCH  19  25
ENDBRANCH   9  16
BRANCH  11  34
HETATM   34  O   UNL     1      38.391 -14.393  -1.158  1.00  0.00    -0.344 OA
HETATM   35  H   UNL     1      38.719 -13.791  -1.849  1.00  0.00     0.219 HD
ENDBRANCH  11  34
BRANCH   1  36
HETATM   36  C   UNL     1      41.346 -10.191  -3.598  1.00  0.00     0.231 C 
HETATM   37  C   UNL     1      41.931  -9.187  -4.574  1.00  0.00     0.034 C 
ENDBRANCH   1  36
TORSDOF 8
ENDMDL
MODEL 4
REMARK VINA RESULT:      -8.2      2.266      2.921
REMARK  8 active torsions:
REMARK  status: ('A' for Active; 'I' for Inactive)
REMARK    1  A    between atoms: C_2  and  N_3 
REMARK    2  A    between atoms: C_11  and  C_12 
REMARK    3  A    between atoms: C_14  and  O_15 
REMARK    4  A    between atoms: O_15  and  C_16 
REMARK    5  A    between atoms: C_18  and  O_19 
REMARK    6  A    between atoms: O_19  and  C_20 
REMARK    7  A    between atoms: C_20  and  C_21 
REMARK    8  A    between atoms: C_31  and  O_32 
ROOT
HETATM    1  N   UNL     1      42.644  -9.886  -3.833  1.00  0.00    -0.067 N 
HETATM    2  H   UNL     1      43.507  -9.573  -4.292  1.00  0.00     0.280 HD
HETATM    3  C   UNL     1      43.009 -10.079  -2.358  1.00  0.00     0.281 C 
HETATM    4  C   UNL     1      41.989 -10.917  -1.667  1.00  0.00     0.018 A 
HETATM    5  C   UNL     1      41.074 -11.743  -2.299  1.00  0.00    -0.024 A 
HETATM    6  C   UNL     1      40.234 -12.399  -1.346  1.00  0.00     0.057 A 
HETATM    7  C   UNL     1      40.573 -12.064  -0.059  1.00  0.00     0.087 A 
HETATM    8  N   UNL     1      39.920 -12.573   1.002  1.00  0.00    -0.357 N 
HETATM    9  C   UNL     1      39.197 -13.826   0.782  1.00  0.00     0.243 C 
HETATM   10  N   UNL     1      38.578 -13.975  -0.556  1.00  0.00    -0.235 NA
HETATM   11  C   UNL     1      39.126 -13.306  -1.503  1.00  0.00     0.173 C 
HETATM   12  S   UNL     1      41.856 -10.960   0.029  1.00  0.00    -0.074 SA
HETATM   13  C   UNL     1      41.019 -11.851  -3.794  1.00  0.00     0.068 C 
HETATM   14  C   UNL     1      42.267 -11.233  -4.455  1.00  0.00     0.240 C 
HETATM   15  H   UNL     1      40.313 -12.454   1.930  1.00  0.00     0.162 HD
ENDROOT
BRANCH   9  16
HETATM   16  C   UNL     1      40.111 -15.005   1.143  1.00  0.00    -0.012 A 
HETATM   17  C   UNL     1      40.210 -15.495   2.460  1.00  0.00     0.050 A 
HETATM   18  C   UNL     1      40.996 -16.611   2.764  1.00  0.00     0.103 A 
HETATM   19  C   UNL     1      41.680 -17.262   1.729  1.00  0.00     0.112 A 
HETATM   20  C   UNL     1      41.622 -16.783   0.423  1.00  0.00     0.041 A 
HETATM   21  C   UNL     1      40.862 -15.647   0.139  1.00  0.00     0.014 A 
BRANCH  18  22
HETATM   22  O   UNL     1      41.108 -17.156   4.017  1.00  0.00    -0.349 OA
BRANCH  22  23
HETATM   23  C   UNL     1      41.624 -16.294   5.032  1.00  0.00     0.171 C 
HETATM   24  C   UNL     1      43.139 -16.314   4.940  1.00  0.00     0.034 C 
ENDBRANCH  22  23
ENDBRANCH  18  22
BRANCH  19  25
HETATM   25  O   UNL     1      42.339 -18.467   2.068  1.00  0.00    -0.272 OA
BRANCH  25  26
HETATM   26  C   UNL     1      43.717 -18.601   2.101  1.00  0.00     0.298 C 
HETATM   27  O   UNL     1      44.546 -17.834   1.640  1.00  0.00    -0.259 OA
BRANCH  26  28
HETATM   28  C   UNL     1      44.058 -19.898   2.745  1.00  0.00     0.039 A 
HETATM   29  C   UNL     1      44.464 -19.884   4.085  1.00  0.00     0.017 A 
HETATM   30  C   UNL     1      44.819 -21.074   4.725  1.00  0.00     0.001 A 
HETATM   31  C   UNL     1      44.761 -22.282   4.032  1.00  0.00     0.000 A 
HETATM   32  C   UNL     1      44.346 -22.307   2.701  1.00  0.00     0.001 A 
HETATM   33  C   UNL     1      43.994 -21.118   2.056  1.00  0.00     0.017 A 
ENDBRANCH  26  28
ENDBRANCH  25  26
ENDBRANCH  19  25
ENDBRANCH   9  16
BRANCH  11  34
HETATM   34  O   UNL     1      38.641 -13.448  -2.748  1.00  0.00    -0.344 OA
HETATM   35  H   UNL     1      38.123 -14.272  -2.751  1.00  0.00     0.219 HD
ENDBRANCH  11  34
BRANCH   1  36
HETATM   36  C   UNL     1      41.628  -8.777  -4.014  1.00  0.00     0.231 C 
HETATM   37  C   UNL     1      42.124  -7.480  -3.401  1.00  0.00     0.034 C 
ENDBRANCH   1  36
TORSDOF 8
ENDMDL
MODEL 5
REMARK VINA RESULT:      -8.2      6.619     10.427
REMARK  8 active torsions:
REMARK  status: ('A' for Active; 'I' for Inactive)
REMARK    1  A    between atoms: C_2  and  N_3 
REMARK    2  A    between atoms: C_11  and  C_12 
REMARK    3  A    between atoms: C_14  and  O_15 
REMARK    4  A    between atoms: O_15  and  C_16 
REMARK    5  A    between atoms: C_18  and  O_19 
REMARK    6  A    between atoms: O_19  and  C_20 
REMARK    7  A    between atoms: C_20  and  C_21 
REMARK    8  A    between atoms: C_31  and  O_32 
ROOT
HETATM    1  N   UNL     1      44.069 -18.017   6.503  1.00  0.00    -0.067 N 
HETATM    2  H   UNL     1      44.668 -18.641   7.056  1.00  0.00     0.280 HD
HETATM    3  C   UNL     1      44.684 -16.621   6.647  1.00  0.00     0.281 C 
HETATM    4  C   UNL     1      43.705 -15.570   6.255  1.00  0.00     0.018 A 
HETATM    5  C   UNL     1      42.334 -15.749   6.165  1.00  0.00    -0.024 A 
HETATM    6  C   UNL     1      41.686 -14.543   5.754  1.00  0.00     0.057 A 
HETATM    7  C   UNL     1      42.585 -13.519   5.588  1.00  0.00     0.087 A 
HETATM    8  N   UNL     1      42.195 -12.286   5.212  1.00  0.00    -0.357 N 
HETATM    9  C   UNL     1      40.794 -11.944   5.461  1.00  0.00     0.243 C 
HETATM   10  N   UNL     1      39.830 -13.059   5.305  1.00  0.00    -0.235 NA
HETATM   11  C   UNL     1      40.306 -14.236   5.482  1.00  0.00     0.173 C 
HETATM   12  S   UNL     1      44.188 -13.981   5.886  1.00  0.00    -0.074 SA
HETATM   13  C   UNL     1      41.699 -17.079   6.447  1.00  0.00     0.068 C 
HETATM   14  C   UNL     1      42.680 -18.041   7.144  1.00  0.00     0.240 C 
HETATM   15  H   UNL     1      42.850 -11.516   5.283  1.00  0.00     0.162 HD
ENDROOT
BRANCH   9  16
HETATM   16  C   UNL     1      40.678 -11.251   6.825  1.00  0.00    -0.012 A 
HETATM   17  C   UNL     1      41.811 -10.957   7.610  1.00  0.00     0.050 A 
HETATM   18  C   UNL     1      41.698 -10.267   8.821  1.00  0.00     0.103 A 
HETATM   19  C   UNL     1      40.431  -9.847   9.247  1.00  0.00     0.112 A 
HETATM   20  C   UNL     1      39.292 -10.148   8.505  1.00  0.00     0.041 A 
HETATM   21  C   UNL     1      39.415 -10.868   7.316  1.00  0.00     0.014 A 
BRANCH  18  22
HETATM   22  O   UNL     1      42.762  -9.921   9.613  1.00  0.00    -0.349 OA
BRANCH  22  23
HETATM   23  C   UNL     1      43.675 -10.973   9.931  1.00  0.00     0.171 C 
HETATM   24  C   UNL     1      44.308 -10.655  11.275  1.00  0.00     0.034 C 
ENDBRANCH  22  23
ENDBRANCH  18  22
BRANCH  19  25
HETATM   25  O   UNL     1      40.393  -9.029  10.401  1.00  0.00    -0.272 OA
BRANCH  25  26
HETATM   26  C   UNL     1      39.894  -9.453  11.622  1.00  0.00     0.298 C 
HETATM   27  O   UNL     1      38.748  -9.784  11.878  1.00  0.00    -0.259 OA
BRANCH  26  28
HETATM   28  C   UNL     1      40.981  -9.383  12.635  1.00  0.00     0.039 A 
HETATM   29  C   UNL     1      41.751  -8.215  12.699  1.00  0.00     0.017 A 
HETATM   30  C   UNL     1      42.799  -8.113  13.617  1.00  0.00     0.001 A 
HETATM   31  C   UNL     1      43.077  -9.173  14.479  1.00  0.00     0.000 A 
HETATM   32  C   UNL     1      42.308 -10.335  14.429  1.00  0.00     0.001 A 
HETATM   33  C   UNL     1      41.261 -10.443  13.510  1.00  0.00     0.017 A 
ENDBRANCH  26  28
ENDBRANCH  25  26
ENDBRANCH  19  25
ENDBRANCH   9  16
BRANCH  11  34
HETATM   34  O   UNL     1      39.464 -15.282   5.409  1.00  0.00    -0.344 OA
HETATM   35  H   UNL     1      39.802 -15.859   4.702  1.00  0.00     0.219 HD
ENDBRANCH  11  34
BRANCH   1  36
HETATM   36  C   UNL     1      44.136 -18.507   5.071  1.00  0.00     0.231 C 
HETATM   37  C   UNL     1      44.776 -19.882   4.995  1.00  0.00     0.034 C 
ENDBRANCH   1  36
TORSDOF 8
ENDMDL
MODEL 6
REMARK VINA RESULT:      -8.0      3.940      6.137
REMARK  8 active torsions:
REMARK  status: ('A' for Active; 'I' for Inactive)
REMARK    1  A    between atoms: C_2  and  N_3 
REMARK    2  A    between atoms: C_11  and  C_12 
REMARK    3  A    between atoms: C_14  and  O_15 
REMARK    4  A    between atoms: O_15  and  C_16 
REMARK    5  A    between atoms: C_18  and  O_19 
REMARK    6  A    between atoms: O_19  and  C_20 
REMARK    7  A    between atoms: C_20  and  C_21 
REMARK    8  A    between atoms: C_31  and  O_32 
ROOT
HETATM    1  N   UNL     1      39.551 -13.125  -1.849  1.00  0.00    -0.067 N 
HETATM    2  H   UNL     1      39.340 -12.190  -2.217  1.00  0.00     0.280 HD
HETATM    3  C   UNL     1      39.007 -13.136  -0.417  1.00  0.00     0.281 C 
HETATM    4  C   UNL     1      39.604 -14.255   0.365  1.00  0.00     0.018 A 
HETATM    5  C   UNL     1      40.760 -14.939   0.026  1.00  0.00    -0.024 A 
HETATM    6  C   UNL     1      41.051 -15.960   0.984  1.00  0.00     0.057 A 
HETATM    7  C   UNL     1      40.130 -15.974   2.001  1.00  0.00     0.087 A 
HETATM    8  N   UNL     1      40.212 -16.849   3.021  1.00  0.00    -0.357 N 
HETATM    9  C   UNL     1      41.532 -17.430   3.274  1.00  0.00     0.243 C 
HETATM   10  N   UNL     1      42.356 -17.682   2.069  1.00  0.00    -0.235 NA
HETATM   11  C   UNL     1      42.098 -16.946   1.052  1.00  0.00     0.173 C 
HETATM   12  S   UNL     1      38.911 -14.811   1.816  1.00  0.00    -0.074 SA
HETATM   13  C   UNL     1      41.528 -14.608  -1.220  1.00  0.00     0.068 C 
HETATM   14  C   UNL     1      41.075 -13.266  -1.827  1.00  0.00     0.240 C 
HETATM   15  H   UNL     1      39.633 -16.709   3.842  1.00  0.00     0.162 HD
ENDROOT
BRANCH   9  16
HETATM   16  C   UNL     1      42.264 -16.580   4.322  1.00  0.00    -0.012 A 
HETATM   17  C   UNL     1      41.918 -15.236   4.566  1.00  0.00     0.050 A 
HETATM   18  C   UNL     1      42.549 -14.494   5.568  1.00  0.00     0.103 A 
HETATM   19  C   UNL     1      43.531 -15.110   6.354  1.00  0.00     0.112 A 
HETATM   20  C   UNL     1      43.912 -16.428   6.117  1.00  0.00     0.041 A 
HETATM   21  C   UNL     1      43.299 -17.148   5.090  1.00  0.00     0.014 A 
BRANCH  18  22
HETATM   22  O   UNL     1      42.236 -13.195   5.878  1.00  0.00    -0.349 OA
BRANCH  22  23
HETATM   23  C   UNL     1      40.978 -12.722   5.395  1.00  0.00     0.171 C 
HETATM   24  C   UNL     1      39.944 -12.939   6.487  1.00  0.00     0.034 C 
ENDBRANCH  22  23
ENDBRANCH  18  22
BRANCH  19  25
HETATM   25  O   UNL     1      44.030 -14.359   7.444  1.00  0.00    -0.272 OA
BRANCH  25  26
HETATM   26  C   UNL     1      45.110 -13.497   7.348  1.00  0.00     0.298 C 
HETATM   27  O   UNL     1      45.960 -13.471   6.473  1.00  0.00    -0.259 OA
BRANCH  26  28
HETATM   28  C   UNL     1      45.126 -12.613   8.545  1.00  0.00     0.039 A 
HETATM   29  C   UNL     1      44.148 -12.812   9.528  1.00  0.00     0.017 A 
HETATM   30  C   UNL     1      44.108 -11.991  10.656  1.00  0.00     0.001 A 
HETATM   31  C   UNL     1      45.048 -10.973  10.812  1.00  0.00     0.000 A 
HETATM   32  C   UNL     1      46.033 -10.776   9.844  1.00  0.00     0.001 A 
HETATM   33  C   UNL     1      46.074 -11.592   8.711  1.00  0.00     0.017 A 
ENDBRANCH  26  28
ENDBRANCH  25  26
ENDBRANCH  19  25
ENDBRANCH   9  16
BRANCH  11  34
HETATM   34  O   UNL     1      42.853 -17.093  -0.050  1.00  0.00    -0.344 OA
HETATM   35  H   UNL     1      42.743 -16.278  -0.571  1.00  0.00     0.219 HD
ENDBRANCH  11  34
BRANCH   1  36
HETATM   36  C   UNL     1      38.816 -14.115  -2.730  1.00  0.00     0.231 C 
HETATM   37  C   UNL     1      37.564 -13.494  -3.320  1.00  0.00     0.034 C 
ENDBRANCH   1  36
TORSDOF 8
ENDMDL
MODEL 7
REMARK VINA RESULT:      -7.9      3.190      9.715
REMARK  8 active torsions:
REMARK  status: ('A' for Active; 'I' for Inactive)
REMARK    1  A    between atoms: C_2  and  N_3 
REMARK    2  A    between atoms: C_11  and  C_12 
REMARK    3  A    between atoms: C_14  and  O_15 
REMARK    4  A    between atoms: O_15  and  C_16 
REMARK    5  A    between atoms: C_18  and  O_19 
REMARK    6  A    between atoms: O_19  and  C_20 
REMARK    7  A    between atoms: C_20  and  C_21 
REMARK    8  A    between atoms: C_31  and  O_32 
ROOT
HETATM    1  N   UNL     1      44.688 -18.817   6.573  1.00  0.00    -0.067 N 
HETATM    2  H   UNL     1      45.630 -19.202   6.704  1.00  0.00     0.280 HD
HETATM    3  C   UNL     1      44.382 -18.978   5.080  1.00  0.00     0.281 C 
HETATM    4  C   UNL     1      43.249 -18.100   4.675  1.00  0.00     0.018 A 
HETATM    5  C   UNL     1      42.790 -17.007   5.393  1.00  0.00    -0.024 A 
HETATM    6  C   UNL     1      41.684 -16.389   4.731  1.00  0.00     0.057 A 
HETATM    7  C   UNL     1      41.387 -17.018   3.548  1.00  0.00     0.087 A 
HETATM    8  N   UNL     1      40.386 -16.598   2.752  1.00  0.00    -0.357 N 
HETATM    9  C   UNL     1      39.959 -15.209   2.923  1.00  0.00     0.243 C 
HETATM   10  N   UNL     1      40.009 -14.695   4.312  1.00  0.00    -0.235 NA
HETATM   11  C   UNL     1      40.851 -15.269   5.089  1.00  0.00     0.173 C 
HETATM   12  S   UNL     1      42.387 -18.349   3.229  1.00  0.00    -0.074 SA
HETATM   13  C   UNL     1      43.410 -16.614   6.701  1.00  0.00     0.068 C 
HETATM   14  C   UNL     1      44.755 -17.331   6.931  1.00  0.00     0.240 C 
HETATM   15  H   UNL     1      40.317 -16.962   1.808  1.00  0.00     0.162 HD
ENDROOT
BRANCH   9  16
HETATM   16  C   UNL     1      40.729 -14.320   1.937  1.00  0.00    -0.012 A 
HETATM   17  C   UNL     1      40.802 -14.621   0.562  1.00  0.00     0.050 A 
HETATM   18  C   UNL     1      41.452 -13.769  -0.336  1.00  0.00     0.103 A 
HETATM   19  C   UNL     1      42.023 -12.584   0.145  1.00  0.00     0.112 A 
HETATM   20  C   UNL     1      41.990 -12.274   1.503  1.00  0.00     0.041 A 
HETATM   21  C   UNL     1      41.369 -13.151   2.394  1.00  0.00     0.014 A 
BRANCH  18  22
HETATM   22  O   UNL     1      41.529 -13.987  -1.687  1.00  0.00    -0.349 OA
BRANCH  22  23
HETATM   23  C   UNL     1      40.343 -14.482  -2.311  1.00  0.00     0.171 C 
HETATM   24  C   UNL     1      40.685 -15.794  -2.996  1.00  0.00     0.034 C 
ENDBRANCH  22  23
ENDBRANCH  18  22
BRANCH  19  25
HETATM   25  O   UNL     1      42.537 -11.692  -0.825  1.00  0.00    -0.272 OA
BRANCH  25  26
HETATM   26  C   UNL     1      41.936 -10.488  -1.152  1.00  0.00     0.298 C 
HETATM   27  O   UNL     1      41.295  -9.757  -0.415  1.00  0.00    -0.259 OA
BRANCH  26  28
HETATM   28  C   UNL     1      42.134 -10.232  -2.605  1.00  0.00     0.039 A 
HETATM   29  C   UNL     1      42.152  -8.902  -3.045  1.00  0.00     0.017 A 
HETATM   30  C   UNL     1      42.308  -8.613  -4.402  1.00  0.00     0.001 A 
HETATM   31  C   UNL     1      42.456  -9.650  -5.323  1.00  0.00     0.000 A 
HETATM   32  C   UNL     1      42.451 -10.976  -4.892  1.00  0.00     0.001 A 
HETATM   33  C   UNL     1      42.291 -11.269  -3.535  1.00  0.00     0.017 A 
ENDBRANCH  26  28
ENDBRANCH  25  26
ENDBRANCH  19  25
ENDBRANCH   9  16
BRANCH  11  34
HETATM   34  O   UNL     1      40.980 -14.806   6.344  1.00  0.00    -0.344 OA
HETATM   35  H   UNL     1      41.512 -15.463   6.827  1.00  0.00     0.219 HD
ENDBRANCH  11  34
BRANCH   1  36
HETATM   36  C   UNL     1      43.754 -19.652   7.424  1.00  0.00     0.231 C 
HETATM   37  C   UNL     1      43.701 -21.086   6.929  1.00  0.00     0.034 C 
ENDBRANCH   1  36
TORSDOF 8
ENDMDL
MODEL 8
REMARK VINA RESULT:      -7.8      2.552      3.403
REMARK  8 active torsions:
REMARK  status: ('A' for Active; 'I' for Inactive)
REMARK    1  A    between atoms: C_2  and  N_3 
REMARK    2  A    between atoms: C_11  and  C_12 
REMARK    3  A    between atoms: C_14  and  O_15 
REMARK    4  A    between atoms: O_15  and  C_16 
REMARK    5  A    between atoms: C_18  and  O_19 
REMARK    6  A    between atoms: O_19  and  C_20 
REMARK    7  A    between atoms: C_20  and  C_21 
REMARK    8  A    between atoms: C_31  and  O_32 
ROOT
HETATM    1  N   UNL     1      42.564  -8.820  -1.287  1.00  0.00    -0.067 N 
HETATM    2  H   UNL     1      43.092  -7.965  -1.077  1.00  0.00     0.280 HD
HETATM    3  C   UNL     1      42.074  -9.343   0.067  1.00  0.00     0.281 C 
HETATM    4  C   UNL     1      41.664 -10.771  -0.037  1.00  0.00     0.018 A 
HETATM    5  C   UNL     1      42.031 -11.635  -1.056  1.00  0.00    -0.024 A 
HETATM    6  C   UNL     1      41.459 -12.931  -0.858  1.00  0.00     0.057 A 
HETATM    7  C   UNL     1      40.726 -12.988   0.300  1.00  0.00     0.087 A 
HETATM    8  N   UNL     1      40.105 -14.116   0.692  1.00  0.00    -0.357 N 
HETATM    9  C   UNL     1      40.620 -15.369   0.137  1.00  0.00     0.243 C 
HETATM   10  N   UNL     1      41.110 -15.291  -1.259  1.00  0.00    -0.235 NA
HETATM   11  C   UNL     1      41.510 -14.136  -1.646  1.00  0.00     0.173 C 
HETATM   12  S   UNL     1      40.685 -11.516   1.139  1.00  0.00    -0.074 SA
HETATM   13  C   UNL     1      42.891 -11.179  -2.197  1.00  0.00     0.068 C 
HETATM   14  C   UNL     1      43.548  -9.816  -1.904  1.00  0.00     0.240 C 
HETATM   15  H   UNL     1      39.736 -14.177   1.635  1.00  0.00     0.162 HD
ENDROOT
BRANCH   9  16
HETATM   16  C   UNL     1      41.666 -15.953   1.097  1.00  0.00    -0.012 A 
HETATM   17  C   UNL     1      41.864 -15.432   2.391  1.00  0.00     0.050 A 
HETATM   18  C   UNL     1      42.773 -16.014   3.278  1.00  0.00     0.103 A 
HETATM   19  C   UNL     1      43.484 -17.151   2.873  1.00  0.00     0.112 A 
HETATM   20  C   UNL     1      43.329 -17.671   1.591  1.00  0.00     0.041 A 
HETATM   21  C   UNL     1      42.444 -17.059   0.702  1.00  0.00     0.014 A 
BRANCH  18  22
HETATM   22  O   UNL     1      42.987 -15.576   4.560  1.00  0.00    -0.349 OA
BRANCH  22  23
HETATM   23  C   UNL     1      43.428 -14.224   4.695  1.00  0.00     0.171 C 
HETATM   24  C   UNL     1      44.230 -14.117   5.980  1.00  0.00     0.034 C 
ENDBRANCH  22  23
ENDBRANCH  18  22
BRANCH  19  25
HETATM   25  O   UNL     1      44.279 -17.783   3.858  1.00  0.00    -0.272 OA
BRANCH  25  26
HETATM   26  C   UNL     1      43.774 -18.666   4.798  1.00  0.00     0.298 C 
HETATM   27  O   UNL     1      43.175 -18.392   5.825  1.00  0.00    -0.259 OA
BRANCH  26  28
HETATM   28  C   UNL     1      44.135 -20.053   4.396  1.00  0.00     0.039 A 
HETATM   29  C   UNL     1      44.521 -20.952   5.399  1.00  0.00     0.017 A 
HETATM   30  C   UNL     1      44.894 -22.256   5.068  1.00  0.00     0.001 A 
HETATM   31  C   UNL     1      44.876 -22.670   3.736  1.00  0.00     0.000 A 
HETATM   32  C   UNL     1      44.481 -21.785   2.733  1.00  0.00     0.001 A 
HETATM   33  C   UNL     1      44.111 -20.478   3.060  1.00  0.00     0.017 A 
ENDBRANCH  26  28
ENDBRANCH  25  26
ENDBRANCH  19  25
ENDBRANCH   9  16
BRANCH  11  34
HETATM   34  O   UNL     1      42.018 -14.018  -2.886  1.00  0.00    -0.344 OA
HETATM   35  H   UNL     1      42.749 -14.658  -2.946  1.00  0.00     0.219 HD
ENDBRANCH  11  34
BRANCH   1  36
HETATM   36  C   UNL     1      41.407  -8.409  -2.175  1.00  0.00     0.231 C 
HETATM   37  C   UNL     1      41.905  -7.873  -3.505  1.00  0.00     0.034 C 
ENDBRANCH   1  36
TORSDOF 8
ENDMDL
MODEL 9
REMARK VINA RESULT:      -7.6      3.584      9.699
REMARK  8 active torsions:
REMARK  status: ('A' for Active; 'I' for Inactive)
REMARK    1  A    between atoms: C_2  and  N_3 
REMARK    2  A    between atoms: C_11  and  C_12 
REMARK    3  A    between atoms: C_14  and  O_15 
REMARK    4  A    between atoms: O_15  and  C_16 
REMARK    5  A    between atoms: C_18  and  O_19 
REMARK    6  A    between atoms: O_19  and  C_20 
REMARK    7  A    between atoms: C_20  and  C_21 
REMARK    8  A    between atoms: C_31  and  O_32 
ROOT
HETATM    1  N   UNL     1      44.596 -18.055   6.486  1.00  0.00    -0.067 N 
HETATM    2  H   UNL     1      45.553 -18.342   6.725  1.00  0.00     0.280 HD
HETATM    3  C   UNL     1      44.413 -18.424   5.011  1.00  0.00     0.281 C 
HETATM    4  C   UNL     1      43.251 -17.699   4.426  1.00  0.00     0.018 A 
HETATM    5  C   UNL     1      42.662 -16.567   4.966  1.00  0.00    -0.024 A 
HETATM    6  C   UNL     1      41.564 -16.128   4.162  1.00  0.00     0.057 A 
HETATM    7  C   UNL     1      41.401 -16.921   3.054  1.00  0.00     0.087 A 
HETATM    8  N   UNL     1      40.432 -16.686   2.150  1.00  0.00    -0.357 N 
HETATM    9  C   UNL     1      39.893 -15.326   2.112  1.00  0.00     0.243 C 
HETATM   10  N   UNL     1      39.805 -14.642   3.424  1.00  0.00    -0.235 NA
HETATM   11  C   UNL     1      40.628 -15.045   4.320  1.00  0.00     0.173 C 
HETATM   12  S   UNL     1      42.517 -18.195   2.973  1.00  0.00    -0.074 SA
HETATM   13  C   UNL     1      43.155 -15.966   6.249  1.00  0.00     0.068 C 
HETATM   14  C   UNL     1      44.528 -16.536   6.653  1.00  0.00     0.240 C 
HETATM   15  H   UNL     1      40.460 -17.168   1.257  1.00  0.00     0.162 HD
ENDROOT
BRANCH   9  16
HETATM   16  C   UNL     1      40.666 -14.506   1.070  1.00  0.00    -0.012 A 
HETATM   17  C   UNL     1      40.722 -14.886  -0.286  1.00  0.00     0.050 A 
HETATM   18  C   UNL     1      41.375 -14.095  -1.236  1.00  0.00     0.103 A 
HETATM   19  C   UNL     1      41.965 -12.892  -0.829  1.00  0.00     0.112 A 
HETATM   20  C   UNL     1      41.949 -12.505   0.509  1.00  0.00     0.041 A 
HETATM   21  C   UNL     1      41.325 -13.321   1.454  1.00  0.00     0.014 A 
BRANCH  18  22
HETATM   22  O   UNL     1      41.436 -14.392  -2.574  1.00  0.00    -0.349 OA
BRANCH  22  23
HETATM   23  C   UNL     1      40.963 -15.685  -2.951  1.00  0.00     0.171 C 
HETATM   24  C   UNL     1      39.678 -15.503  -3.741  1.00  0.00     0.034 C 
ENDBRANCH  22  23
ENDBRANCH  18  22
BRANCH  19  25
HETATM   25  O   UNL     1      42.482 -12.064  -1.853  1.00  0.00    -0.272 OA
BRANCH  25  26
HETATM   26  C   UNL     1      41.780 -11.009  -2.410  1.00  0.00     0.298 C 
HETATM   27  O   UNL     1      40.824 -11.072  -3.166  1.00  0.00    -0.259 OA
BRANCH  26  28
HETATM   28  C   UNL     1      42.423  -9.732  -1.994  1.00  0.00     0.039 A 
HETATM   29  C   UNL     1      43.744  -9.778  -1.530  1.00  0.00     0.017 A 
HETATM   30  C   UNL     1      44.379  -8.610  -1.104  1.00  0.00     0.001 A 
HETATM   31  C   UNL     1      43.702  -7.391  -1.147  1.00  0.00     0.000 A 
HETATM   32  C   UNL     1      42.391  -7.336  -1.619  1.00  0.00     0.001 A 
HETATM   33  C   UNL     1      41.750  -8.503  -2.043  1.00  0.00     0.017 A 
ENDBRANCH  26  28
ENDBRANCH  25  26
ENDBRANCH  19  25
ENDBRANCH   9  16
BRANCH  11  34
HETATM   34  O   UNL     1      40.631 -14.421   5.511  1.00  0.00    -0.344 OA
HETATM   35  H   UNL     1      41.403 -14.760   5.997  1.00  0.00     0.219 HD
ENDBRANCH  11  34
BRANCH   1  36
HETATM   36  C   UNL     1      43.667 -18.853   7.378  1.00  0.00     0.231 C 
HETATM   37  C   UNL     1      43.697 -20.327   7.016  1.00  0.00     0.034 C 
ENDBRANCH   1  36
TORSDOF 8
ENDMDL
MODEL 10
REMARK VINA RESULT:      -7.6      5.480      8.923
REMARK  8 active torsions:
REMARK  status: ('A' for Active; 'I' for Inactive)
REMARK    1  A    between atoms: C_2  and  N_3 
REMARK    2  A    between atoms: C_11  and  C_12 
REMARK    3  A    between atoms: C_14  and  O_15 
REMARK    4  A    between atoms: O_15  and  C_16 
REMARK    5  A    between atoms: C_18  and  O_19 
REMARK    6  A    between atoms: O_19  and  C_20 
REMARK    7  A    between atoms: C_20  and  C_21 
REMARK    8  A    between atoms: C_31  and  O_32 
ROOT
HETATM    1  N   UNL     1      44.068 -19.012   2.706  1.00  0.00    -0.067 N 
HETATM    2  H   UNL     1      44.949 -19.489   2.482  1.00  0.00     0.280 HD
HETATM    3  C   UNL     1      44.306 -17.534   2.379  1.00  0.00     0.281 C 
HETATM    4  C   UNL     1      43.282 -16.676   3.037  1.00  0.00     0.018 A 
HETATM    5  C   UNL     1      42.483 -17.061   4.102  1.00  0.00    -0.024 A 
HETATM    6  C   UNL     1      41.601 -16.003   4.488  1.00  0.00     0.057 A 
HETATM    7  C   UNL     1      41.797 -14.879   3.726  1.00  0.00     0.087 A 
HETATM    8  N   UNL     1      41.082 -13.756   3.922  1.00  0.00    -0.357 N 
HETATM    9  C   UNL     1      40.463 -13.599   5.239  1.00  0.00     0.243 C 
HETATM   10  N   UNL     1      39.981 -14.852   5.866  1.00  0.00    -0.235 NA
HETATM   11  C   UNL     1      40.571 -15.927   5.492  1.00  0.00     0.173 C 
HETATM   12  S   UNL     1      42.994 -15.073   2.542  1.00  0.00    -0.074 SA
HETATM   13  C   UNL     1      42.573 -18.437   4.691  1.00  0.00     0.068 C 
HETATM   14  C   UNL     1      43.835 -19.179   4.209  1.00  0.00     0.240 C 
HETATM   15  H   UNL     1      41.379 -12.894   3.476  1.00  0.00     0.162 HD
ENDROOT
BRANCH   9  16
HETATM   16  C   UNL     1      41.411 -12.810   6.151  1.00  0.00    -0.012 A 
HETATM   17  C   UNL     1      41.009 -11.625   6.799  1.00  0.00     0.050 A 
HETATM   18  C   UNL     1      41.861 -10.952   7.679  1.00  0.00     0.103 A 
HETATM   19  C   UNL     1      43.133 -11.482   7.932  1.00  0.00     0.112 A 
HETATM   20  C   UNL     1      43.567 -12.636   7.285  1.00  0.00     0.041 A 
HETATM   21  C   UNL     1      42.719 -13.280   6.382  1.00  0.00     0.014 A 
BRANCH  18  22
HETATM   22  O   UNL     1      41.518  -9.814   8.365  1.00  0.00    -0.349 OA
BRANCH  22  23
HETATM   23  C   UNL     1      40.196  -9.783   8.905  1.00  0.00     0.171 C 
HETATM   24  C   UNL     1      40.186 -10.624  10.169  1.00  0.00     0.034 C 
ENDBRANCH  22  23
ENDBRANCH  18  22
BRANCH  19  25
HETATM   25  O   UNL     1      43.894 -10.842   8.938  1.00  0.00    -0.272 OA
BRANCH  25  26
HETATM   26  C   UNL     1      44.343 -11.482  10.081  1.00  0.00     0.298 C 
HETATM   27  O   UNL     1      45.111 -12.428  10.146  1.00  0.00    -0.259 OA
BRANCH  26  28
HETATM   28  C   UNL     1      43.679 -10.872  11.265  1.00  0.00     0.039 A 
HETATM   29  C   UNL     1      43.527  -9.480  11.293  1.00  0.00     0.017 A 
HETATM   30  C   UNL     1      42.933  -8.860  12.395  1.00  0.00     0.001 A 
HETATM   31  C   UNL     1      42.480  -9.628  13.467  1.00  0.00     0.000 A 
HETATM   32  C   UNL     1      42.616 -11.016  13.441  1.00  0.00     0.001 A 
HETATM   33  C   UNL     1      43.214 -11.640  12.343  1.00  0.00     0.017 A 
ENDBRANCH  26  28
ENDBRANCH  25  26
ENDBRANCH  19  25
ENDBRANCH   9  16
BRANCH  11  34
HETATM   34  O   UNL     1      40.213 -17.086   6.071  1.00  0.00    -0.344 OA
HETATM   35  H   UNL     1      40.836 -17.761   5.746  1.00  0.00     0.219 HD
ENDBRANCH  11  34
BRANCH   1  36
HETATM   36  C   UNL     1      43.006 -19.615   1.810  1.00  0.00     0.231 C 
HETATM   37  C   UNL     1      43.090 -21.130   1.809  1.00  0.00     0.034 C 
ENDBRANCH   1  36
TORSDOF 8
ENDMDL
