MODEL 1
REMARK VINA RESULT:      -9.1      0.000      0.000
REMARK  6 active torsions:
REMARK  status: ('A' for Active; 'I' for Inactive)
REMARK    1  A    between atoms: O_2  and  C_3 
REMARK    2  A    between atoms: C_6  and  C_7 
REMARK    3  A    between atoms: C_12  and  C_13 
REMARK       I    between atoms: C_13  and  N_14 
REMARK    4  A    between atoms: N_14  and  C_15 
REMARK    5  A    between atoms: C_17  and  O_18 
REMARK    6  A    between atoms: C_24  and  C_25 
ROOT
HETATM    1  C   UNL     1      42.779 -16.878   3.574  1.00  0.00     0.118 C 
HETATM    2  N   UNL     1      41.333 -16.868   3.358  1.00  0.00    -0.366 N 
HETATM    3  C   UNL     1      40.716 -15.930   2.612  1.00  0.00     0.123 A 
HETATM    4  N   UNL     1      41.376 -14.810   2.196  1.00  0.00    -0.240 N 
HETATM    5  N   UNL     1      40.676 -14.044   1.340  1.00  0.00    -0.165 NA
HETATM    6  C   UNL     1      39.472 -14.665   1.286  1.00  0.00     0.148 A 
HETATM    7  C   UNL     1      39.453 -15.833   2.098  1.00  0.00     0.089 A 
HETATM    8  C   UNL     1      42.766 -14.548   2.517  1.00  0.00     0.221 C 
HETATM    9  C   UNL     1      43.508 -15.887   2.639  1.00  0.00     0.066 C 
HETATM   10  H   UNL     1      40.839 -17.703   3.675  1.00  0.00     0.161 HD
ENDROOT
BRANCH   6  11
HETATM   11  C   UNL     1      38.373 -14.175   0.433  1.00  0.00     0.276 C 
HETATM   12  N   UNL     1      38.773 -14.020  -0.880  1.00  0.00    -0.322 N 
HETATM   13  H   UNL     1      39.757 -14.233  -1.029  1.00  0.00     0.169 HD
HETATM   14  O   UNL     1      37.253 -13.970   0.888  1.00  0.00    -0.266 OA
BRANCH  12  15
HETATM   15  C   UNL     1      37.997 -13.651  -1.992  1.00  0.00     0.037 A 
HETATM   16  C   UNL     1      37.741 -14.496  -3.074  1.00  0.00     0.066 A 
HETATM   17  C   UNL     1      36.973 -14.037  -4.144  1.00  0.00     0.067 A 
HETATM   18  C   UNL     1      36.452 -12.750  -4.154  1.00  0.00     0.036 A 
HETATM   19  C   UNL     1      36.702 -11.902  -3.077  1.00  0.00     0.005 A 
HETATM   20  C   UNL     1      37.471 -12.351  -2.001  1.00  0.00     0.029 A 
BRANCH  17  21
HETATM   21  O   UNL     1      36.708 -14.837  -5.218  1.00  0.00    -0.361 OA
HETATM   22  H   UNL     1      37.120 -15.703  -5.063  1.00  0.00     0.217 HD
ENDBRANCH  17  21
ENDBRANCH  12  15
ENDBRANCH   6  11
BRANCH   8  23
HETATM   23  C   UNL     1      42.862 -13.709   3.771  1.00  0.00     0.409 C 
HETATM   24  F   UNL     1      42.470 -12.432   3.565  1.00  0.00    -0.169 F 
HETATM   25  F   UNL     1      42.151 -14.199   4.806  1.00  0.00    -0.169 F 
HETATM   26  F   UNL     1      44.157 -13.652   4.182  1.00  0.00    -0.169 F 
ENDBRANCH   8  23
BRANCH   1  27
HETATM   27  C   UNL     1      43.292 -18.293   3.364  1.00  0.00    -0.035 A 
HETATM   28  C   UNL     1      43.009 -18.997   2.180  1.00  0.00     0.012 A 
HETATM   29  C   UNL     1      43.491 -20.292   1.975  1.00  0.00     0.037 A 
HETATM   30  C   UNL     1      44.264 -20.912   2.956  1.00  0.00     0.068 A 
HETATM   31  C   UNL     1      44.530 -20.230   4.145  1.00  0.00     0.037 A 
HETATM   32  C   UNL     1      44.054 -18.931   4.351  1.00  0.00     0.012 A 
BRANCH  30  33
HETATM   33  O   UNL     1      44.799 -22.168   2.877  1.00  0.00    -0.356 OA
HETATM   34  C   UNL     1      44.774 -22.946   4.069  1.00  0.00     0.210 C 
ENDBRANCH  30  33
ENDBRANCH   1  27
TORSDOF 6
ENDMDL
MODEL 2
REMARK VINA RESULT:      -8.9      3.125      3.424
REMARK  6 active torsions:
REMARK  status: ('A' for Active; 'I' for Inactive)
REMARK    1  A    between atoms: O_2  and  C_3 
REMARK    2  A    between atoms: C_6  and  C_7 
REMARK    3  A    between atoms: C_12  and  C_13 
REMARK       I    between atoms: C_13  and  N_14 
REMARK    4  A    between atoms: N_14  and  C_15 
REMARK    5  A    between atoms: C_17  and  O_18 
REMARK    6  A    between atoms: C_24  and  C_25 
ROOT
HETATM    1  C   UNL     1      41.555 -17.175   2.811  1.00  0.00     0.118 C 
HETATM    2  N   UNL     1      41.269 -17.333   1.386  1.00  0.00    -0.366 N 
HETATM    3  C   UNL     1      41.209 -16.288   0.537  1.00  0.00     0.123 A 
HETATM    4  N   UNL     1      41.191 -15.002   0.997  1.00  0.00    -0.240 N 
HETATM    5  N   UNL     1      41.279 -14.071   0.030  1.00  0.00    -0.165 NA
HETATM    6  C   UNL     1      41.254 -14.805  -1.109  1.00  0.00     0.148 A 
HETATM    7  C   UNL     1      41.177 -16.197  -0.828  1.00  0.00     0.089 A 
HETATM    8  C   UNL     1      41.239 -14.669   2.407  1.00  0.00     0.221 C 
HETATM    9  C   UNL     1      42.043 -15.748   3.145  1.00  0.00     0.066 C 
HETATM   10  H   UNL     1      41.275 -18.294   1.043  1.00  0.00     0.161 HD
ENDROOT
BRANCH   6  11
HETATM   11  C   UNL     1      41.352 -14.187  -2.444  1.00  0.00     0.276 C 
HETATM   12  N   UNL     1      41.069 -12.836  -2.406  1.00  0.00    -0.322 N 
HETATM   13  H   UNL     1      40.809 -12.505  -1.480  1.00  0.00     0.169 HD
HETATM   14  O   UNL     1      41.673 -14.842  -3.430  1.00  0.00    -0.266 OA
BRANCH  12  15
HETATM   15  C   UNL     1      41.133 -11.900  -3.453  1.00  0.00     0.037 A 
HETATM   16  C   UNL     1      40.044 -11.562  -4.260  1.00  0.00     0.066 A 
HETATM   17  C   UNL     1      40.206 -10.635  -5.289  1.00  0.00     0.067 A 
HETATM   18  C   UNL     1      41.435 -10.036  -5.528  1.00  0.00     0.036 A 
HETATM   19  C   UNL     1      42.525 -10.367  -4.727  1.00  0.00     0.005 A 
HETATM   20  C   UNL     1      42.374 -11.295  -3.694  1.00  0.00     0.029 A 
BRANCH  17  21
HETATM   21  O   UNL     1      39.162 -10.286  -6.097  1.00  0.00    -0.361 OA
HETATM   22  H   UNL     1      38.398 -10.072  -5.534  1.00  0.00     0.217 HD
ENDBRANCH  17  21
ENDBRANCH  12  15
ENDBRANCH   6  11
BRANCH   8  23
HETATM   23  C   UNL     1      39.838 -14.506   2.951  1.00  0.00     0.409 C 
HETATM   24  F   UNL     1      38.932 -15.237   2.265  1.00  0.00    -0.169 F 
HETATM   25  F   UNL     1      39.725 -14.826   4.257  1.00  0.00    -0.169 F 
HETATM   26  F   UNL     1      39.452 -13.208   2.835  1.00  0.00    -0.169 F 
ENDBRANCH   8  23
BRANCH   1  27
HETATM   27  C   UNL     1      42.592 -18.209   3.216  1.00  0.00    -0.035 A 
HETATM   28  C   UNL     1      43.213 -19.026   2.253  1.00  0.00     0.012 A 
HETATM   29  C   UNL     1      44.179 -19.967   2.618  1.00  0.00     0.037 A 
HETATM   30  C   UNL     1      44.541 -20.113   3.956  1.00  0.00     0.068 A 
HETATM   31  C   UNL     1      43.913 -19.323   4.921  1.00  0.00     0.037 A 
HETATM   32  C   UNL     1      42.950 -18.375   4.559  1.00  0.00     0.012 A 
BRANCH  30  33
HETATM   33  O   UNL     1      45.472 -20.989   4.442  1.00  0.00    -0.356 OA
HETATM   34  C   UNL     1      44.974 -22.117   5.152  1.00  0.00     0.210 C 
ENDBRANCH  30  33
ENDBRANCH   1  27
TORSDOF 6
ENDMDL
MODEL 3
REMARK VINA RESULT:      -8.8      4.158      6.965
REMARK  6 active torsions:
REMARK  status: ('A' for Active; 'I' for Inactive)
REMARK    1  A    between atoms: O_2  and  C_3 
REMARK    2  A    between atoms: C_6  and  C_7 
REMARK    3  A    between atoms: C_12  and  C_13 
REMARK       I    between atoms: C_13  and  N_14 
REMARK    4  A    between atoms: N_14  and  C_15 
REMARK    5  A    between atoms: C_17  and  O_18 
REMARK    6  A    between atoms: C_24  and  C_25 
ROOT
HETATM    1  C   UNL     1      42.709 -16.848   2.493  1.00  0.00     0.118 C 
HETATM    2  N   UNL     1      42.926 -15.709   3.383  1.00  0.00    -0.366 N 
HETATM    3  C   UNL     1      41.932 -14.877   3.754  1.00  0.00     0.123 A 
HETATM    4  N   UNL     1      40.711 -14.918   3.146  1.00  0.00    -0.240 N 
HETATM    5  N   UNL     1      39.782 -14.134   3.723  1.00  0.00    -0.165 NA
HETATM    6  C   UNL     1      40.480 -13.490   4.690  1.00  0.00     0.148 A 
HETATM    7  C   UNL     1      41.840 -13.908   4.715  1.00  0.00     0.089 A 
HETATM    8  C   UNL     1      40.393 -15.844   2.077  1.00  0.00     0.221 C 
HETATM    9  C   UNL     1      41.206 -17.132   2.277  1.00  0.00     0.066 C 
HETATM   10  H   UNL     1      43.841 -15.674   3.833  1.00  0.00     0.161 HD
ENDROOT
BRANCH   6  11
HETATM   11  C   UNL     1      39.845 -12.525   5.607  1.00  0.00     0.276 C 
HETATM   12  N   UNL     1      40.715 -12.107   6.594  1.00  0.00    -0.322 N 
HETATM   13  H   UNL     1      41.626 -12.557   6.545  1.00  0.00     0.169 HD
HETATM   14  O   UNL     1      38.686 -12.159   5.447  1.00  0.00    -0.266 OA
BRANCH  12  15
HETATM   15  C   UNL     1      40.503 -11.144   7.595  1.00  0.00     0.037 A 
HETATM   16  C   UNL     1      39.431 -11.178   8.491  1.00  0.00     0.066 A 
HETATM   17  C   UNL     1      39.290 -10.168   9.441  1.00  0.00     0.067 A 
HETATM   18  C   UNL     1      40.200  -9.122   9.516  1.00  0.00     0.036 A 
HETATM   19  C   UNL     1      41.271  -9.081   8.628  1.00  0.00     0.005 A 
HETATM   20  C   UNL     1      41.422 -10.088   7.671  1.00  0.00     0.029 A 
BRANCH  17  21
HETATM   21  O   UNL     1      38.252 -10.171  10.328  1.00  0.00    -0.361 OA
HETATM   22  H   UNL     1      37.478 -10.567   9.891  1.00  0.00     0.217 HD
ENDBRANCH  17  21
ENDBRANCH  12  15
ENDBRANCH   6  11
BRANCH   8  23
HETATM   23  C   UNL     1      40.643 -15.196   0.735  1.00  0.00     0.409 C 
HETATM   24  F   UNL     1      39.532 -14.620   0.227  1.00  0.00    -0.169 F 
HETATM   25  F   UNL     1      41.619 -14.265   0.757  1.00  0.00    -0.169 F 
HETATM   26  F   UNL     1      41.031 -16.141  -0.162  1.00  0.00    -0.169 F 
ENDBRANCH   8  23
BRANCH   1  27
HETATM   27  C   UNL     1      43.408 -18.063   3.080  1.00  0.00    -0.035 A 
HETATM   28  C   UNL     1      43.695 -19.187   2.283  1.00  0.00     0.012 A 
HETATM   29  C   UNL     1      44.351 -20.301   2.814  1.00  0.00     0.037 A 
HETATM   30  C   UNL     1      44.730 -20.314   4.155  1.00  0.00     0.068 A 
HETATM   31  C   UNL     1      44.427 -19.214   4.960  1.00  0.00     0.037 A 
HETATM   32  C   UNL     1      43.775 -18.094   4.430  1.00  0.00     0.012 A 
BRANCH  30  33
HETATM   33  O   UNL     1      45.379 -21.335   4.793  1.00  0.00    -0.356 OA
HETATM   34  C   UNL     1      44.776 -22.621   4.713  1.00  0.00     0.210 C 
ENDBRANCH  30  33
ENDBRANCH   1  27
TORSDOF 6
ENDMDL
MODEL 4
REMARK VINA RESULT:      -8.7      4.477      8.152
REMARK  6 active torsions:
REMARK  status: ('A' for Active; 'I' for Inactive)
REMARK    1  A    between atoms: O_2  and  C_3 
REMARK    2  A    between atoms: C_6  and  C_7 
REMARK    3  A    between atoms: C_12  and  C_13 
REMARK       I    between atoms: C_13  and  N_14 
REMARK    4  A    between atoms: N_14  and  C_15 
REMARK    5  A    between atoms: C_17  and  O_18 
REMARK    6  A    between atoms: C_24  and  C_25 
ROOT
HETATM    1  C   UNL     1      42.530 -16.770   2.671  1.00  0.00     0.118 C 
HETATM    2  N   UNL     1      43.354 -15.754   3.324  1.00  0.00    -0.366 N 
HETATM    3  C   UNL     1      42.830 -14.772   4.084  1.00  0.00     0.123 A 
HETATM    4  N   UNL     1      41.485 -14.537   4.107  1.00  0.00    -0.240 N 
HETATM    5  N   UNL     1      41.101 -13.627   5.021  1.00  0.00    -0.165 NA
HETATM    6  C   UNL     1      42.277 -13.193   5.537  1.00  0.00     0.148 A 
HETATM    7  C   UNL     1      43.383 -13.868   4.948  1.00  0.00     0.089 A 
HETATM    8  C   UNL     1      40.535 -15.312   3.334  1.00  0.00     0.221 C 
HETATM    9  C   UNL     1      41.071 -16.743   3.179  1.00  0.00     0.066 C 
HETATM   10  H   UNL     1      44.360 -15.926   3.301  1.00  0.00     0.161 HD
ENDROOT
BRANCH   6  11
HETATM   11  C   UNL     1      42.340 -12.186   6.612  1.00  0.00     0.276 C 
HETATM   12  N   UNL     1      43.277 -12.517   7.571  1.00  0.00    -0.322 N 
HETATM   13  H   UNL     1      43.735 -13.407   7.396  1.00  0.00     0.169 HD
HETATM   14  O   UNL     1      41.635 -11.182   6.589  1.00  0.00    -0.266 OA
BRANCH  12  15
HETATM   15  C   UNL     1      43.675 -11.773   8.696  1.00  0.00     0.037 A 
HETATM   16  C   UNL     1      42.808 -10.975   9.445  1.00  0.00     0.066 A 
HETATM   17  C   UNL     1      43.297 -10.257  10.536  1.00  0.00     0.067 A 
HETATM   18  C   UNL     1      44.636 -10.322  10.896  1.00  0.00     0.036 A 
HETATM   19  C   UNL     1      45.506 -11.117  10.154  1.00  0.00     0.005 A 
HETATM   20  C   UNL     1      45.027 -11.839   9.059  1.00  0.00     0.029 A 
BRANCH  17  21
HETATM   21  O   UNL     1      42.476  -9.465  11.286  1.00  0.00    -0.361 OA
HETATM   22  H   UNL     1      42.343  -8.626  10.813  1.00  0.00     0.217 HD
ENDBRANCH  17  21
ENDBRANCH  12  15
ENDBRANCH   6  11
BRANCH   8  23
HETATM   23  C   UNL     1      40.270 -14.639   2.007  1.00  0.00     0.409 C 
HETATM   24  F   UNL     1      40.155 -15.526   0.995  1.00  0.00    -0.169 F 
HETATM   25  F   UNL     1      39.168 -13.862   2.004  1.00  0.00    -0.169 F 
HETATM   26  F   UNL     1      41.316 -13.829   1.690  1.00  0.00    -0.169 F 
ENDBRANCH   8  23
BRANCH   1  27
HETATM   27  C   UNL     1      43.159 -18.133   2.909  1.00  0.00    -0.035 A 
HETATM   28  C   UNL     1      43.108 -19.135   1.923  1.00  0.00     0.012 A 
HETATM   29  C   UNL     1      43.697 -20.385   2.131  1.00  0.00     0.037 A 
HETATM   30  C   UNL     1      44.347 -20.658   3.333  1.00  0.00     0.068 A 
HETATM   31  C   UNL     1      44.382 -19.678   4.327  1.00  0.00     0.037 A 
HETATM   32  C   UNL     1      43.798 -18.424   4.120  1.00  0.00     0.012 A 
BRANCH  30  33
HETATM   33  O   UNL     1      44.967 -21.833   3.658  1.00  0.00    -0.356 OA
HETATM   34  C   UNL     1      44.998 -22.175   5.039  1.00  0.00     0.210 C 
ENDBRANCH  30  33
ENDBRANCH   1  27
TORSDOF 6
ENDMDL
MODEL 5
REMARK VINA RESULT:      -8.5      2.063      9.053
REMARK  6 active torsions:
REMARK  status: ('A' for Active; 'I' for Inactive)
REMARK    1  A    between atoms: O_2  and  C_3 
REMARK    2  A    between atoms: C_6  and  C_7 
REMARK    3  A    between atoms: C_12  and  C_13 
REMARK       I    between atoms: C_13  and  N_14 
REMARK    4  A    between atoms: N_14  and  C_15 
REMARK    5  A    between atoms: C_17  and  O_18 
REMARK    6  A    between atoms: C_24  and  C_25 
ROOT
HETATM    1  C   UNL     1      38.867 -13.162  -0.956  1.00  0.00     0.118 C 
HETATM    2  N   UNL     1      39.943 -14.146  -0.850  1.00  0.00    -0.366 N 
HETATM    3  C   UNL     1      40.251 -14.763   0.309  1.00  0.00     0.123 A 
HETATM    4  N   UNL     1      39.724 -14.343   1.496  1.00  0.00    -0.240 N 
HETATM    5  N   UNL     1      40.006 -15.146   2.538  1.00  0.00    -0.165 NA
HETATM    6  C   UNL     1      40.837 -16.072   1.998  1.00  0.00     0.148 A 
HETATM    7  C   UNL     1      41.038 -15.841   0.608  1.00  0.00     0.089 A 
HETATM    8  C   UNL     1      38.807 -13.225   1.601  1.00  0.00     0.221 C 
HETATM    9  C   UNL     1      37.981 -13.138   0.309  1.00  0.00     0.066 C 
HETATM   10  H   UNL     1      40.342 -14.455  -1.736  1.00  0.00     0.161 HD
ENDROOT
BRANCH   6  11
HETATM   11  C   UNL     1      41.390 -17.187   2.787  1.00  0.00     0.276 C 
HETATM   12  N   UNL     1      42.393 -17.849   2.107  1.00  0.00    -0.322 N 
HETATM   13  H   UNL     1      42.554 -17.483   1.172  1.00  0.00     0.169 HD
HETATM   14  O   UNL     1      40.983 -17.434   3.917  1.00  0.00    -0.266 OA
BRANCH  12  15
HETATM   15  C   UNL     1      43.204 -18.905   2.557  1.00  0.00     0.037 A 
HETATM   16  C   UNL     1      43.341 -20.121   1.883  1.00  0.00     0.066 A 
HETATM   17  C   UNL     1      44.156 -21.120   2.415  1.00  0.00     0.067 A 
HETATM   18  C   UNL     1      44.840 -20.927   3.608  1.00  0.00     0.036 A 
HETATM   19  C   UNL     1      44.710 -19.717   4.285  1.00  0.00     0.005 A 
HETATM   20  C   UNL     1      43.895 -18.710   3.761  1.00  0.00     0.029 A 
BRANCH  17  21
HETATM   21  O   UNL     1      44.307 -22.320   1.783  1.00  0.00    -0.361 OA
HETATM   22  H   UNL     1      43.486 -22.517   1.301  1.00  0.00     0.217 HD
ENDBRANCH  17  21
ENDBRANCH  12  15
ENDBRANCH   6  11
BRANCH   8  23
HETATM   23  C   UNL     1      39.567 -11.953   1.897  1.00  0.00     0.409 C 
HETATM   24  F   UNL     1      39.643 -11.696   3.221  1.00  0.00    -0.169 F 
HETATM   25  F   UNL     1      40.822 -11.945   1.401  1.00  0.00    -0.169 F 
HETATM   26  F   UNL     1      38.922 -10.896   1.336  1.00  0.00    -0.169 F 
ENDBRANCH   8  23
BRANCH   1  27
HETATM   27  C   UNL     1      38.038 -13.480  -2.189  1.00  0.00    -0.035 A 
HETATM   28  C   UNL     1      37.248 -12.491  -2.804  1.00  0.00     0.012 A 
HETATM   29  C   UNL     1      36.496 -12.774  -3.947  1.00  0.00     0.037 A 
HETATM   30  C   UNL     1      36.515 -14.055  -4.496  1.00  0.00     0.068 A 
HETATM   31  C   UNL     1      37.276 -15.050  -3.878  1.00  0.00     0.037 A 
HETATM   32  C   UNL     1      38.036 -14.768  -2.737  1.00  0.00     0.012 A 
BRANCH  30  33
HETATM   33  O   UNL     1      35.832 -14.459  -5.610  1.00  0.00    -0.356 OA
HETATM   34  C   UNL     1      35.409 -13.435  -6.503  1.00  0.00     0.210 C 
ENDBRANCH  30  33
ENDBRANCH   1  27
TORSDOF 6
ENDMDL
MODEL 6
REMARK VINA RESULT:      -8.3      3.391      3.735
REMARK  6 active torsions:
REMARK  status: ('A' for Active; 'I' for Inactive)
REMARK    1  A    between atoms: O_2  and  C_3 
REMARK    2  A    between atoms: C_6  and  C_7 
REMARK    3  A    between atoms: C_12  and  C_13 
REMARK       I    between atoms: C_13  and  N_14 
REMARK    4  A    between atoms: N_14  and  C_15 
REMARK    5  A    between atoms: C_17  and  O_18 
REMARK    6  A    between atoms: C_24  and  C_25 
ROOT
HETATM    1  C   UNL     1      42.547 -16.435   3.459  1.00  0.00     0.118 C 
HETATM    2  N   UNL     1      41.567 -16.164   2.409  1.00  0.00    -0.366 N 
HETATM    3  C   UNL     1      41.542 -15.005   1.721  1.00  0.00     0.123 A 
HETATM    4  N   UNL     1      42.288 -13.932   2.115  1.00  0.00    -0.240 N 
HETATM    5  N   UNL     1      42.272 -12.903   1.248  1.00  0.00    -0.165 NA
HETATM    6  C   UNL     1      41.392 -13.311   0.302  1.00  0.00     0.148 A 
HETATM    7  C   UNL     1      40.890 -14.611   0.585  1.00  0.00     0.089 A 
HETATM    8  C   UNL     1      43.151 -13.956   3.279  1.00  0.00     0.221 C 
HETATM    9  C   UNL     1      43.680 -15.384   3.476  1.00  0.00     0.066 C 
HETATM   10  H   UNL     1      41.005 -16.964   2.119  1.00  0.00     0.161 HD
ENDROOT
BRANCH   6  11
HETATM   11  C   UNL     1      41.073 -12.489  -0.881  1.00  0.00     0.276 C 
HETATM   12  N   UNL     1      42.190 -11.845  -1.374  1.00  0.00    -0.322 N 
HETATM   13  H   UNL     1      43.029 -12.015  -0.824  1.00  0.00     0.169 HD
HETATM   14  O   UNL     1      39.936 -12.442  -1.339  1.00  0.00    -0.266 OA
BRANCH  12  15
HETATM   15  C   UNL     1      42.300 -11.043  -2.524  1.00  0.00     0.037 A 
HETATM   16  C   UNL     1      42.455  -9.656  -2.490  1.00  0.00     0.066 A 
HETATM   17  C   UNL     1      42.537  -8.939  -3.684  1.00  0.00     0.067 A 
HETATM   18  C   UNL     1      42.470  -9.582  -4.913  1.00  0.00     0.036 A 
HETATM   19  C   UNL     1      42.317 -10.966  -4.954  1.00  0.00     0.005 A 
HETATM   20  C   UNL     1      42.232 -11.693  -3.764  1.00  0.00     0.029 A 
BRANCH  17  21
HETATM   21  O   UNL     1      42.685  -7.582  -3.685  1.00  0.00    -0.361 OA
HETATM   22  H   UNL     1      43.546  -7.368  -3.286  1.00  0.00     0.217 HD
ENDBRANCH  17  21
ENDBRANCH  12  15
ENDBRANCH   6  11
BRANCH   8  23
HETATM   23  C   UNL     1      42.410 -13.434   4.488  1.00  0.00     0.409 C 
HETATM   24  F   UNL     1      41.092 -13.725   4.448  1.00  0.00    -0.169 F 
HETATM   25  F   UNL     1      42.899 -13.887   5.660  1.00  0.00    -0.169 F 
HETATM   26  F   UNL     1      42.503 -12.078   4.529  1.00  0.00    -0.169 F 
ENDBRANCH   8  23
BRANCH   1  27
HETATM   27  C   UNL     1      43.111 -17.831   3.249  1.00  0.00    -0.035 A 
HETATM   28  C   UNL     1      43.778 -18.505   4.288  1.00  0.00     0.012 A 
HETATM   29  C   UNL     1      44.285 -19.795   4.105  1.00  0.00     0.037 A 
HETATM   30  C   UNL     1      44.137 -20.435   2.876  1.00  0.00     0.068 A 
HETATM   31  C   UNL     1      43.497 -19.764   1.832  1.00  0.00     0.037 A 
HETATM   32  C   UNL     1      42.984 -18.475   2.013  1.00  0.00     0.012 A 
BRANCH  30  33
HETATM   33  O   UNL     1      44.579 -21.692   2.571  1.00  0.00    -0.356 OA
HETATM   34  C   UNL     1      44.660 -22.618   3.648  1.00  0.00     0.210 C 
ENDBRANCH  30  33
ENDBRANCH   1  27
TORSDOF 6
ENDMDL
MODEL 7
REMARK VINA RESULT:      -8.2      4.752      9.256
REMARK  6 active torsions:
REMARK  status: ('A' for Active; 'I' for Inactive)
REMARK    1  A    between atoms: O_2  and  C_3 
REMARK    2  A    between atoms: C_6  and  C_7 
REMARK    3  A    between atoms: C_12  and  C_13 
REMARK       I    between atoms: C_13  and  N_14 
REMARK    4  A    between atoms: N_14  and  C_15 
REMARK    5  A    between atoms: C_17  and  O_18 
REMARK    6  A    between atoms: C_24  and  C_25 
ROOT
HETATM    1  C   UNL     1      40.432 -11.546   6.428  1.00  0.00     0.118 C 
HETATM    2  N   UNL     1      39.931 -12.914   6.549  1.00  0.00    -0.366 N 
HETATM    3  C   UNL     1      40.438 -13.938   5.833  1.00  0.00     0.123 A 
HETATM    4  N   UNL     1      41.296 -13.719   4.794  1.00  0.00    -0.240 N 
HETATM    5  N   UNL     1      41.829 -14.840   4.274  1.00  0.00    -0.165 NA
HETATM    6  C   UNL     1      41.200 -15.826   4.960  1.00  0.00     0.148 A 
HETATM    7  C   UNL     1      40.296 -15.295   5.922  1.00  0.00     0.089 A 
HETATM    8  C   UNL     1      41.723 -12.394   4.390  1.00  0.00     0.221 C 
HETATM    9  C   UNL     1      41.750 -11.483   5.625  1.00  0.00     0.066 C 
HETATM   10  H   UNL     1      39.285 -13.077   7.321  1.00  0.00     0.161 HD
ENDROOT
BRANCH   6  11
HETATM   11  C   UNL     1      41.495 -17.253   4.731  1.00  0.00     0.276 C 
HETATM   12  N   UNL     1      42.603 -17.425   3.925  1.00  0.00    -0.322 N 
HETATM   13  H   UNL     1      43.003 -16.548   3.599  1.00  0.00     0.169 HD
HETATM   14  O   UNL     1      40.815 -18.136   5.242  1.00  0.00    -0.266 OA
BRANCH  12  15
HETATM   15  C   UNL     1      43.233 -18.624   3.551  1.00  0.00     0.037 A 
HETATM   16  C   UNL     1      44.046 -19.373   4.405  1.00  0.00     0.066 A 
HETATM   17  C   UNL     1      44.645 -20.543   3.941  1.00  0.00     0.067 A 
HETATM   18  C   UNL     1      44.448 -20.983   2.639  1.00  0.00     0.036 A 
HETATM   19  C   UNL     1      43.638 -20.242   1.782  1.00  0.00     0.005 A 
HETATM   20  C   UNL     1      43.033 -19.067   2.236  1.00  0.00     0.029 A 
BRANCH  17  21
HETATM   21  O   UNL     1      45.448 -21.295   4.750  1.00  0.00    -0.361 OA
HETATM   22  H   UNL     1      44.987 -22.128   4.950  1.00  0.00     0.217 HD
ENDBRANCH  17  21
ENDBRANCH  12  15
ENDBRANCH   6  11
BRANCH   8  23
HETATM   23  C   UNL     1      40.826 -11.868   3.293  1.00  0.00     0.409 C 
HETATM   24  F   UNL     1      41.299 -12.153   2.061  1.00  0.00    -0.169 F 
HETATM   25  F   UNL     1      39.559 -12.325   3.366  1.00  0.00    -0.169 F 
HETATM   26  F   UNL     1      40.754 -10.513   3.374  1.00  0.00    -0.169 F 
ENDBRANCH   8  23
BRANCH   1  27
HETATM   27  C   UNL     1      40.622 -10.974   7.823  1.00  0.00    -0.035 A 
HETATM   28  C   UNL     1      39.553 -10.921   8.736  1.00  0.00     0.012 A 
HETATM   29  C   UNL     1      39.727 -10.411  10.025  1.00  0.00     0.037 A 
HETATM   30  C   UNL     1      40.975  -9.938  10.426  1.00  0.00     0.068 A 
HETATM   31  C   UNL     1      42.036  -9.964   9.519  1.00  0.00     0.037 A 
HETATM   32  C   UNL     1      41.868 -10.480   8.230  1.00  0.00     0.012 A 
BRANCH  30  33
HETATM   33  O   UNL     1      41.277  -9.422  11.656  1.00  0.00    -0.356 OA
HETATM   34  C   UNL     1      41.108 -10.290  12.770  1.00  0.00     0.210 C 
ENDBRANCH  30  33
ENDBRANCH   1  27
TORSDOF 6
ENDMDL
MODEL 8
REMARK VINA RESULT:      -8.1      4.267      7.487
REMARK  6 active torsions:
REMARK  status: ('A' for Active; 'I' for Inactive)
REMARK    1  A    between atoms: O_2  and  C_3 
REMARK    2  A    between atoms: C_6  and  C_7 
REMARK    3  A    between atoms: C_12  and  C_13 
REMARK       I    between atoms: C_13  and  N_14 
REMARK    4  A    between atoms: N_14  and  C_15 
REMARK    5  A    between atoms: C_17  and  O_18 
REMARK    6  A    between atoms: C_24  and  C_25 
ROOT
HETATM    1  C   UNL     1      42.643 -16.564   1.994  1.00  0.00     0.118 C 
HETATM    2  N   UNL     1      43.308 -15.465   2.690  1.00  0.00    -0.366 N 
HETATM    3  C   UNL     1      42.632 -14.426   3.220  1.00  0.00     0.123 A 
HETATM    4  N   UNL     1      41.309 -14.228   2.946  1.00  0.00    -0.240 N 
HETATM    5  N   UNL     1      40.740 -13.242   3.662  1.00  0.00    -0.165 NA
HETATM    6  C   UNL     1      41.782 -12.725   4.358  1.00  0.00     0.148 A 
HETATM    7  C   UNL     1      42.990 -13.423   4.079  1.00  0.00     0.089 A 
HETATM    8  C   UNL     1      40.543 -15.105   2.082  1.00  0.00     0.221 C 
HETATM    9  C   UNL     1      41.111 -16.528   2.190  1.00  0.00     0.066 C 
HETATM   10  H   UNL     1      44.298 -15.609   2.890  1.00  0.00     0.161 HD
ENDROOT
BRANCH   6  11
HETATM   11  C   UNL     1      41.616 -11.612   5.311  1.00  0.00     0.276 C 
HETATM   12  N   UNL     1      41.816 -12.020   6.615  1.00  0.00    -0.322 N 
HETATM   13  H   UNL     1      42.008 -13.015   6.701  1.00  0.00     0.169 HD
HETATM   14  O   UNL     1      41.353 -10.477   4.929  1.00  0.00    -0.266 OA
BRANCH  12  15
HETATM   15  C   UNL     1      41.821 -11.238   7.783  1.00  0.00     0.037 A 
HETATM   16  C   UNL     1      42.940 -11.074   8.603  1.00  0.00     0.066 A 
HETATM   17  C   UNL     1      42.847 -10.293   9.754  1.00  0.00     0.067 A 
HETATM   18  C   UNL     1      41.657  -9.670  10.103  1.00  0.00     0.036 A 
HETATM   19  C   UNL     1      40.537  -9.827   9.291  1.00  0.00     0.005 A 
HETATM   20  C   UNL     1      40.619 -10.609   8.135  1.00  0.00     0.029 A 
BRANCH  17  21
HETATM   21  O   UNL     1      43.921 -10.117  10.578  1.00  0.00    -0.361 OA
HETATM   22  H   UNL     1      44.728 -10.133  10.035  1.00  0.00     0.217 HD
ENDBRANCH  17  21
ENDBRANCH  12  15
ENDBRANCH   6  11
BRANCH   8  23
HETATM   23  C   UNL     1      40.551 -14.578   0.665  1.00  0.00     0.409 C 
HETATM   24  F   UNL     1      41.404 -13.542   0.507  1.00  0.00    -0.169 F 
HETATM   25  F   UNL     1      40.857 -15.511  -0.258  1.00  0.00    -0.169 F 
HETATM   26  F   UNL     1      39.314 -14.109   0.348  1.00  0.00    -0.169 F 
ENDBRANCH   8  23
BRANCH   1  27
HETATM   27  C   UNL     1      43.220 -17.877   2.496  1.00  0.00    -0.035 A 
HETATM   28  C   UNL     1      43.557 -18.047   3.851  1.00  0.00     0.012 A 
HETATM   29  C   UNL     1      44.073 -19.257   4.322  1.00  0.00     0.037 A 
HETATM   30  C   UNL     1      44.267 -20.322   3.444  1.00  0.00     0.068 A 
HETATM   31  C   UNL     1      43.958 -20.155   2.092  1.00  0.00     0.037 A 
HETATM   32  C   UNL     1      43.435 -18.947   1.619  1.00  0.00     0.012 A 
BRANCH  30  33
HETATM   33  O   UNL     1      44.757 -21.555   3.776  1.00  0.00    -0.356 OA
HETATM   34  C   UNL     1      44.967 -21.803   5.161  1.00  0.00     0.210 C 
ENDBRANCH  30  33
ENDBRANCH   1  27
TORSDOF 6
ENDMDL
MODEL 9
REMARK VINA RESULT:      -8.0      4.121      8.889
REMARK  6 active torsions:
REMARK  status: ('A' for Active; 'I' for Inactive)
REMARK    1  A    between atoms: O_2  and  C_3 
REMARK    2  A    between atoms: C_6  and  C_7 
REMARK    3  A    between atoms: C_12  and  C_13 
REMARK       I    between atoms: C_13  and  N_14 
REMARK    4  A    between atoms: N_14  and  C_15 
REMARK    5  A    between atoms: C_17  and  O_18 
REMARK    6  A    between atoms: C_24  and  C_25 
ROOT
HETATM    1  C   UNL     1      40.191 -12.480   5.326  1.00  0.00     0.118 C 
HETATM    2  N   UNL     1      40.485 -13.905   5.459  1.00  0.00    -0.366 N 
HETATM    3  C   UNL     1      41.184 -14.592   4.533  1.00  0.00     0.123 A 
HETATM    4  N   UNL     1      41.469 -14.049   3.314  1.00  0.00    -0.240 N 
HETATM    5  N   UNL     1      42.296 -14.793   2.559  1.00  0.00    -0.165 NA
HETATM    6  C   UNL     1      42.468 -15.913   3.303  1.00  0.00     0.148 A 
HETATM    7  C   UNL     1      41.758 -15.834   4.533  1.00  0.00     0.089 A 
HETATM    8  C   UNL     1      41.051 -12.715   2.928  1.00  0.00     0.221 C 
HETATM    9  C   UNL     1      40.999 -11.829   4.181  1.00  0.00     0.066 C 
HETATM   10  H   UNL     1      40.266 -14.314   6.368  1.00  0.00     0.161 HD
ENDROOT
BRANCH   6  11
HETATM   11  C   UNL     1      43.338 -17.021   2.865  1.00  0.00     0.276 C 
HETATM   12  N   UNL     1      43.029 -18.202   3.513  1.00  0.00    -0.322 N 
HETATM   13  H   UNL     1      42.286 -18.101   4.200  1.00  0.00     0.169 HD
HETATM   14  O   UNL     1      44.200 -16.858   2.009  1.00  0.00    -0.266 OA
BRANCH  12  15
HETATM   15  C   UNL     1      43.579 -19.479   3.310  1.00  0.00     0.037 A 
HETATM   16  C   UNL     1      43.381 -20.233   2.151  1.00  0.00     0.066 A 
HETATM   17  C   UNL     1      43.953 -21.501   2.044  1.00  0.00     0.067 A 
HETATM   18  C   UNL     1      44.720 -22.031   3.073  1.00  0.00     0.036 A 
HETATM   19  C   UNL     1      44.923 -21.284   4.231  1.00  0.00     0.005 A 
HETATM   20  C   UNL     1      44.354 -20.013   4.348  1.00  0.00     0.029 A 
BRANCH  17  21
HETATM   21  O   UNL     1      43.775 -22.265   0.927  1.00  0.00    -0.361 OA
HETATM   22  H   UNL     1      44.225 -21.828   0.183  1.00  0.00     0.217 HD
ENDBRANCH  17  21
ENDBRANCH  12  15
ENDBRANCH   6  11
BRANCH   8  23
HETATM   23  C   UNL     1      39.730 -12.774   2.197  1.00  0.00     0.409 C 
HETATM   24  F   UNL     1      39.048 -13.910   2.458  1.00  0.00    -0.169 F 
HETATM   25  F   UNL     1      38.916 -11.732   2.465  1.00  0.00    -0.169 F 
HETATM   26  F   UNL     1      39.950 -12.757   0.855  1.00  0.00    -0.169 F 
ENDBRANCH   8  23
BRANCH   1  27
HETATM   27  C   UNL     1      40.487 -11.797   6.650  1.00  0.00    -0.035 A 
HETATM   28  C   UNL     1      39.491 -11.665   7.635  1.00  0.00     0.012 A 
HETATM   29  C   UNL     1      39.762 -11.052   8.861  1.00  0.00     0.037 A 
HETATM   30  C   UNL     1      41.037 -10.554   9.125  1.00  0.00     0.068 A 
HETATM   31  C   UNL     1      42.025 -10.659   8.145  1.00  0.00     0.037 A 
HETATM   32  C   UNL     1      41.759 -11.277   6.919  1.00  0.00     0.012 A 
BRANCH  30  33
HETATM   33  O   UNL     1      41.432  -9.941  10.282  1.00  0.00    -0.356 OA
HETATM   34  C   UNL     1      42.808 -10.054  10.625  1.00  0.00     0.210 C 
ENDBRANCH  30  33
ENDBRANCH   1  27
TORSDOF 6
ENDMDL
MODEL 10
REMARK VINA RESULT:      -8.0      4.018      5.627
REMARK  6 active torsions:
REMARK  status: ('A' for Active; 'I' for Inactive)
REMARK    1  A    between atoms: O_2  and  C_3 
REMARK    2  A    between atoms: C_6  and  C_7 
REMARK    3  A    between atoms: C_12  and  C_13 
REMARK       I    between atoms: C_13  and  N_14 
REMARK    4  A    between atoms: N_14  and  C_15 
REMARK    5  A    between atoms: C_17  and  O_18 
REMARK    6  A    between atoms: C_24  and  C_25 
ROOT
HETATM    1  C   UNL     1      43.013 -17.120   1.771  1.00  0.00     0.118 C 
HETATM    2  N   UNL     1      43.532 -15.922   2.430  1.00  0.00    -0.366 N 
HETATM    3  C   UNL     1      42.752 -14.866   2.737  1.00  0.00     0.123 A 
HETATM    4  N   UNL     1      41.479 -14.762   2.254  1.00  0.00    -0.240 N 
HETATM    5  N   UNL     1      40.779 -13.734   2.765  1.00  0.00    -0.165 NA
HETATM    6  C   UNL     1      41.689 -13.097   3.542  1.00  0.00     0.148 A 
HETATM    7  C   UNL     1      42.946 -13.762   3.521  1.00  0.00     0.089 A 
HETATM    8  C   UNL     1      40.879 -15.761   1.391  1.00  0.00     0.221 C 
HETATM    9  C   UNL     1      41.468 -17.136   1.739  1.00  0.00     0.066 C 
HETATM   10  H   UNL     1      44.485 -15.997   2.785  1.00  0.00     0.161 HD
ENDROOT
BRANCH   6  11
HETATM   11  C   UNL     1      41.347 -11.899   4.331  1.00  0.00     0.276 C 
HETATM   12  N   UNL     1      40.612 -10.991   3.593  1.00  0.00    -0.322 N 
HETATM   13  H   UNL     1      40.462 -11.283   2.631  1.00  0.00     0.169 HD
HETATM   14  O   UNL     1      41.685 -11.788   5.505  1.00  0.00    -0.266 OA
BRANCH  12  15
HETATM   15  C   UNL     1      40.042  -9.779   4.018  1.00  0.00     0.037 A 
HETATM   16  C   UNL     1      38.963  -9.696   4.901  1.00  0.00     0.066 A 
HETATM   17  C   UNL     1      38.450  -8.448   5.252  1.00  0.00     0.067 A 
HETATM   18  C   UNL     1      38.997  -7.278   4.741  1.00  0.00     0.036 A 
HETATM   19  C   UNL     1      40.074  -7.353   3.862  1.00  0.00     0.005 A 
HETATM   20  C   UNL     1      40.594  -8.598   3.502  1.00  0.00     0.029 A 
BRANCH  17  21
HETATM   21  O   UNL     1      37.394  -8.333   6.109  1.00  0.00    -0.361 OA
HETATM   22  H   UNL     1      36.678  -7.860   5.651  1.00  0.00     0.217 HD
ENDBRANCH  17  21
ENDBRANCH  12  15
ENDBRANCH   6  11
BRANCH   8  23
HETATM   23  C   UNL     1      41.080 -15.386  -0.059  1.00  0.00     0.409 C 
HETATM   24  F   UNL     1      42.072 -14.484  -0.223  1.00  0.00    -0.169 F 
HETATM   25  F   UNL     1      41.342 -16.440  -0.859  1.00  0.00    -0.169 F 
HETATM   26  F   UNL     1      39.949 -14.806  -0.541  1.00  0.00    -0.169 F 
ENDBRANCH   8  23
BRANCH   1  27
HETATM   27  C   UNL     1      43.549 -18.343   2.496  1.00  0.00    -0.035 A 
HETATM   28  C   UNL     1      43.611 -19.594   1.854  1.00  0.00     0.012 A 
HETATM   29  C   UNL     1      44.118 -20.719   2.510  1.00  0.00     0.037 A 
HETATM   30  C   UNL     1      44.570 -20.615   3.825  1.00  0.00     0.068 A 
HETATM   31  C   UNL     1      44.490 -19.384   4.478  1.00  0.00     0.037 A 
HETATM   32  C   UNL     1      43.988 -18.254   3.822  1.00  0.00     0.012 A 
BRANCH  30  33
HETATM   33  O   UNL     1      45.091 -21.634   4.574  1.00  0.00    -0.356 OA
HETATM   34  C   UNL     1      44.792 -22.957   4.144  1.00  0.00     0.210 C 
ENDBRANCH  30  33
ENDBRANCH   1  27
TORSDOF 6
ENDMDL
