MODEL 1
REMARK VINA RESULT:      -9.5      0.000      0.000
REMARK  6 active torsions:
REMARK  status: ('A' for Active; 'I' for Inactive)
REMARK    1  A    between atoms: C_2  and  C_3 
REMARK       I    between atoms: C_3  and  N_4 
REMARK    2  A    between atoms: N_4  and  C_5 
REMARK    3  A    between atoms: C_16  and  N_17 
REMARK    4  A    between atoms: C_20  and  N_21 
REMARK    5  A    between atoms: N_21  and  C_24 
REMARK    6  A    between atoms: C_24  and  C_25 
ROOT
HETATM    1  C   UNL     1      41.281 -11.369   6.982  1.00  0.00     0.019 A 
HETATM    2  C   UNL     1      40.031 -11.642   7.533  1.00  0.00     0.032 A 
HETATM    3  C   UNL     1      39.224 -12.627   6.963  1.00  0.00     0.019 A 
HETATM    4  C   UNL     1      39.688 -13.352   5.855  1.00  0.00     0.030 A 
HETATM    5  C   UNL     1      40.951 -13.111   5.292  1.00  0.00     0.030 A 
HETATM    6  C   UNL     1      41.726 -12.091   5.871  1.00  0.00     0.030 A 
ENDROOT
BRANCH   5   7
HETATM    7  N   UNL     1      41.474 -13.877   4.256  1.00  0.00    -0.381 N 
HETATM    8  C   UNL     1      41.235 -15.315   4.268  1.00  0.00     0.125 C 
HETATM    9  C   UNL     1      40.982 -15.765   2.835  1.00  0.00     0.053 C 
HETATM   10  C   UNL     1      42.093 -15.317   1.883  1.00  0.00     0.189 C 
HETATM   11  C   UNL     1      42.392 -13.820   2.016  1.00  0.00     0.053 C 
HETATM   12  C   UNL     1      42.593 -13.379   3.466  1.00  0.00     0.125 C 
BRANCH  10  13
HETATM   13  N   UNL     1      43.366 -16.091   2.106  1.00  0.00    -0.067 N 
HETATM   14  H   UNL     1      44.163 -15.516   1.798  1.00  0.00     0.277 HD
HETATM   15  H   UNL     1      43.531 -16.257   3.106  1.00  0.00     0.277 HD
BRANCH  13  16
HETATM   16  C   UNL     1      43.493 -17.393   1.382  1.00  0.00     0.271 C 
BRANCH  16  17
HETATM   17  C   UNL     1      43.794 -18.498   2.353  1.00  0.00    -0.030 A 
HETATM   18  C   UNL     1      43.942 -19.818   1.900  1.00  0.00     0.048 A 
HETATM   19  C   UNL     1      44.266 -20.788   2.825  1.00  0.00     0.105 A 
HETATM   20  C   UNL     1      44.450 -20.495   4.153  1.00  0.00     0.105 A 
HETATM   21  O   UNL     1      44.441 -22.109   2.556  1.00  0.00    -0.323 OA
HETATM   22  O   UNL     1      44.765 -21.592   4.888  1.00  0.00    -0.323 OA
HETATM   23  C   UNL     1      44.321 -19.211   4.635  1.00  0.00     0.040 A 
HETATM   24  C   UNL     1      44.725 -22.623   3.878  1.00  0.00     0.352 A 
HETATM   25  C   UNL     1      43.989 -18.203   3.724  1.00  0.00     0.012 A 
ENDBRANCH  16  17
ENDBRANCH  13  16
ENDBRANCH  10  13
ENDBRANCH   5   7
BRANCH   2  26
HETATM   26  C   UNL     1      39.643 -10.940   8.778  1.00  0.00     0.252 C 
HETATM   27  N   UNL     1      40.526 -11.017   9.828  1.00  0.00    -0.344 N 
HETATM   28  H   UNL     1      41.306 -11.657   9.765  1.00  0.00     0.163 HD
HETATM   29  O   UNL     1      38.566 -10.356   8.824  1.00  0.00    -0.268 OA
BRANCH  27  30
HETATM   30  C   UNL     1      40.350 -10.316  11.101  1.00  0.00     0.171 C 
HETATM   31  C   UNL     1      40.777  -8.837  11.039  1.00  0.00     0.220 C 
HETATM   32  O   UNL     1      40.007  -7.958  10.656  1.00  0.00    -0.278 OA
HETATM   33  N   UNL     1      42.115  -8.582  11.244  1.00  0.00    -0.261 NA
HETATM   34  C   UNL     1      42.663  -8.811  12.563  1.00  0.00     0.095 C 
HETATM   35  H   UNL     1      42.664  -9.092  10.547  1.00  0.00     0.130 HD
HETATM   36  C   UNL     1      43.234 -10.213  12.744  1.00  0.00     0.015 C 
HETATM   37  C   UNL     1      42.304 -11.397  12.466  1.00  0.00     0.004 C 
HETATM   38  C   UNL     1      40.814 -11.095  12.338  1.00  0.00     0.034 C 
ENDBRANCH  27  30
ENDBRANCH   2  26
TORSDOF 6
ENDMDL
MODEL 2
REMARK VINA RESULT:      -9.1      1.686      2.177
REMARK  6 active torsions:
REMARK  status: ('A' for Active; 'I' for Inactive)
REMARK    1  A    between atoms: C_2  and  C_3 
REMARK       I    between atoms: C_3  and  N_4 
REMARK    2  A    between atoms: N_4  and  C_5 
REMARK    3  A    between atoms: C_16  and  N_17 
REMARK    4  A    between atoms: C_20  and  N_21 
REMARK    5  A    between atoms: N_21  and  C_24 
REMARK    6  A    between atoms: C_24  and  C_25 
ROOT
HETATM    1  C   UNL     1      40.916 -11.778   5.544  1.00  0.00     0.019 A 
HETATM    2  C   UNL     1      41.847 -11.961   6.564  1.00  0.00     0.032 A 
HETATM    3  C   UNL     1      42.648 -13.103   6.570  1.00  0.00     0.019 A 
HETATM    4  C   UNL     1      42.528 -14.045   5.538  1.00  0.00     0.030 A 
HETATM    5  C   UNL     1      41.611 -13.875   4.488  1.00  0.00     0.030 A 
HETATM    6  C   UNL     1      40.798 -12.729   4.527  1.00  0.00     0.030 A 
ENDROOT
BRANCH   5   7
HETATM    7  N   UNL     1      41.537 -14.742   3.403  1.00  0.00    -0.381 N 
HETATM    8  C   UNL     1      40.477 -15.744   3.389  1.00  0.00     0.125 C 
HETATM    9  C   UNL     1      39.965 -15.870   1.959  1.00  0.00     0.053 C 
HETATM   10  C   UNL     1      41.095 -16.130   0.961  1.00  0.00     0.189 C 
HETATM   11  C   UNL     1      42.242 -15.126   1.119  1.00  0.00     0.053 C 
HETATM   12  C   UNL     1      42.707 -14.977   2.568  1.00  0.00     0.125 C 
BRANCH  10  13
HETATM   13  N   UNL     1      41.646 -17.526   1.092  1.00  0.00    -0.067 N 
HETATM   14  H   UNL     1      41.338 -17.922   1.991  1.00  0.00     0.277 HD
HETATM   15  H   UNL     1      41.251 -18.152   0.380  1.00  0.00     0.277 HD
BRANCH  13  16
HETATM   16  C   UNL     1      43.135 -17.662   1.070  1.00  0.00     0.271 C 
BRANCH  16  17
HETATM   17  C   UNL     1      43.574 -18.696   2.067  1.00  0.00    -0.030 A 
HETATM   18  C   UNL     1      43.649 -20.049   1.697  1.00  0.00     0.048 A 
HETATM   19  C   UNL     1      44.103 -20.952   2.636  1.00  0.00     0.105 A 
HETATM   20  C   UNL     1      44.485 -20.563   3.895  1.00  0.00     0.105 A 
HETATM   21  O   UNL     1      44.233 -22.291   2.444  1.00  0.00    -0.323 OA
HETATM   22  O   UNL     1      44.902 -21.608   4.656  1.00  0.00    -0.323 OA
HETATM   23  C   UNL     1      44.433 -19.246   4.292  1.00  0.00     0.040 A 
HETATM   24  C   UNL     1      44.709 -22.710   3.744  1.00  0.00     0.352 A 
HETATM   25  C   UNL     1      43.973 -18.303   3.367  1.00  0.00     0.012 A 
ENDBRANCH  16  17
ENDBRANCH  13  16
ENDBRANCH  10  13
ENDBRANCH   5   7
BRANCH   2  26
HETATM   26  C   UNL     1      42.025 -10.877   7.557  1.00  0.00     0.252 C 
HETATM   27  N   UNL     1      42.189 -11.261   8.865  1.00  0.00    -0.344 N 
HETATM   28  H   UNL     1      42.033 -12.229   9.114  1.00  0.00     0.163 HD
HETATM   29  O   UNL     1      41.992  -9.711   7.179  1.00  0.00    -0.268 OA
BRANCH  27  30
HETATM   30  C   UNL     1      42.464 -10.334   9.964  1.00  0.00     0.171 C 
HETATM   31  C   UNL     1      43.519 -10.865  10.953  1.00  0.00     0.220 C 
HETATM   32  O   UNL     1      44.724 -10.709  10.759  1.00  0.00    -0.278 OA
HETATM   33  N   UNL     1      43.052 -11.691  11.952  1.00  0.00    -0.261 NA
HETATM   34  C   UNL     1      42.205 -11.118  12.976  1.00  0.00     0.095 C 
HETATM   35  H   UNL     1      42.589 -12.500  11.531  1.00  0.00     0.130 HD
HETATM   36  C   UNL     1      40.719 -11.211  12.650  1.00  0.00     0.015 C 
HETATM   37  C   UNL     1      40.246 -10.603  11.326  1.00  0.00     0.004 C 
HETATM   38  C   UNL     1      41.222  -9.689  10.593  1.00  0.00     0.034 C 
ENDBRANCH  27  30
ENDBRANCH   2  26
TORSDOF 6
ENDMDL
MODEL 3
REMARK VINA RESULT:      -9.1      5.602      7.081
REMARK  6 active torsions:
REMARK  status: ('A' for Active; 'I' for Inactive)
REMARK    1  A    between atoms: C_2  and  C_3 
REMARK       I    between atoms: C_3  and  N_4 
REMARK    2  A    between atoms: N_4  and  C_5 
REMARK    3  A    between atoms: C_16  and  N_17 
REMARK    4  A    between atoms: C_20  and  N_21 
REMARK    5  A    between atoms: N_21  and  C_24 
REMARK    6  A    between atoms: C_24  and  C_25 
ROOT
HETATM    1  C   UNL     1      38.480 -11.605   2.000  1.00  0.00     0.019 A 
HETATM    2  C   UNL     1      37.411 -11.894   1.155  1.00  0.00     0.032 A 
HETATM    3  C   UNL     1      37.277 -13.178   0.624  1.00  0.00     0.019 A 
HETATM    4  C   UNL     1      38.205 -14.173   0.964  1.00  0.00     0.030 A 
HETATM    5  C   UNL     1      39.280 -13.913   1.829  1.00  0.00     0.030 A 
HETATM    6  C   UNL     1      39.404 -12.603   2.322  1.00  0.00     0.030 A 
ENDROOT
BRANCH   5   7
HETATM    7  N   UNL     1      40.159 -14.902   2.257  1.00  0.00    -0.381 N 
HETATM    8  C   UNL     1      40.862 -14.705   3.519  1.00  0.00     0.125 C 
HETATM    9  C   UNL     1      40.934 -16.047   4.236  1.00  0.00     0.053 C 
HETATM   10  C   UNL     1      41.523 -17.146   3.349  1.00  0.00     0.189 C 
HETATM   11  C   UNL     1      40.832 -17.212   1.983  1.00  0.00     0.053 C 
HETATM   12  C   UNL     1      40.726 -15.847   1.303  1.00  0.00     0.125 C 
BRANCH  10  13
HETATM   13  N   UNL     1      43.003 -16.961   3.139  1.00  0.00    -0.067 N 
HETATM   14  H   UNL     1      43.194 -15.962   2.977  1.00  0.00     0.277 HD
HETATM   15  H   UNL     1      43.533 -17.195   3.988  1.00  0.00     0.277 HD
BRANCH  13  16
HETATM   16  C   UNL     1      43.611 -17.690   1.984  1.00  0.00     0.271 C 
BRANCH  16  17
HETATM   17  C   UNL     1      43.913 -19.109   2.370  1.00  0.00    -0.030 A 
HETATM   18  C   UNL     1      44.394 -19.407   3.655  1.00  0.00     0.048 A 
HETATM   19  C   UNL     1      44.610 -20.731   3.975  1.00  0.00     0.105 A 
HETATM   20  C   UNL     1      44.362 -21.745   3.085  1.00  0.00     0.105 A 
HETATM   21  O   UNL     1      45.074 -21.188   5.168  1.00  0.00    -0.323 OA
HETATM   22  O   UNL     1      44.639 -22.969   3.603  1.00  0.00    -0.323 OA
HETATM   23  C   UNL     1      43.883 -21.494   1.819  1.00  0.00     0.040 A 
HETATM   24  C   UNL     1      45.124 -22.612   4.915  1.00  0.00     0.352 A 
HETATM   25  C   UNL     1      43.656 -20.162   1.458  1.00  0.00     0.012 A 
ENDBRANCH  16  17
ENDBRANCH  13  16
ENDBRANCH  10  13
ENDBRANCH   5   7
BRANCH   2  26
HETATM   26  C   UNL     1      36.388 -10.846   0.931  1.00  0.00     0.252 C 
HETATM   27  N   UNL     1      35.494 -10.632   1.952  1.00  0.00    -0.344 N 
HETATM   28  H   UNL     1      35.471 -11.280   2.727  1.00  0.00     0.163 HD
HETATM   29  O   UNL     1      36.369 -10.249  -0.140  1.00  0.00    -0.268 OA
BRANCH  27  30
HETATM   30  C   UNL     1      34.475  -9.581   1.942  1.00  0.00     0.171 C 
HETATM   31  C   UNL     1      34.496  -8.706   3.209  1.00  0.00     0.220 C 
HETATM   32  O   UNL     1      35.241  -7.732   3.309  1.00  0.00    -0.278 OA
HETATM   33  N   UNL     1      33.791  -9.186   4.291  1.00  0.00    -0.261 NA
HETATM   34  C   UNL     1      32.347  -9.233   4.201  1.00  0.00     0.095 C 
HETATM   35  H   UNL     1      34.153 -10.108   4.545  1.00  0.00     0.130 HD
HETATM   36  C   UNL     1      31.819 -10.563   3.676  1.00  0.00     0.015 C 
HETATM   37  C   UNL     1      32.338 -11.045   2.319  1.00  0.00     0.004 C 
HETATM   38  C   UNL     1      33.088 -10.030   1.462  1.00  0.00     0.034 C 
ENDBRANCH  27  30
ENDBRANCH   2  26
TORSDOF 6
ENDMDL
MODEL 4
REMARK VINA RESULT:      -9.0      1.964      2.644
REMARK  6 active torsions:
REMARK  status: ('A' for Active; 'I' for Inactive)
REMARK    1  A    between atoms: C_2  and  C_3 
REMARK       I    between atoms: C_3  and  N_4 
REMARK    2  A    between atoms: N_4  and  C_5 
REMARK    3  A    between atoms: C_16  and  N_17 
REMARK    4  A    between atoms: C_20  and  N_21 
REMARK    5  A    between atoms: N_21  and  C_24 
REMARK    6  A    between atoms: C_24  and  C_25 
ROOT
HETATM    1  C   UNL     1      42.303 -12.380   6.541  1.00  0.00     0.019 A 
HETATM    2  C   UNL     1      41.775 -11.091   6.483  1.00  0.00     0.032 A 
HETATM    3  C   UNL     1      41.049 -10.692   5.360  1.00  0.00     0.019 A 
HETATM    4  C   UNL     1      40.836 -11.598   4.310  1.00  0.00     0.030 A 
HETATM    5  C   UNL     1      41.339 -12.907   4.353  1.00  0.00     0.030 A 
HETATM    6  C   UNL     1      42.092 -13.268   5.483  1.00  0.00     0.030 A 
ENDROOT
BRANCH   5   7
HETATM    7  N   UNL     1      41.063 -13.854   3.372  1.00  0.00    -0.381 N 
HETATM    8  C   UNL     1      39.872 -14.682   3.523  1.00  0.00     0.125 C 
HETATM    9  C   UNL     1      39.246 -14.866   2.147  1.00  0.00     0.053 C 
HETATM   10  C   UNL     1      40.252 -15.388   1.119  1.00  0.00     0.189 C 
HETATM   11  C   UNL     1      41.540 -14.557   1.104  1.00  0.00     0.053 C 
HETATM   12  C   UNL     1      42.124 -14.341   2.500  1.00  0.00     0.125 C 
BRANCH  10  13
HETATM   13  N   UNL     1      40.605 -16.831   1.365  1.00  0.00    -0.067 N 
HETATM   14  H   UNL     1      40.608 -17.005   2.380  1.00  0.00     0.277 HD
HETATM   15  H   UNL     1      39.883 -17.461   0.992  1.00  0.00     0.277 HD
BRANCH  13  16
HETATM   16  C   UNL     1      41.938 -17.289   0.864  1.00  0.00     0.271 C 
BRANCH  16  17
HETATM   17  C   UNL     1      42.673 -18.022   1.950  1.00  0.00    -0.030 A 
HETATM   18  C   UNL     1      42.331 -17.821   3.297  1.00  0.00     0.048 A 
HETATM   19  C   UNL     1      43.005 -18.553   4.252  1.00  0.00     0.105 A 
HETATM   20  C   UNL     1      43.976 -19.464   3.919  1.00  0.00     0.105 A 
HETATM   21  O   UNL     1      42.800 -18.478   5.593  1.00  0.00    -0.323 OA
HETATM   22  O   UNL     1      44.507 -20.076   5.009  1.00  0.00    -0.323 OA
HETATM   23  C   UNL     1      44.334 -19.695   2.610  1.00  0.00     0.040 A 
HETATM   24  C   UNL     1      43.784 -19.424   6.074  1.00  0.00     0.352 A 
HETATM   25  C   UNL     1      43.674 -18.965   1.615  1.00  0.00     0.012 A 
ENDBRANCH  16  17
ENDBRANCH  13  16
ENDBRANCH  10  13
ENDBRANCH   5   7
BRANCH   2  26
HETATM   26  C   UNL     1      41.918 -10.219   7.671  1.00  0.00     0.252 C 
HETATM   27  N   UNL     1      42.088 -10.848   8.880  1.00  0.00    -0.344 N 
HETATM   28  H   UNL     1      41.959 -11.850   8.932  1.00  0.00     0.163 HD
HETATM   29  O   UNL     1      41.853  -9.002   7.530  1.00  0.00    -0.268 OA
BRANCH  27  30
HETATM   30  C   UNL     1      42.333 -10.149  10.142  1.00  0.00     0.171 C 
HETATM   31  C   UNL     1      43.208 -10.954  11.120  1.00  0.00     0.220 C 
HETATM   32  O   UNL     1      44.437 -10.916  11.070  1.00  0.00    -0.278 OA
HETATM   33  N   UNL     1      42.549 -11.867  11.915  1.00  0.00    -0.261 NA
HETATM   34  C   UNL     1      41.656 -11.366  12.938  1.00  0.00     0.095 C 
HETATM   35  H   UNL     1      42.055 -12.535  11.320  1.00  0.00     0.130 HD
HETATM   36  C   UNL     1      40.215 -11.225  12.462  1.00  0.00     0.015 C 
HETATM   37  C   UNL     1      39.959 -10.362  11.224  1.00  0.00     0.004 C 
HETATM   38  C   UNL     1      41.101  -9.467  10.753  1.00  0.00     0.034 C 
ENDBRANCH  27  30
ENDBRANCH   2  26
TORSDOF 6
ENDMDL
MODEL 5
REMARK VINA RESULT:      -8.8      5.268      8.725
REMARK  6 active torsions:
REMARK  status: ('A' for Active; 'I' for Inactive)
REMARK    1  A    between atoms: C_2  and  C_3 
REMARK       I    between atoms: C_3  and  N_4 
REMARK    2  A    between atoms: N_4  and  C_5 
REMARK    3  A    between atoms: C_16  and  N_17 
REMARK    4  A    between atoms: C_20  and  N_21 
REMARK    5  A    between atoms: N_21  and  C_24 
REMARK    6  A    between atoms: C_24  and  C_25 
ROOT
HETATM    1  C   UNL     1      41.614 -14.720   1.164  1.00  0.00     0.019 A 
HETATM    2  C   UNL     1      40.276 -14.333   1.187  1.00  0.00     0.032 A 
HETATM    3  C   UNL     1      39.523 -14.517   2.348  1.00  0.00     0.019 A 
HETATM    4  C   UNL     1      40.125 -15.069   3.488  1.00  0.00     0.030 A 
HETATM    5  C   UNL     1      41.476 -15.450   3.497  1.00  0.00     0.030 A 
HETATM    6  C   UNL     1      42.198 -15.279   2.304  1.00  0.00     0.030 A 
ENDROOT
BRANCH   5   7
HETATM    7  N   UNL     1      42.123 -15.910   4.640  1.00  0.00    -0.381 N 
HETATM    8  C   UNL     1      43.431 -15.356   4.967  1.00  0.00     0.125 C 
HETATM    9  C   UNL     1      43.508 -15.184   6.478  1.00  0.00     0.053 C 
HETATM   10  C   UNL     1      43.163 -16.475   7.225  1.00  0.00     0.189 C 
HETATM   11  C   UNL     1      41.843 -17.083   6.740  1.00  0.00     0.053 C 
HETATM   12  C   UNL     1      41.766 -17.200   5.217  1.00  0.00     0.125 C 
BRANCH  10  13
HETATM   13  N   UNL     1      44.253 -17.506   7.093  1.00  0.00    -0.067 N 
HETATM   14  H   UNL     1      44.503 -17.600   6.098  1.00  0.00     0.277 HD
HETATM   15  H   UNL     1      45.118 -17.195   7.552  1.00  0.00     0.277 HD
BRANCH  13  16
HETATM   16  C   UNL     1      43.931 -18.886   7.570  1.00  0.00     0.271 C 
BRANCH  16  17
HETATM   17  C   UNL     1      44.101 -19.872   6.450  1.00  0.00    -0.030 A 
HETATM   18  C   UNL     1      44.319 -19.423   5.138  1.00  0.00     0.048 A 
HETATM   19  C   UNL     1      44.516 -20.369   4.154  1.00  0.00     0.105 A 
HETATM   20  C   UNL     1      44.513 -21.714   4.426  1.00  0.00     0.105 A 
HETATM   21  O   UNL     1      44.736 -20.106   2.838  1.00  0.00    -0.323 OA
HETATM   22  O   UNL     1      44.729 -22.467   3.318  1.00  0.00    -0.323 OA
HETATM   23  C   UNL     1      44.311 -22.193   5.701  1.00  0.00     0.040 A 
HETATM   24  C   UNL     1      44.836 -21.446   2.304  1.00  0.00     0.352 A 
HETATM   25  C   UNL     1      44.103 -21.261   6.723  1.00  0.00     0.012 A 
ENDBRANCH  16  17
ENDBRANCH  13  16
ENDBRANCH  10  13
ENDBRANCH   5   7
BRANCH   2  26
HETATM   26  C   UNL     1      39.725 -13.637   0.001  1.00  0.00     0.252 C 
HETATM   27  N   UNL     1      40.628 -13.246  -0.958  1.00  0.00    -0.344 N 
HETATM   28  H   UNL     1      41.616 -13.308  -0.753  1.00  0.00     0.163 HD
HETATM   29  O   UNL     1      38.519 -13.423  -0.058  1.00  0.00    -0.268 OA
BRANCH  27  30
HETATM   30  C   UNL     1      40.256 -12.628  -2.231  1.00  0.00     0.171 C 
HETATM   31  C   UNL     1      40.910 -13.309  -3.448  1.00  0.00     0.220 C 
HETATM   32  O   UNL     1      40.406 -14.294  -3.986  1.00  0.00    -0.278 OA
HETATM   33  N   UNL     1      42.180 -12.883  -3.772  1.00  0.00    -0.261 NA
HETATM   34  C   UNL     1      42.342 -11.540  -4.284  1.00  0.00     0.095 C 
HETATM   35  H   UNL     1      42.797 -13.026  -2.969  1.00  0.00     0.130 HD
HETATM   36  C   UNL     1      42.624 -10.510  -3.196  1.00  0.00     0.015 C 
HETATM   37  C   UNL     1      41.618 -10.401  -2.047  1.00  0.00     0.004 C 
HETATM   38  C   UNL     1      40.272 -11.093  -2.234  1.00  0.00     0.034 C 
ENDBRANCH  27  30
ENDBRANCH   2  26
TORSDOF 6
ENDMDL
MODEL 6
REMARK VINA RESULT:      -8.4      1.678      2.516
REMARK  6 active torsions:
REMARK  status: ('A' for Active; 'I' for Inactive)
REMARK    1  A    between atoms: C_2  and  C_3 
REMARK       I    between atoms: C_3  and  N_4 
REMARK    2  A    between atoms: N_4  and  C_5 
REMARK    3  A    between atoms: C_16  and  N_17 
REMARK    4  A    between atoms: C_20  and  N_21 
REMARK    5  A    between atoms: N_21  and  C_24 
REMARK    6  A    between atoms: C_24  and  C_25 
ROOT
HETATM    1  C   UNL     1      42.724 -12.137   6.964  1.00  0.00     0.019 A 
HETATM    2  C   UNL     1      41.674 -11.222   6.982  1.00  0.00     0.032 A 
HETATM    3  C   UNL     1      40.665 -11.309   6.021  1.00  0.00     0.019 A 
HETATM    4  C   UNL     1      40.705 -12.330   5.060  1.00  0.00     0.030 A 
HETATM    5  C   UNL     1      41.741 -13.276   5.032  1.00  0.00     0.030 A 
HETATM    6  C   UNL     1      42.757 -13.143   5.994  1.00  0.00     0.030 A 
ENDROOT
BRANCH   5   7
HETATM    7  N   UNL     1      41.756 -14.354   4.152  1.00  0.00    -0.381 N 
HETATM    8  C   UNL     1      40.722 -15.373   4.288  1.00  0.00     0.125 C 
HETATM    9  C   UNL     1      40.305 -15.813   2.890  1.00  0.00     0.053 C 
HETATM   10  C   UNL     1      41.502 -16.236   2.036  1.00  0.00     0.189 C 
HETATM   11  C   UNL     1      42.614 -15.181   2.045  1.00  0.00     0.053 C 
HETATM   12  C   UNL     1      42.982 -14.716   3.454  1.00  0.00     0.125 C 
BRANCH  10  13
HETATM   13  N   UNL     1      42.075 -17.553   2.489  1.00  0.00    -0.067 N 
HETATM   14  H   UNL     1      42.389 -17.460   3.466  1.00  0.00     0.277 HD
HETATM   15  H   UNL     1      41.354 -18.285   2.514  1.00  0.00     0.277 HD
BRANCH  13  16
HETATM   16  C   UNL     1      43.251 -18.070   1.725  1.00  0.00     0.271 C 
BRANCH  16  17
HETATM   17  C   UNL     1      43.703 -19.383   2.297  1.00  0.00    -0.030 A 
HETATM   18  C   UNL     1      44.101 -19.470   3.641  1.00  0.00     0.048 A 
HETATM   19  C   UNL     1      44.462 -20.708   4.130  1.00  0.00     0.105 A 
HETATM   20  C   UNL     1      44.431 -21.837   3.350  1.00  0.00     0.105 A 
HETATM   21  O   UNL     1      44.873 -20.965   5.400  1.00  0.00    -0.323 OA
HETATM   22  O   UNL     1      44.821 -22.946   4.028  1.00  0.00    -0.323 OA
HETATM   23  C   UNL     1      44.040 -21.793   2.031  1.00  0.00     0.040 A 
HETATM   24  C   UNL     1      45.134 -22.386   5.321  1.00  0.00     0.352 A 
HETATM   25  C   UNL     1      43.671 -20.552   1.500  1.00  0.00     0.012 A 
ENDBRANCH  16  17
ENDBRANCH  13  16
ENDBRANCH  10  13
ENDBRANCH   5   7
BRANCH   2  26
HETATM   26  C   UNL     1      41.611 -10.246   8.094  1.00  0.00     0.252 C 
HETATM   27  N   UNL     1      41.126 -10.709   9.293  1.00  0.00    -0.344 N 
HETATM   28  H   UNL     1      40.700 -11.625   9.327  1.00  0.00     0.163 HD
HETATM   29  O   UNL     1      41.962  -9.088   7.892  1.00  0.00    -0.268 OA
BRANCH  27  30
HETATM   30  C   UNL     1      41.075  -9.912  10.519  1.00  0.00     0.171 C 
HETATM   31  C   UNL     1      40.648 -10.729  11.753  1.00  0.00     0.220 C 
HETATM   32  O   UNL     1      41.462 -11.368  12.418  1.00  0.00    -0.278 OA
HETATM   33  N   UNL     1      39.292 -10.865  11.952  1.00  0.00    -0.261 NA
HETATM   34  C   UNL     1      38.530  -9.690  12.317  1.00  0.00     0.095 C 
HETATM   35  H   UNL     1      38.875 -11.307  11.129  1.00  0.00     0.130 HD
HETATM   36  C   UNL     1      37.953  -8.950  11.116  1.00  0.00     0.015 C 
HETATM   37  C   UNL     1      38.930  -8.495  10.028  1.00  0.00     0.004 C 
HETATM   38  C   UNL     1      40.416  -8.534  10.369  1.00  0.00     0.034 C 
ENDBRANCH  27  30
ENDBRANCH   2  26
TORSDOF 6
ENDMDL
MODEL 7
REMARK VINA RESULT:      -8.2      1.955      3.067
REMARK  6 active torsions:
REMARK  status: ('A' for Active; 'I' for Inactive)
REMARK    1  A    between atoms: C_2  and  C_3 
REMARK       I    between atoms: C_3  and  N_4 
REMARK    2  A    between atoms: N_4  and  C_5 
REMARK    3  A    between atoms: C_16  and  N_17 
REMARK    4  A    between atoms: C_20  and  N_21 
REMARK    5  A    between atoms: N_21  and  C_24 
REMARK    6  A    between atoms: C_24  and  C_25 
ROOT
HETATM    1  C   UNL     1      41.497 -13.138   5.399  1.00  0.00     0.019 A 
HETATM    2  C   UNL     1      40.416 -12.416   4.898  1.00  0.00     0.032 A 
HETATM    3  C   UNL     1      39.865 -12.763   3.664  1.00  0.00     0.019 A 
HETATM    4  C   UNL     1      40.389 -13.850   2.948  1.00  0.00     0.030 A 
HETATM    5  C   UNL     1      41.465 -14.605   3.439  1.00  0.00     0.030 A 
HETATM    6  C   UNL     1      42.016 -14.212   4.670  1.00  0.00     0.030 A 
ENDROOT
BRANCH   5   7
HETATM    7  N   UNL     1      41.942 -15.744   2.797  1.00  0.00    -0.381 N 
HETATM    8  C   UNL     1      40.975 -16.696   2.266  1.00  0.00     0.125 C 
HETATM    9  C   UNL     1      41.504 -17.216   0.935  1.00  0.00     0.053 C 
HETATM   10  C   UNL     1      42.929 -17.760   1.052  1.00  0.00     0.189 C 
HETATM   11  C   UNL     1      43.868 -16.766   1.744  1.00  0.00     0.053 C 
HETATM   12  C   UNL     1      43.296 -16.218   3.051  1.00  0.00     0.125 C 
BRANCH  10  13
HETATM   13  N   UNL     1      42.968 -19.068   1.799  1.00  0.00    -0.067 N 
HETATM   14  H   UNL     1      42.473 -18.955   2.694  1.00  0.00     0.277 HD
HETATM   15  H   UNL     1      42.445 -19.799   1.300  1.00  0.00     0.277 HD
BRANCH  13  16
HETATM   16  C   UNL     1      44.322 -19.603   2.141  1.00  0.00     0.271 C 
BRANCH  16  17
HETATM   17  C   UNL     1      44.328 -20.133   3.547  1.00  0.00    -0.030 A 
HETATM   18  C   UNL     1      43.918 -19.315   4.612  1.00  0.00     0.048 A 
HETATM   19  C   UNL     1      43.897 -19.863   5.878  1.00  0.00     0.105 A 
HETATM   20  C   UNL     1      44.252 -21.168   6.112  1.00  0.00     0.105 A 
HETATM   21  O   UNL     1      43.532 -19.213   7.014  1.00  0.00    -0.323 OA
HETATM   22  O   UNL     1      44.156 -21.504   7.424  1.00  0.00    -0.323 OA
HETATM   23  C   UNL     1      44.651 -22.003   5.092  1.00  0.00     0.040 A 
HETATM   24  C   UNL     1      43.732 -20.251   8.001  1.00  0.00     0.352 A 
HETATM   25  C   UNL     1      44.689 -21.478   3.796  1.00  0.00     0.012 A 
ENDBRANCH  16  17
ENDBRANCH  13  16
ENDBRANCH  10  13
ENDBRANCH   5   7
BRANCH   2  26
HETATM   26  C   UNL     1      39.819 -11.363   5.752  1.00  0.00     0.252 C 
HETATM   27  N   UNL     1      40.503 -11.038   6.898  1.00  0.00    -0.344 N 
HETATM   28  H   UNL     1      41.280 -11.618   7.185  1.00  0.00     0.163 HD
HETATM   29  O   UNL     1      38.752 -10.858   5.418  1.00  0.00    -0.268 OA
BRANCH  27  30
HETATM   30  C   UNL     1      40.110  -9.964   7.811  1.00  0.00     0.171 C 
HETATM   31  C   UNL     1      41.277  -9.033   8.188  1.00  0.00     0.220 C 
HETATM   32  O   UNL     1      41.592  -8.074   7.485  1.00  0.00    -0.278 OA
HETATM   33  N   UNL     1      42.070  -9.446   9.237  1.00  0.00    -0.261 NA
HETATM   34  C   UNL     1      41.495  -9.461  10.565  1.00  0.00     0.095 C 
HETATM   35  H   UNL     1      42.464 -10.364   9.019  1.00  0.00     0.130 HD
HETATM   36  C   UNL     1      40.868 -10.800  10.935  1.00  0.00     0.015 C 
HETATM   37  C   UNL     1      39.786 -11.356  10.004  1.00  0.00     0.004 C 
HETATM   38  C   UNL     1      39.202 -10.400   8.969  1.00  0.00     0.034 C 
ENDBRANCH  27  30
ENDBRANCH   2  26
TORSDOF 6
ENDMDL
MODEL 8
REMARK VINA RESULT:      -8.0      5.445      9.227
REMARK  6 active torsions:
REMARK  status: ('A' for Active; 'I' for Inactive)
REMARK    1  A    between atoms: C_2  and  C_3 
REMARK       I    between atoms: C_3  and  N_4 
REMARK    2  A    between atoms: N_4  and  C_5 
REMARK    3  A    between atoms: C_16  and  N_17 
REMARK    4  A    between atoms: C_20  and  N_21 
REMARK    5  A    between atoms: N_21  and  C_24 
REMARK    6  A    between atoms: C_24  and  C_25 
ROOT
HETATM    1  C   UNL     1      41.715 -14.883   0.625  1.00  0.00     0.019 A 
HETATM    2  C   UNL     1      40.329 -14.815   0.501  1.00  0.00     0.032 A 
HETATM    3  C   UNL     1      39.521 -15.149   1.589  1.00  0.00     0.019 A 
HETATM    4  C   UNL     1      40.110 -15.526   2.804  1.00  0.00     0.030 A 
HETATM    5  C   UNL     1      41.504 -15.584   2.961  1.00  0.00     0.030 A 
HETATM    6  C   UNL     1      42.289 -15.272   1.838  1.00  0.00     0.030 A 
ENDROOT
BRANCH   5   7
HETATM    7  N   UNL     1      42.115 -15.863   4.179  1.00  0.00    -0.381 N 
HETATM    8  C   UNL     1      43.478 -15.392   4.394  1.00  0.00     0.125 C 
HETATM    9  C   UNL     1      43.593 -14.921   5.839  1.00  0.00     0.053 C 
HETATM   10  C   UNL     1      43.127 -15.985   6.834  1.00  0.00     0.189 C 
HETATM   11  C   UNL     1      41.744 -16.540   6.475  1.00  0.00     0.053 C 
HETATM   12  C   UNL     1      41.635 -16.961   5.009  1.00  0.00     0.125 C 
BRANCH  10  13
HETATM   13  N   UNL     1      44.103 -17.129   6.927  1.00  0.00    -0.067 N 
HETATM   14  H   UNL     1      44.480 -17.321   5.988  1.00  0.00     0.277 HD
HETATM   15  H   UNL     1      44.922 -16.876   7.493  1.00  0.00     0.277 HD
BRANCH  13  16
HETATM   16  C   UNL     1      43.563 -18.430   7.428  1.00  0.00     0.271 C 
BRANCH  16  17
HETATM   17  C   UNL     1      43.847 -19.523   6.438  1.00  0.00    -0.030 A 
HETATM   18  C   UNL     1      44.095 -19.212   5.091  1.00  0.00     0.048 A 
HETATM   19  C   UNL     1      44.398 -20.248   4.233  1.00  0.00     0.105 A 
HETATM   20  C   UNL     1      44.470 -21.550   4.660  1.00  0.00     0.105 A 
HETATM   21  O   UNL     1      44.659 -20.121   2.905  1.00  0.00    -0.323 OA
HETATM   22  O   UNL     1      44.784 -22.408   3.656  1.00  0.00    -0.323 OA
HETATM   23  C   UNL     1      44.241 -21.894   5.973  1.00  0.00     0.040 A 
HETATM   24  C   UNL     1      44.870 -21.503   2.534  1.00  0.00     0.352 A 
HETATM   25  C   UNL     1      43.927 -20.869   6.871  1.00  0.00     0.012 A 
ENDBRANCH  16  17
ENDBRANCH  13  16
ENDBRANCH  10  13
ENDBRANCH   5   7
BRANCH   2  26
HETATM   26  C   UNL     1      39.761 -14.287  -0.761  1.00  0.00     0.252 C 
HETATM   27  N   UNL     1      40.545 -14.399  -1.883  1.00  0.00    -0.344 N 
HETATM   28  H   UNL     1      41.509 -14.688  -1.780  1.00  0.00     0.163 HD
HETATM   29  O   UNL     1      38.654 -13.761  -0.743  1.00  0.00    -0.268 OA
BRANCH  27  30
HETATM   30  C   UNL     1      40.113 -14.013  -3.227  1.00  0.00     0.171 C 
HETATM   31  C   UNL     1      39.413 -12.642  -3.266  1.00  0.00     0.220 C 
HETATM   32  O   UNL     1      40.049 -11.593  -3.366  1.00  0.00    -0.278 OA
HETATM   33  N   UNL     1      38.064 -12.640  -2.985  1.00  0.00    -0.261 NA
HETATM   34  C   UNL     1      37.165 -13.262  -3.933  1.00  0.00     0.095 C 
HETATM   35  H   UNL     1      37.915 -13.037  -2.054  1.00  0.00     0.130 HD
HETATM   36  C   UNL     1      36.897 -14.733  -3.635  1.00  0.00     0.015 C 
HETATM   37  C   UNL     1      38.107 -15.665  -3.531  1.00  0.00     0.004 C 
HETATM   38  C   UNL     1      39.443 -15.130  -4.037  1.00  0.00     0.034 C 
ENDBRANCH  27  30
ENDBRANCH   2  26
TORSDOF 6
ENDMDL
MODEL 9
REMARK VINA RESULT:      -8.0      6.812     10.724
REMARK  6 active torsions:
REMARK  status: ('A' for Active; 'I' for Inactive)
REMARK    1  A    between atoms: C_2  and  C_3 
REMARK       I    between atoms: C_3  and  N_4 
REMARK    2  A    between atoms: N_4  and  C_5 
REMARK    3  A    between atoms: C_16  and  N_17 
REMARK    4  A    between atoms: C_20  and  N_21 
REMARK    5  A    between atoms: N_21  and  C_24 
REMARK    6  A    between atoms: C_24  and  C_25 
ROOT
HETATM    1  C   UNL     1      38.024 -13.510  -1.666  1.00  0.00     0.019 A 
HETATM    2  C   UNL     1      38.376 -14.134  -2.861  1.00  0.00     0.032 A 
HETATM    3  C   UNL     1      39.550 -14.886  -2.928  1.00  0.00     0.019 A 
HETATM    4  C   UNL     1      40.353 -15.027  -1.786  1.00  0.00     0.030 A 
HETATM    5  C   UNL     1      40.011 -14.425  -0.566  1.00  0.00     0.030 A 
HETATM    6  C   UNL     1      38.839 -13.649  -0.539  1.00  0.00     0.030 A 
ENDROOT
BRANCH   5   7
HETATM    7  N   UNL     1      40.737 -14.625   0.604  1.00  0.00    -0.381 N 
HETATM    8  C   UNL     1      42.017 -13.943   0.751  1.00  0.00     0.125 C 
HETATM    9  C   UNL     1      42.148 -13.489   2.199  1.00  0.00     0.053 C 
HETATM   10  C   UNL     1      41.926 -14.637   3.187  1.00  0.00     0.189 C 
HETATM   11  C   UNL     1      40.631 -15.402   2.895  1.00  0.00     0.053 C 
HETATM   12  C   UNL     1      40.496 -15.804   1.426  1.00  0.00     0.125 C 
BRANCH  10  13
HETATM   13  N   UNL     1      43.078 -15.607   3.184  1.00  0.00    -0.067 N 
HETATM   14  H   UNL     1      42.893 -16.341   2.485  1.00  0.00     0.277 HD
HETATM   15  H   UNL     1      43.945 -15.156   2.869  1.00  0.00     0.277 HD
BRANCH  13  16
HETATM   16  C   UNL     1      43.354 -16.322   4.469  1.00  0.00     0.271 C 
BRANCH  16  17
HETATM   17  C   UNL     1      43.705 -17.757   4.196  1.00  0.00    -0.030 A 
HETATM   18  C   UNL     1      43.339 -18.356   2.980  1.00  0.00     0.048 A 
HETATM   19  C   UNL     1      43.726 -19.662   2.760  1.00  0.00     0.105 A 
HETATM   20  C   UNL     1      44.455 -20.370   3.682  1.00  0.00     0.105 A 
HETATM   21  O   UNL     1      43.452 -20.388   1.645  1.00  0.00    -0.323 OA
HETATM   22  O   UNL     1      44.732 -21.632   3.264  1.00  0.00    -0.323 OA
HETATM   23  C   UNL     1      44.839 -19.814   4.882  1.00  0.00     0.040 A 
HETATM   24  C   UNL     1      44.065 -21.654   1.985  1.00  0.00     0.352 A 
HETATM   25  C   UNL     1      44.460 -18.493   5.140  1.00  0.00     0.012 A 
ENDBRANCH  16  17
ENDBRANCH  13  16
ENDBRANCH  10  13
ENDBRANCH   5   7
BRANCH   2  26
HETATM   26  C   UNL     1      37.429 -14.061  -3.997  1.00  0.00     0.252 C 
HETATM   27  N   UNL     1      36.916 -12.821  -4.291  1.00  0.00    -0.344 N 
HETATM   28  H   UNL     1      37.077 -12.059  -3.647  1.00  0.00     0.163 HD
HETATM   29  O   UNL     1      37.133 -15.090  -4.594  1.00  0.00    -0.268 OA
BRANCH  27  30
HETATM   30  C   UNL     1      36.038 -12.546  -5.430  1.00  0.00     0.171 C 
HETATM   31  C   UNL     1      36.127 -11.090  -5.924  1.00  0.00     0.220 C 
HETATM   32  O   UNL     1      36.985 -10.732  -6.730  1.00  0.00    -0.278 OA
HETATM   33  N   UNL     1      35.330 -10.176  -5.269  1.00  0.00    -0.261 NA
HETATM   34  C   UNL     1      33.896 -10.273  -5.436  1.00  0.00     0.095 C 
HETATM   35  H   UNL     1      35.564 -10.181  -4.273  1.00  0.00     0.130 HD
HETATM   36  C   UNL     1      33.222 -11.136  -4.376  1.00  0.00     0.015 C 
HETATM   37  C   UNL     1      33.722 -12.574  -4.211  1.00  0.00     0.004 C 
HETATM   38  C   UNL     1      34.623 -13.127  -5.311  1.00  0.00     0.034 C 
ENDBRANCH  27  30
ENDBRANCH   2  26
TORSDOF 6
ENDMDL
MODEL 10
REMARK VINA RESULT:      -8.0      6.365      9.417
REMARK  6 active torsions:
REMARK  status: ('A' for Active; 'I' for Inactive)
REMARK    1  A    between atoms: C_2  and  C_3 
REMARK       I    between atoms: C_3  and  N_4 
REMARK    2  A    between atoms: N_4  and  C_5 
REMARK    3  A    between atoms: C_16  and  N_17 
REMARK    4  A    between atoms: C_20  and  N_21 
REMARK    5  A    between atoms: N_21  and  C_24 
REMARK    6  A    between atoms: C_24  and  C_25 
ROOT
HETATM    1  C   UNL     1      39.195 -12.472  -1.044  1.00  0.00     0.019 A 
HETATM    2  C   UNL     1      37.865 -12.314  -0.662  1.00  0.00     0.032 A 
HETATM    3  C   UNL     1      37.327 -13.142   0.325  1.00  0.00     0.019 A 
HETATM    4  C   UNL     1      38.136 -14.108   0.940  1.00  0.00     0.030 A 
HETATM    5  C   UNL     1      39.484 -14.274   0.587  1.00  0.00     0.030 A 
HETATM    6  C   UNL     1      39.987 -13.446  -0.431  1.00  0.00     0.030 A 
ENDROOT
BRANCH   5   7
HETATM    7  N   UNL     1      40.334 -15.158   1.245  1.00  0.00    -0.381 N 
HETATM    8  C   UNL     1      40.893 -14.755   2.529  1.00  0.00     0.125 C 
HETATM    9  C   UNL     1      40.916 -15.976   3.440  1.00  0.00     0.053 C 
HETATM   10  C   UNL     1      41.620 -17.169   2.790  1.00  0.00     0.189 C 
HETATM   11  C   UNL     1      41.080 -17.457   1.385  1.00  0.00     0.053 C 
HETATM   12  C   UNL     1      41.018 -16.210   0.504  1.00  0.00     0.125 C 
BRANCH  10  13
HETATM   13  N   UNL     1      43.110 -16.962   2.708  1.00  0.00    -0.067 N 
HETATM   14  H   UNL     1      43.296 -15.985   2.443  1.00  0.00     0.277 HD
HETATM   15  H   UNL     1      43.553 -17.074   3.628  1.00  0.00     0.277 HD
BRANCH  13  16
HETATM   16  C   UNL     1      43.849 -17.806   1.719  1.00  0.00     0.271 C 
BRANCH  16  17
HETATM   17  C   UNL     1      44.099 -19.172   2.290  1.00  0.00    -0.030 A 
HETATM   18  C   UNL     1      44.428 -19.323   3.647  1.00  0.00     0.048 A 
HETATM   19  C   UNL     1      44.601 -20.602   4.133  1.00  0.00     0.105 A 
HETATM   20  C   UNL     1      44.452 -21.710   3.336  1.00  0.00     0.105 A 
HETATM   21  O   UNL     1      44.925 -20.923   5.413  1.00  0.00    -0.323 OA
HETATM   22  O   UNL     1      44.664 -22.867   4.013  1.00  0.00    -0.323 OA
HETATM   23  C   UNL     1      44.122 -21.603   2.004  1.00  0.00     0.040 A 
HETATM   24  C   UNL     1      44.997 -22.365   5.325  1.00  0.00     0.352 A 
HETATM   25  C   UNL     1      43.944 -20.320   1.476  1.00  0.00     0.012 A 
ENDBRANCH  16  17
ENDBRANCH  13  16
ENDBRANCH  10  13
ENDBRANCH   5   7
BRANCH   2  26
HETATM   26  C   UNL     1      37.092 -11.195  -1.249  1.00  0.00     0.252 C 
HETATM   27  N   UNL     1      36.021 -11.535  -2.039  1.00  0.00    -0.344 N 
HETATM   28  H   UNL     1      35.898 -12.502  -2.307  1.00  0.00     0.163 HD
HETATM   29  O   UNL     1      37.450 -10.043  -1.030  1.00  0.00    -0.268 OA
BRANCH  27  30
HETATM   30  C   UNL     1      35.096 -10.565  -2.628  1.00  0.00     0.171 C 
HETATM   31  C   UNL     1      33.972 -10.141  -1.665  1.00  0.00     0.220 C 
HETATM   32  O   UNL     1      34.125  -9.229  -0.853  1.00  0.00    -0.278 OA
HETATM   33  N   UNL     1      32.865 -10.961  -1.624  1.00  0.00    -0.261 NA
HETATM   34  C   UNL     1      32.010 -11.018  -2.789  1.00  0.00     0.095 C 
HETATM   35  H   UNL     1      33.157 -11.906  -1.361  1.00  0.00     0.130 HD
HETATM   36  C   UNL     1      32.393 -12.125  -3.765  1.00  0.00     0.015 C 
HETATM   37  C   UNL     1      33.829 -12.132  -4.298  1.00  0.00     0.004 C 
HETATM   38  C   UNL     1      34.663 -10.876  -4.067  1.00  0.00     0.034 C 
ENDBRANCH  27  30
ENDBRANCH   2  26
TORSDOF 6
ENDMDL
