MODEL 1
REMARK VINA RESULT:      -9.6      0.000      0.000
REMARK  4 active torsions:
REMARK  status: ('A' for Active; 'I' for Inactive)
REMARK    1  A    between atoms: C_2  and  C_3 
REMARK    2  A    between atoms: C_6  and  C_7 
REMARK       I    between atoms: C_7  and  N_8 
REMARK    3  A    between atoms: N_8  and  N_9 
REMARK       I    between atoms: N_9  and  C_10 
REMARK    4  A    between atoms: C_10  and  C_11 
ROOT
HETATM    1  N   UNL     1      43.829 -14.336   5.817  1.00  0.00    -0.263 N 
HETATM    2  C   UNL     1      42.985 -15.393   5.548  1.00  0.00     0.272 C 
HETATM    3  O   UNL     1      42.028 -15.678   6.267  1.00  0.00    -0.266 OA
HETATM    4  H   UNL     1      44.733 -14.201   5.368  1.00  0.00     0.190 HD
ENDROOT
BRANCH   1   5
HETATM    5  N   UNL     1      43.632 -13.618   7.000  1.00  0.00    -0.263 N 
HETATM    6  C   UNL     1      44.742 -13.098   7.631  1.00  0.00     0.270 C 
HETATM    7  O   UNL     1      45.885 -13.295   7.223  1.00  0.00    -0.266 OA
HETATM    8  H   UNL     1      42.671 -13.369   7.219  1.00  0.00     0.190 HD
BRANCH   6   9
HETATM    9  C   UNL     1      44.493 -12.244   8.825  1.00  0.00     0.033 A 
HETATM   10  C   UNL     1      45.346 -12.239   9.935  1.00  0.00     0.017 A 
HETATM   11  C   UNL     1      45.060 -11.423  11.033  1.00  0.00     0.008 A 
HETATM   12  C   UNL     1      43.924 -10.603  11.036  1.00  0.00    -0.059 A 
HETATM   13  C   UNL     1      43.086 -10.594   9.913  1.00  0.00     0.008 A 
HETATM   14  C   UNL     1      43.371 -11.407   8.814  1.00  0.00     0.017 A 
BRANCH  12  15
HETATM   15  C   UNL     1      43.624  -9.714  12.217  1.00  0.00     0.034 C 
HETATM   16  C   UNL     1      42.907 -10.468  13.326  1.00  0.00     0.010 C 
ENDBRANCH  12  15
ENDBRANCH   6   9
ENDBRANCH   1   5
BRANCH   2  17
HETATM   17  C   UNL     1      43.317 -16.218   4.354  1.00  0.00     0.061 A 
HETATM   18  C   UNL     1      43.594 -17.588   4.512  1.00  0.00     0.059 A 
HETATM   19  C   UNL     1      43.942 -18.420   3.450  1.00  0.00    -0.001 A 
HETATM   20  N   UNL     1      43.594 -18.366   5.647  1.00  0.00    -0.358 N 
HETATM   21  C   UNL     1      44.177 -19.729   3.986  1.00  0.00    -0.027 A 
HETATM   22  C   UNL     1      43.997 -17.864   2.155  1.00  0.00     0.014 A 
HETATM   23  C   UNL     1      44.589 -20.941   3.227  1.00  0.00     0.051 C 
HETATM   24  C   UNL     1      43.956 -19.655   5.353  1.00  0.00     0.012 A 
HETATM   25  C   UNL     1      44.048 -20.682   6.422  1.00  0.00     0.068 C 
HETATM   26  C   UNL     1      43.697 -16.510   1.967  1.00  0.00     0.002 A 
HETATM   27  C   UNL     1      43.360 -15.699   3.050  1.00  0.00     0.019 A 
HETATM   28  H   UNL     1      43.347 -18.007   6.563  1.00  0.00     0.166 HD
ENDBRANCH   2  17
TORSDOF 4
ENDMDL
MODEL 2
REMARK VINA RESULT:      -9.6      1.553      9.239
REMARK  4 active torsions:
REMARK  status: ('A' for Active; 'I' for Inactive)
REMARK    1  A    between atoms: C_2  and  C_3 
REMARK    2  A    between atoms: C_6  and  C_7 
REMARK       I    between atoms: C_7  and  N_8 
REMARK    3  A    between atoms: N_8  and  N_9 
REMARK       I    between atoms: N_9  and  C_10 
REMARK    4  A    between atoms: C_10  and  C_11 
ROOT
HETATM    1  N   UNL     1      44.100 -14.483   7.636  1.00  0.00    -0.263 N 
HETATM    2  C   UNL     1      44.942 -13.390   7.640  1.00  0.00     0.272 C 
HETATM    3  O   UNL     1      45.847 -13.247   6.818  1.00  0.00    -0.266 OA
HETATM    4  H   UNL     1      43.487 -14.730   8.411  1.00  0.00     0.190 HD
ENDROOT
BRANCH   1   5
HETATM    5  N   UNL     1      44.347 -15.503   6.714  1.00  0.00    -0.263 N 
HETATM    6  C   UNL     1      43.747 -16.726   6.929  1.00  0.00     0.270 C 
HETATM    7  O   UNL     1      43.064 -16.958   7.925  1.00  0.00    -0.266 OA
HETATM    8  H   UNL     1      44.800 -15.224   5.847  1.00  0.00     0.190 HD
BRANCH   6   9
HETATM    9  C   UNL     1      43.935 -17.757   5.873  1.00  0.00     0.033 A 
HETATM   10  C   UNL     1      43.317 -17.669   4.620  1.00  0.00     0.017 A 
HETATM   11  C   UNL     1      43.522 -18.672   3.668  1.00  0.00     0.008 A 
HETATM   12  C   UNL     1      44.345 -19.769   3.952  1.00  0.00    -0.059 A 
HETATM   13  C   UNL     1      44.979 -19.841   5.199  1.00  0.00     0.008 A 
HETATM   14  C   UNL     1      44.778 -18.840   6.151  1.00  0.00     0.017 A 
BRANCH  12  15
HETATM   15  C   UNL     1      44.575 -20.843   2.918  1.00  0.00     0.034 C 
HETATM   16  C   UNL     1      43.546 -20.780   1.799  1.00  0.00     0.010 C 
ENDBRANCH  12  15
ENDBRANCH   6   9
ENDBRANCH   1   5
BRANCH   2  17
HETATM   17  C   UNL     1      44.733 -12.397   8.729  1.00  0.00     0.061 A 
HETATM   18  C   UNL     1      43.570 -11.606   8.733  1.00  0.00     0.059 A 
HETATM   19  C   UNL     1      43.316 -10.634   9.699  1.00  0.00    -0.001 A 
HETATM   20  N   UNL     1      42.503 -11.596   7.864  1.00  0.00    -0.358 N 
HETATM   21  C   UNL     1      42.064 -10.016   9.369  1.00  0.00    -0.027 A 
HETATM   22  C   UNL     1      44.260 -10.453  10.730  1.00  0.00     0.014 A 
HETATM   23  C   UNL     1      41.394  -8.912  10.109  1.00  0.00     0.051 C 
HETATM   24  C   UNL     1      41.592 -10.636   8.222  1.00  0.00     0.012 A 
HETATM   25  C   UNL     1      40.360 -10.420   7.422  1.00  0.00     0.068 C 
HETATM   26  C   UNL     1      45.411 -11.247  10.765  1.00  0.00     0.002 A 
HETATM   27  C   UNL     1      45.644 -12.206   9.780  1.00  0.00     0.019 A 
HETATM   28  H   UNL     1      42.425 -12.232   7.077  1.00  0.00     0.166 HD
ENDBRANCH   2  17
TORSDOF 4
ENDMDL
MODEL 3
REMARK VINA RESULT:      -8.6      5.110      8.202
REMARK  4 active torsions:
REMARK  status: ('A' for Active; 'I' for Inactive)
REMARK    1  A    between atoms: C_2  and  C_3 
REMARK    2  A    between atoms: C_6  and  C_7 
REMARK       I    between atoms: C_7  and  N_8 
REMARK    3  A    between atoms: N_8  and  N_9 
REMARK       I    between atoms: N_9  and  C_10 
REMARK    4  A    between atoms: C_10  and  C_11 
ROOT
HETATM    1  N   UNL     1      41.991 -15.882   3.539  1.00  0.00    -0.263 N 
HETATM    2  C   UNL     1      43.137 -16.586   3.237  1.00  0.00     0.272 C 
HETATM    3  O   UNL     1      43.686 -16.521   2.138  1.00  0.00    -0.266 OA
HETATM    4  H   UNL     1      41.406 -16.069   4.352  1.00  0.00     0.190 HD
ENDROOT
BRANCH   1   5
HETATM    5  N   UNL     1      41.389 -15.135   2.523  1.00  0.00    -0.263 N 
HETATM    6  C   UNL     1      40.289 -15.675   1.891  1.00  0.00     0.270 C 
HETATM    7  O   UNL     1      39.868 -16.802   2.148  1.00  0.00    -0.266 OA
HETATM    8  H   UNL     1      41.684 -14.165   2.443  1.00  0.00     0.190 HD
BRANCH   6   9
HETATM    9  C   UNL     1      39.600 -14.812   0.893  1.00  0.00     0.033 A 
HETATM   10  C   UNL     1      40.206 -14.421  -0.307  1.00  0.00     0.017 A 
HETATM   11  C   UNL     1      39.516 -13.602  -1.204  1.00  0.00     0.008 A 
HETATM   12  C   UNL     1      38.216 -13.165  -0.918  1.00  0.00    -0.059 A 
HETATM   13  C   UNL     1      37.606 -13.578   0.273  1.00  0.00     0.008 A 
HETATM   14  C   UNL     1      38.292 -14.398   1.171  1.00  0.00     0.017 A 
BRANCH  12  15
HETATM   15  C   UNL     1      37.469 -12.291  -1.894  1.00  0.00     0.034 C 
HETATM   16  C   UNL     1      37.521 -12.849  -3.308  1.00  0.00     0.010 C 
ENDBRANCH  12  15
ENDBRANCH   6   9
ENDBRANCH   1   5
BRANCH   2  17
HETATM   17  C   UNL     1      43.665 -17.480   4.304  1.00  0.00     0.061 A 
HETATM   18  C   UNL     1      43.982 -18.816   3.996  1.00  0.00     0.059 A 
HETATM   19  C   UNL     1      44.452 -19.723   4.944  1.00  0.00    -0.001 A 
HETATM   20  N   UNL     1      43.907 -19.490   2.799  1.00  0.00    -0.358 N 
HETATM   21  C   UNL     1      44.637 -20.982   4.281  1.00  0.00    -0.027 A 
HETATM   22  C   UNL     1      44.637 -19.273   6.267  1.00  0.00     0.014 A 
HETATM   23  C   UNL     1      45.110 -22.251   4.898  1.00  0.00     0.051 C 
HETATM   24  C   UNL     1      44.284 -20.799   2.953  1.00  0.00     0.012 A 
HETATM   25  C   UNL     1      44.269 -21.736   1.801  1.00  0.00     0.068 C 
HETATM   26  C   UNL     1      44.357 -17.941   6.593  1.00  0.00     0.002 A 
HETATM   27  C   UNL     1      43.880 -17.057   5.625  1.00  0.00     0.019 A 
HETATM   28  H   UNL     1      43.617 -19.048   1.933  1.00  0.00     0.166 HD
ENDBRANCH   2  17
TORSDOF 4
ENDMDL
MODEL 4
REMARK VINA RESULT:      -8.6      5.923      9.142
REMARK  4 active torsions:
REMARK  status: ('A' for Active; 'I' for Inactive)
REMARK    1  A    between atoms: C_2  and  C_3 
REMARK    2  A    between atoms: C_6  and  C_7 
REMARK       I    between atoms: C_7  and  N_8 
REMARK    3  A    between atoms: N_8  and  N_9 
REMARK       I    between atoms: N_9  and  C_10 
REMARK    4  A    between atoms: C_10  and  C_11 
ROOT
HETATM    1  N   UNL     1      42.135 -15.907   0.209  1.00  0.00    -0.263 N 
HETATM    2  C   UNL     1      41.598 -14.642   0.094  1.00  0.00     0.272 C 
HETATM    3  O   UNL     1      41.258 -13.974   1.070  1.00  0.00    -0.266 OA
HETATM    4  H   UNL     1      42.232 -16.557  -0.570  1.00  0.00     0.190 HD
ENDROOT
BRANCH   1   5
HETATM    5  N   UNL     1      42.211 -16.479   1.481  1.00  0.00    -0.263 N 
HETATM    6  C   UNL     1      43.095 -17.520   1.669  1.00  0.00     0.270 C 
HETATM    7  O   UNL     1      43.761 -17.993   0.749  1.00  0.00    -0.266 OA
HETATM    8  H   UNL     1      41.748 -15.970   2.231  1.00  0.00     0.190 HD
BRANCH   6   9
HETATM    9  C   UNL     1      43.238 -18.034   3.058  1.00  0.00     0.033 A 
HETATM   10  C   UNL     1      42.541 -17.480   4.139  1.00  0.00     0.017 A 
HETATM   11  C   UNL     1      42.719 -17.996   5.425  1.00  0.00     0.008 A 
HETATM   12  C   UNL     1      43.592 -19.069   5.649  1.00  0.00    -0.059 A 
HETATM   13  C   UNL     1      44.269 -19.635   4.561  1.00  0.00     0.008 A 
HETATM   14  C   UNL     1      44.091 -19.123   3.275  1.00  0.00     0.017 A 
BRANCH  12  15
HETATM   15  C   UNL     1      43.773 -19.633   7.036  1.00  0.00     0.034 C 
HETATM   16  C   UNL     1      43.689 -21.152   7.045  1.00  0.00     0.010 C 
ENDBRANCH  12  15
ENDBRANCH   6   9
ENDBRANCH   1   5
BRANCH   2  17
HETATM   17  C   UNL     1      41.403 -14.129  -1.290  1.00  0.00     0.061 A 
HETATM   18  C   UNL     1      41.946 -12.882  -1.651  1.00  0.00     0.059 A 
HETATM   19  C   UNL     1      41.782 -12.320  -2.915  1.00  0.00    -0.001 A 
HETATM   20  N   UNL     1      42.696 -11.997  -0.912  1.00  0.00    -0.358 N 
HETATM   21  C   UNL     1      42.441 -11.046  -2.909  1.00  0.00    -0.027 A 
HETATM   22  C   UNL     1      41.055 -13.045  -3.881  1.00  0.00     0.014 A 
HETATM   23  C   UNL     1      42.516 -10.077  -4.037  1.00  0.00     0.051 C 
HETATM   24  C   UNL     1      42.992 -10.878  -1.648  1.00  0.00     0.012 A 
HETATM   25  C   UNL     1      43.780  -9.766  -1.058  1.00  0.00     0.068 C 
HETATM   26  C   UNL     1      40.529 -14.301  -3.557  1.00  0.00     0.002 A 
HETATM   27  C   UNL     1      40.702 -14.836  -2.280  1.00  0.00     0.019 A 
HETATM   28  H   UNL     1      42.984 -12.178   0.043  1.00  0.00     0.166 HD
ENDBRANCH   2  17
TORSDOF 4
ENDMDL
MODEL 5
REMARK VINA RESULT:      -8.3      6.159      9.193
REMARK  4 active torsions:
REMARK  status: ('A' for Active; 'I' for Inactive)
REMARK    1  A    between atoms: C_2  and  C_3 
REMARK    2  A    between atoms: C_6  and  C_7 
REMARK       I    between atoms: C_7  and  N_8 
REMARK    3  A    between atoms: N_8  and  N_9 
REMARK       I    between atoms: N_9  and  C_10 
REMARK    4  A    between atoms: C_10  and  C_11 
ROOT
HETATM    1  N   UNL     1      41.035 -16.697   0.239  1.00  0.00    -0.263 N 
HETATM    2  C   UNL     1      40.955 -15.321   0.192  1.00  0.00     0.272 C 
HETATM    3  O   UNL     1      41.233 -14.607   1.155  1.00  0.00    -0.266 OA
HETATM    4  H   UNL     1      40.622 -17.314  -0.458  1.00  0.00     0.190 HD
ENDROOT
BRANCH   1   5
HETATM    5  N   UNL     1      41.362 -17.298   1.457  1.00  0.00    -0.263 N 
HETATM    6  C   UNL     1      42.658 -17.735   1.633  1.00  0.00     0.270 C 
HETATM    7  O   UNL     1      43.503 -17.668   0.742  1.00  0.00    -0.266 OA
HETATM    8  H   UNL     1      40.675 -17.207   2.201  1.00  0.00     0.190 HD
BRANCH   6   9
HETATM    9  C   UNL     1      43.006 -18.267   2.979  1.00  0.00     0.033 A 
HETATM   10  C   UNL     1      44.058 -19.170   3.179  1.00  0.00     0.017 A 
HETATM   11  C   UNL     1      44.336 -19.644   4.464  1.00  0.00     0.008 A 
HETATM   12  C   UNL     1      43.573 -19.224   5.561  1.00  0.00    -0.059 A 
HETATM   13  C   UNL     1      42.537 -18.303   5.358  1.00  0.00     0.008 A 
HETATM   14  C   UNL     1      42.258 -17.826   4.077  1.00  0.00     0.017 A 
BRANCH  12  15
HETATM   15  C   UNL     1      43.884 -19.727   6.949  1.00  0.00     0.034 C 
HETATM   16  C   UNL     1      43.657 -21.226   7.071  1.00  0.00     0.010 C 
ENDBRANCH  12  15
ENDBRANCH   6   9
ENDBRANCH   1   5
BRANCH   2  17
HETATM   17  C   UNL     1      40.466 -14.729  -1.083  1.00  0.00     0.061 A 
HETATM   18  C   UNL     1      39.360 -13.858  -1.065  1.00  0.00     0.059 A 
HETATM   19  C   UNL     1      38.824 -13.288  -2.217  1.00  0.00    -0.001 A 
HETATM   20  N   UNL     1      38.608 -13.406  -0.005  1.00  0.00    -0.358 N 
HETATM   21  C   UNL     1      37.701 -12.489  -1.820  1.00  0.00    -0.027 A 
HETATM   22  C   UNL     1      39.432 -13.581  -3.455  1.00  0.00     0.014 A 
HETATM   23  C   UNL     1      36.807 -11.703  -2.714  1.00  0.00     0.051 C 
HETATM   24  C   UNL     1      37.595 -12.591  -0.441  1.00  0.00     0.012 A 
HETATM   25  C   UNL     1      36.633 -11.993   0.519  1.00  0.00     0.068 C 
HETATM   26  C   UNL     1      40.551 -14.421  -3.497  1.00  0.00     0.002 A 
HETATM   27  C   UNL     1      41.061 -14.985  -2.328  1.00  0.00     0.019 A 
HETATM   28  H   UNL     1      38.806 -13.652   0.958  1.00  0.00     0.166 HD
ENDBRANCH   2  17
TORSDOF 4
ENDMDL
MODEL 6
REMARK VINA RESULT:      -8.3      1.873      8.892
REMARK  4 active torsions:
REMARK  status: ('A' for Active; 'I' for Inactive)
REMARK    1  A    between atoms: C_2  and  C_3 
REMARK    2  A    between atoms: C_6  and  C_7 
REMARK       I    between atoms: C_7  and  N_8 
REMARK    3  A    between atoms: N_8  and  N_9 
REMARK       I    between atoms: N_9  and  C_10 
REMARK    4  A    between atoms: C_10  and  C_11 
ROOT
HETATM    1  N   UNL     1      41.876 -14.100   6.202  1.00  0.00    -0.263 N 
HETATM    2  C   UNL     1      42.193 -12.816   5.808  1.00  0.00     0.272 C 
HETATM    3  O   UNL     1      42.802 -12.573   4.768  1.00  0.00    -0.266 OA
HETATM    4  H   UNL     1      41.563 -14.346   7.139  1.00  0.00     0.190 HD
ENDROOT
BRANCH   1   5
HETATM    5  N   UNL     1      42.345 -15.162   5.425  1.00  0.00    -0.263 N 
HETATM    6  C   UNL     1      43.091 -16.139   6.052  1.00  0.00     0.270 C 
HETATM    7  O   UNL     1      43.401 -16.070   7.240  1.00  0.00    -0.266 OA
HETATM    8  H   UNL     1      41.951 -15.244   4.491  1.00  0.00     0.190 HD
BRANCH   6   9
HETATM    9  C   UNL     1      43.480 -17.315   5.227  1.00  0.00     0.033 A 
HETATM   10  C   UNL     1      43.013 -17.502   3.920  1.00  0.00     0.017 A 
HETATM   11  C   UNL     1      43.405 -18.629   3.193  1.00  0.00     0.008 A 
HETATM   12  C   UNL     1      44.266 -19.580   3.757  1.00  0.00    -0.059 A 
HETATM   13  C   UNL     1      44.749 -19.376   5.056  1.00  0.00     0.008 A 
HETATM   14  C   UNL     1      44.361 -18.249   5.784  1.00  0.00     0.017 A 
BRANCH  12  15
HETATM   15  C   UNL     1      44.698 -20.789   2.966  1.00  0.00     0.034 C 
HETATM   16  C   UNL     1      43.710 -21.122   1.857  1.00  0.00     0.010 C 
ENDBRANCH  12  15
ENDBRANCH   6   9
ENDBRANCH   1   5
BRANCH   2  17
HETATM   17  C   UNL     1      41.797 -11.722   6.738  1.00  0.00     0.061 A 
HETATM   18  C   UNL     1      42.557 -11.490   7.899  1.00  0.00     0.059 A 
HETATM   19  C   UNL     1      42.236 -10.506   8.832  1.00  0.00    -0.001 A 
HETATM   20  N   UNL     1      43.692 -12.120   8.355  1.00  0.00    -0.358 N 
HETATM   21  C   UNL     1      43.205 -10.580   9.886  1.00  0.00    -0.027 A 
HETATM   22  C   UNL     1      41.109  -9.695   8.588  1.00  0.00     0.014 A 
HETATM   23  C   UNL     1      43.256  -9.733  11.110  1.00  0.00     0.051 C 
HETATM   24  C   UNL     1      44.090 -11.596   9.557  1.00  0.00     0.012 A 
HETATM   25  C   UNL     1      45.284 -12.127  10.262  1.00  0.00     0.068 C 
HETATM   26  C   UNL     1      40.353  -9.886   7.426  1.00  0.00     0.002 A 
HETATM   27  C   UNL     1      40.693 -10.885   6.513  1.00  0.00     0.019 A 
HETATM   28  H   UNL     1      44.154 -12.864   7.844  1.00  0.00     0.166 HD
ENDBRANCH   2  17
TORSDOF 4
ENDMDL
MODEL 7
REMARK VINA RESULT:      -8.3      4.732      8.781
REMARK  4 active torsions:
REMARK  status: ('A' for Active; 'I' for Inactive)
REMARK    1  A    between atoms: C_2  and  C_3 
REMARK    2  A    between atoms: C_6  and  C_7 
REMARK       I    between atoms: C_7  and  N_8 
REMARK    3  A    between atoms: N_8  and  N_9 
REMARK       I    between atoms: N_9  and  C_10 
REMARK    4  A    between atoms: C_10  and  C_11 
ROOT
HETATM    1  N   UNL     1      42.863 -16.903   0.518  1.00  0.00    -0.263 N 
HETATM    2  C   UNL     1      42.201 -17.836   1.287  1.00  0.00     0.272 C 
HETATM    3  O   UNL     1      40.982 -17.999   1.229  1.00  0.00    -0.266 OA
HETATM    4  H   UNL     1      43.823 -16.604   0.688  1.00  0.00     0.190 HD
ENDROOT
BRANCH   1   5
HETATM    5  N   UNL     1      42.103 -16.055  -0.292  1.00  0.00    -0.263 N 
HETATM    6  C   UNL     1      41.826 -14.789   0.181  1.00  0.00     0.270 C 
HETATM    7  O   UNL     1      42.170 -14.414   1.301  1.00  0.00    -0.266 OA
HETATM    8  H   UNL     1      41.962 -16.358  -1.252  1.00  0.00     0.190 HD
BRANCH   6   9
HETATM    9  C   UNL     1      41.113 -13.870  -0.747  1.00  0.00     0.033 A 
HETATM   10  C   UNL     1      39.716 -13.830  -0.839  1.00  0.00     0.017 A 
HETATM   11  C   UNL     1      39.099 -12.953  -1.735  1.00  0.00     0.008 A 
HETATM   12  C   UNL     1      39.865 -12.106  -2.547  1.00  0.00    -0.059 A 
HETATM   13  C   UNL     1      41.261 -12.133  -2.435  1.00  0.00     0.008 A 
HETATM   14  C   UNL     1      41.880 -13.007  -1.539  1.00  0.00     0.017 A 
BRANCH  12  15
HETATM   15  C   UNL     1      39.196 -11.151  -3.503  1.00  0.00     0.034 C 
HETATM   16  C   UNL     1      40.099 -10.798  -4.675  1.00  0.00     0.010 C 
ENDBRANCH  12  15
ENDBRANCH   6   9
ENDBRANCH   1   5
BRANCH   2  17
HETATM   17  C   UNL     1      43.033 -18.620   2.240  1.00  0.00     0.061 A 
HETATM   18  C   UNL     1      43.329 -18.085   3.507  1.00  0.00     0.059 A 
HETATM   19  C   UNL     1      44.125 -18.743   4.442  1.00  0.00    -0.001 A 
HETATM   20  N   UNL     1      42.945 -16.892   4.074  1.00  0.00    -0.358 N 
HETATM   21  C   UNL     1      44.231 -17.892   5.592  1.00  0.00    -0.027 A 
HETATM   22  C   UNL     1      44.638 -20.013   4.109  1.00  0.00     0.014 A 
HETATM   23  C   UNL     1      44.995 -18.171   6.838  1.00  0.00     0.051 C 
HETATM   24  C   UNL     1      43.489 -16.751   5.325  1.00  0.00     0.012 A 
HETATM   25  C   UNL     1      43.234 -15.531   6.133  1.00  0.00     0.068 C 
HETATM   26  C   UNL     1      44.334 -20.581   2.867  1.00  0.00     0.002 A 
HETATM   27  C   UNL     1      43.542 -19.896   1.946  1.00  0.00     0.019 A 
HETATM   28  H   UNL     1      42.334 -16.229   3.609  1.00  0.00     0.166 HD
ENDBRANCH   2  17
TORSDOF 4
ENDMDL
MODEL 8
REMARK VINA RESULT:      -8.2      6.314      9.620
REMARK  4 active torsions:
REMARK  status: ('A' for Active; 'I' for Inactive)
REMARK    1  A    between atoms: C_2  and  C_3 
REMARK    2  A    between atoms: C_6  and  C_7 
REMARK       I    between atoms: C_7  and  N_8 
REMARK    3  A    between atoms: N_8  and  N_9 
REMARK       I    between atoms: N_9  and  C_10 
REMARK    4  A    between atoms: C_10  and  C_11 
ROOT
HETATM    1  N   UNL     1      40.513 -16.159   0.711  1.00  0.00    -0.263 N 
HETATM    2  C   UNL     1      40.856 -14.886   0.308  1.00  0.00     0.272 C 
HETATM    3  O   UNL     1      42.015 -14.474   0.328  1.00  0.00    -0.266 OA
HETATM    4  H   UNL     1      39.557 -16.457   0.900  1.00  0.00     0.190 HD
ENDROOT
BRANCH   1   5
HETATM    5  N   UNL     1      41.514 -16.976   1.243  1.00  0.00    -0.263 N 
HETATM    6  C   UNL     1      41.534 -17.167   2.609  1.00  0.00     0.270 C 
HETATM    7  O   UNL     1      40.746 -16.599   3.364  1.00  0.00    -0.266 OA
HETATM    8  H   UNL     1      42.049 -17.524   0.574  1.00  0.00     0.190 HD
BRANCH   6   9
HETATM    9  C   UNL     1      42.539 -18.129   3.135  1.00  0.00     0.033 A 
HETATM   10  C   UNL     1      43.337 -18.915   2.294  1.00  0.00     0.017 A 
HETATM   11  C   UNL     1      44.261 -19.809   2.842  1.00  0.00     0.008 A 
HETATM   12  C   UNL     1      44.400 -19.930   4.231  1.00  0.00    -0.059 A 
HETATM   13  C   UNL     1      43.615 -19.125   5.067  1.00  0.00     0.008 A 
HETATM   14  C   UNL     1      42.694 -18.229   4.523  1.00  0.00     0.017 A 
BRANCH  12  15
HETATM   15  C   UNL     1      45.406 -20.886   4.820  1.00  0.00     0.034 C 
HETATM   16  C   UNL     1      44.806 -22.264   5.058  1.00  0.00     0.010 C 
ENDBRANCH  12  15
ENDBRANCH   6   9
ENDBRANCH   1   5
BRANCH   2  17
HETATM   17  C   UNL     1      39.737 -14.001  -0.117  1.00  0.00     0.061 A 
HETATM   18  C   UNL     1      39.114 -14.219  -1.360  1.00  0.00     0.059 A 
HETATM   19  C   UNL     1      38.081 -13.417  -1.843  1.00  0.00    -0.001 A 
HETATM   20  N   UNL     1      39.353 -15.182  -2.313  1.00  0.00    -0.358 N 
HETATM   21  C   UNL     1      37.719 -13.916  -3.138  1.00  0.00    -0.027 A 
HETATM   22  C   UNL     1      37.628 -12.353  -1.037  1.00  0.00     0.014 A 
HETATM   23  C   UNL     1      36.672 -13.365  -4.042  1.00  0.00     0.051 C 
HETATM   24  C   UNL     1      38.533 -15.008  -3.397  1.00  0.00     0.012 A 
HETATM   25  C   UNL     1      38.617 -15.916  -4.570  1.00  0.00     0.068 C 
HETATM   26  C   UNL     1      38.211 -12.133   0.216  1.00  0.00     0.002 A 
HETATM   27  C   UNL     1      39.250 -12.946   0.670  1.00  0.00     0.019 A 
HETATM   28  H   UNL     1      40.045 -15.914  -2.197  1.00  0.00     0.166 HD
ENDBRANCH   2  17
TORSDOF 4
ENDMDL
MODEL 9
REMARK VINA RESULT:      -8.2      5.149      7.859
REMARK  4 active torsions:
REMARK  status: ('A' for Active; 'I' for Inactive)
REMARK    1  A    between atoms: C_2  and  C_3 
REMARK    2  A    between atoms: C_6  and  C_7 
REMARK       I    between atoms: C_7  and  N_8 
REMARK    3  A    between atoms: N_8  and  N_9 
REMARK       I    between atoms: N_9  and  C_10 
REMARK    4  A    between atoms: C_10  and  C_11 
ROOT
HETATM    1  N   UNL     1      42.360 -15.839   3.011  1.00  0.00    -0.263 N 
HETATM    2  C   UNL     1      43.428 -16.700   2.864  1.00  0.00     0.272 C 
HETATM    3  O   UNL     1      44.059 -16.800   1.813  1.00  0.00    -0.266 OA
HETATM    4  H   UNL     1      41.698 -15.881   3.784  1.00  0.00     0.190 HD
ENDROOT
BRANCH   1   5
HETATM    5  N   UNL     1      41.933 -15.121   1.891  1.00  0.00    -0.263 N 
HETATM    6  C   UNL     1      42.344 -13.810   1.771  1.00  0.00     0.270 C 
HETATM    7  O   UNL     1      43.013 -13.247   2.636  1.00  0.00    -0.266 OA
HETATM    8  H   UNL     1      41.502 -15.663   1.147  1.00  0.00     0.190 HD
BRANCH   6   9
HETATM    9  C   UNL     1      41.968 -13.105   0.515  1.00  0.00     0.033 A 
HETATM   10  C   UNL     1      41.730 -13.785  -0.685  1.00  0.00     0.017 A 
HETATM   11  C   UNL     1      41.388 -13.071  -1.837  1.00  0.00     0.008 A 
HETATM   12  C   UNL     1      41.279 -11.675  -1.806  1.00  0.00    -0.059 A 
HETATM   13  C   UNL     1      41.495 -11.001  -0.597  1.00  0.00     0.008 A 
HETATM   14  C   UNL     1      41.835 -11.712   0.556  1.00  0.00     0.017 A 
BRANCH  12  15
HETATM   15  C   UNL     1      40.897 -10.909  -3.047  1.00  0.00     0.034 C 
HETATM   16  C   UNL     1      41.950 -11.035  -4.137  1.00  0.00     0.010 C 
ENDBRANCH  12  15
ENDBRANCH   6   9
ENDBRANCH   1   5
BRANCH   2  17
HETATM   17  C   UNL     1      43.759 -17.551   4.040  1.00  0.00     0.061 A 
HETATM   18  C   UNL     1      44.070 -18.910   3.848  1.00  0.00     0.059 A 
HETATM   19  C   UNL     1      44.361 -19.778   4.898  1.00  0.00    -0.001 A 
HETATM   20  N   UNL     1      44.149 -19.644   2.687  1.00  0.00    -0.358 N 
HETATM   21  C   UNL     1      44.597 -21.074   4.333  1.00  0.00    -0.027 A 
HETATM   22  C   UNL     1      44.365 -19.262   6.210  1.00  0.00     0.014 A 
HETATM   23  C   UNL     1      44.928 -22.322   5.074  1.00  0.00     0.051 C 
HETATM   24  C   UNL     1      44.452 -20.953   2.959  1.00  0.00     0.012 A 
HETATM   25  C   UNL     1      44.573 -21.949   1.865  1.00  0.00     0.068 C 
HETATM   26  C   UNL     1      44.088 -17.908   6.426  1.00  0.00     0.002 A 
HETATM   27  C   UNL     1      43.791 -17.064   5.356  1.00  0.00     0.019 A 
HETATM   28  H   UNL     1      44.006 -19.241   1.767  1.00  0.00     0.166 HD
ENDBRANCH   2  17
TORSDOF 4
ENDMDL
MODEL 10
REMARK VINA RESULT:      -8.2      2.124      9.220
REMARK  4 active torsions:
REMARK  status: ('A' for Active; 'I' for Inactive)
REMARK    1  A    between atoms: C_2  and  C_3 
REMARK    2  A    between atoms: C_6  and  C_7 
REMARK       I    between atoms: C_7  and  N_8 
REMARK    3  A    between atoms: N_8  and  N_9 
REMARK       I    between atoms: N_9  and  C_10 
REMARK    4  A    between atoms: C_10  and  C_11 
ROOT
HETATM    1  N   UNL     1      42.242 -14.063   4.799  1.00  0.00    -0.263 N 
HETATM    2  C   UNL     1      42.741 -13.332   5.856  1.00  0.00     0.272 C 
HETATM    3  O   UNL     1      43.778 -13.638   6.445  1.00  0.00    -0.266 OA
HETATM    4  H   UNL     1      41.298 -13.959   4.431  1.00  0.00     0.190 HD
ENDROOT
BRANCH   1   5
HETATM    5  N   UNL     1      42.899 -15.244   4.444  1.00  0.00    -0.263 N 
HETATM    6  C   UNL     1      42.202 -16.428   4.554  1.00  0.00     0.270 C 
HETATM    7  O   UNL     1      41.059 -16.480   5.006  1.00  0.00    -0.266 OA
HETATM    8  H   UNL     1      43.784 -15.136   3.954  1.00  0.00     0.190 HD
BRANCH   6   9
HETATM    9  C   UNL     1      42.886 -17.655   4.064  1.00  0.00     0.033 A 
HETATM   10  C   UNL     1      43.722 -18.426   4.881  1.00  0.00     0.017 A 
HETATM   11  C   UNL     1      44.347 -19.565   4.365  1.00  0.00     0.008 A 
HETATM   12  C   UNL     1      44.145 -19.949   3.033  1.00  0.00    -0.059 A 
HETATM   13  C   UNL     1      43.289 -19.188   2.227  1.00  0.00     0.008 A 
HETATM   14  C   UNL     1      42.662 -18.051   2.739  1.00  0.00     0.017 A 
BRANCH  12  15
HETATM   15  C   UNL     1      44.810 -21.186   2.483  1.00  0.00     0.034 C 
HETATM   16  C   UNL     1      43.927 -21.901   1.472  1.00  0.00     0.010 C 
ENDBRANCH  12  15
ENDBRANCH   6   9
ENDBRANCH   1   5
BRANCH   2  17
HETATM   17  C   UNL     1      41.932 -12.161   6.292  1.00  0.00     0.061 A 
HETATM   18  C   UNL     1      42.241 -11.516   7.504  1.00  0.00     0.059 A 
HETATM   19  C   UNL     1      41.514 -10.434   7.995  1.00  0.00    -0.001 A 
HETATM   20  N   UNL     1      43.239 -11.776   8.415  1.00  0.00    -0.358 N 
HETATM   21  C   UNL     1      42.093 -10.061   9.253  1.00  0.00    -0.027 A 
HETATM   22  C   UNL     1      40.432  -9.952   7.230  1.00  0.00     0.014 A 
HETATM   23  C   UNL     1      41.638  -8.965  10.153  1.00  0.00     0.051 C 
HETATM   24  C   UNL     1      43.158 -10.919   9.482  1.00  0.00     0.012 A 
HETATM   25  C   UNL     1      44.119 -11.015  10.610  1.00  0.00     0.068 C 
HETATM   26  C   UNL     1      40.122 -10.557   6.007  1.00  0.00     0.002 A 
HETATM   27  C   UNL     1      40.862 -11.645   5.544  1.00  0.00     0.019 A 
HETATM   28  H   UNL     1      43.932 -12.504   8.283  1.00  0.00     0.166 HD
ENDBRANCH   2  17
TORSDOF 4
ENDMDL
