MODEL 1
REMARK VINA RESULT:      -8.7      0.000      0.000
REMARK  10 active torsions:
REMARK  status: ('A' for Active; 'I' for Inactive)
REMARK    1  A    between atoms: C_4  and  N_5 
REMARK    2  A    between atoms: N_5  and  C_6 
REMARK    3  A    between atoms: C_6  and  N_7 
REMARK    4  A    between atoms: N_7  and  N_8 
REMARK       I    between atoms: N_8  and  C_9 
REMARK    5  A    between atoms: C_9  and  C_10 
REMARK    6  A    between atoms: C_10  and  O_11 
REMARK    7  A    between atoms: O_11  and  C_12 
REMARK    8  A    between atoms: C_23  and  C_24 
REMARK    9  A    between atoms: C_24  and  O_25 
REMARK   10  A    between atoms: C_28  and  C_29 
ROOT
HETATM    1  C   UNL     1      41.344 -11.931   5.753  1.00  0.00     0.191 C 
HETATM    2  S   UNL     1      41.196 -11.737   4.088  1.00  0.00    -0.039 SA
ENDROOT
BRANCH   1   3
HETATM    3  N   UNL     1      41.655 -10.817   6.483  1.00  0.00    -0.325 N 
HETATM    4  H   UNL     1      42.420 -10.294   6.068  1.00  0.00     0.169 HD
BRANCH   3   5
HETATM    5  C   UNL     1      41.475 -10.597   7.835  1.00  0.00     0.094 C 
HETATM    6  S   UNL     1      39.826 -10.368   8.197  1.00  0.00    -0.075 SA
HETATM    7  C   UNL     1      40.156 -10.005   9.831  1.00  0.00    -0.007 C 
HETATM    8  C   UNL     1      39.038  -9.570  10.724  1.00  0.00     0.057 C 
HETATM    9  C   UNL     1      41.496 -10.197  10.127  1.00  0.00     0.006 C 
HETATM   10  C   UNL     1      42.266 -10.626   8.970  1.00  0.00     0.085 C 
BRANCH   9  11
HETATM   11  C   UNL     1      42.018  -9.952  11.470  1.00  0.00    -0.024 A 
HETATM   12  C   UNL     1      42.461  -8.668  11.815  1.00  0.00     0.012 A 
HETATM   13  C   UNL     1      42.978  -8.423  13.089  1.00  0.00     0.001 A 
HETATM   14  C   UNL     1      43.053  -9.457  14.021  1.00  0.00     0.000 A 
HETATM   15  C   UNL     1      42.615 -10.736  13.683  1.00  0.00     0.001 A 
HETATM   16  C   UNL     1      42.100 -10.986  12.409  1.00  0.00     0.012 A 
ENDBRANCH   9  11
BRANCH  10  17
HETATM   17  C   UNL     1      43.651 -11.086   9.019  1.00  0.00     0.296 C 
HETATM   18  O   UNL     1      44.533 -10.513   9.644  1.00  0.00    -0.259 OA
BRANCH  17  19
HETATM   19  O   UNL     1      43.856 -12.203   8.263  1.00  0.00    -0.322 OA
HETATM   20  C   UNL     1      45.142 -12.799   8.417  1.00  0.00     0.213 C 
ENDBRANCH  17  19
ENDBRANCH  10  17
ENDBRANCH   3   5
ENDBRANCH   1   3
BRANCH   1  21
HETATM   21  N   UNL     1      41.323 -13.146   6.374  1.00  0.00    -0.273 N 
HETATM   22  H   UNL     1      40.440 -13.545   6.691  1.00  0.00     0.189 HD
BRANCH  21  23
HETATM   23  N   UNL     1      42.344 -14.093   6.193  1.00  0.00    -0.266 N 
HETATM   24  C   UNL     1      41.973 -15.409   5.969  1.00  0.00     0.265 C 
HETATM   25  O   UNL     1      40.789 -15.747   5.905  1.00  0.00    -0.269 OA
HETATM   26  H   UNL     1      43.292 -13.791   6.398  1.00  0.00     0.190 HD
BRANCH  24  27
HETATM   27  C   UNL     1      43.143 -16.408   5.861  1.00  0.00     0.218 C 
HETATM   28  C   UNL     1      44.335 -15.990   6.719  1.00  0.00     0.050 C 
BRANCH  27  29
HETATM   29  O   UNL     1      43.560 -16.414   4.488  1.00  0.00    -0.335 OA
BRANCH  29  30
HETATM   30  C   UNL     1      43.791 -17.636   3.921  1.00  0.00     0.091 A 
HETATM   31  C   UNL     1      43.557 -17.789   2.546  1.00  0.00     0.068 A 
HETATM   32 CL   UNL     1      43.098 -16.444   1.562  1.00  0.00    -0.081 Cl
HETATM   33  C   UNL     1      43.697 -19.036   1.937  1.00  0.00     0.046 A 
HETATM   34  C   UNL     1      44.059 -20.137   2.708  1.00  0.00     0.012 A 
HETATM   35 BR   UNL     1      44.236 -21.833   1.893  1.00  0.00    -0.051 Br
HETATM   36  C   UNL     1      44.274 -20.003   4.080  1.00  0.00     0.022 A 
HETATM   37  C   UNL     1      44.129 -18.753   4.690  1.00  0.00     0.040 A 
ENDBRANCH  29  30
ENDBRANCH  27  29
ENDBRANCH  24  27
ENDBRANCH  21  23
ENDBRANCH   1  21
TORSDOF 10
ENDMDL
MODEL 2
REMARK VINA RESULT:      -8.4      5.757      9.591
REMARK  10 active torsions:
REMARK  status: ('A' for Active; 'I' for Inactive)
REMARK    1  A    between atoms: C_4  and  N_5 
REMARK    2  A    between atoms: N_5  and  C_6 
REMARK    3  A    between atoms: C_6  and  N_7 
REMARK    4  A    between atoms: N_7  and  N_8 
REMARK       I    between atoms: N_8  and  C_9 
REMARK    5  A    between atoms: C_9  and  C_10 
REMARK    6  A    between atoms: C_10  and  O_11 
REMARK    7  A    between atoms: O_11  and  C_12 
REMARK    8  A    between atoms: C_23  and  C_24 
REMARK    9  A    between atoms: C_24  and  O_25 
REMARK   10  A    between atoms: C_28  and  C_29 
ROOT
HETATM    1  C   UNL     1      41.356 -11.312   2.368  1.00  0.00     0.191 C 
HETATM    2  S   UNL     1      39.939 -10.434   2.141  1.00  0.00    -0.039 SA
ENDROOT
BRANCH   1   3
HETATM    3  N   UNL     1      42.083 -11.618   1.251  1.00  0.00    -0.325 N 
HETATM    4  H   UNL     1      42.911 -11.036   1.167  1.00  0.00     0.169 HD
BRANCH   3   5
HETATM    5  C   UNL     1      41.644 -12.167   0.063  1.00  0.00     0.094 C 
HETATM    6  S   UNL     1      42.195 -11.254  -1.266  1.00  0.00    -0.075 SA
HETATM    7  C   UNL     1      41.307 -12.195  -2.379  1.00  0.00    -0.007 C 
HETATM    8  C   UNL     1      41.283 -11.795  -3.820  1.00  0.00     0.057 C 
HETATM    9  C   UNL     1      40.711 -13.280  -1.757  1.00  0.00     0.006 C 
HETATM   10  C   UNL     1      40.975 -13.315  -0.326  1.00  0.00     0.085 C 
BRANCH   9  11
HETATM   11  C   UNL     1      39.899 -14.234  -2.509  1.00  0.00    -0.024 A 
HETATM   12  C   UNL     1      40.506 -15.363  -3.073  1.00  0.00     0.012 A 
HETATM   13  C   UNL     1      39.745 -16.275  -3.809  1.00  0.00     0.001 A 
HETATM   14  C   UNL     1      38.378 -16.061  -3.983  1.00  0.00     0.000 A 
HETATM   15  C   UNL     1      37.770 -14.938  -3.425  1.00  0.00     0.001 A 
HETATM   16  C   UNL     1      38.528 -14.023  -2.691  1.00  0.00     0.012 A 
ENDBRANCH   9  11
BRANCH  10  17
HETATM   17  C   UNL     1      40.641 -14.432   0.552  1.00  0.00     0.296 C 
HETATM   18  O   UNL     1      41.120 -15.552   0.435  1.00  0.00    -0.259 OA
BRANCH  17  19
HETATM   19  O   UNL     1      39.711 -14.096   1.492  1.00  0.00    -0.322 OA
HETATM   20  C   UNL     1      38.824 -15.152   1.855  1.00  0.00     0.213 C 
ENDBRANCH  17  19
ENDBRANCH  10  17
ENDBRANCH   3   5
ENDBRANCH   1   3
BRANCH   1  21
HETATM   21  N   UNL     1      41.724 -11.852   3.566  1.00  0.00    -0.273 N 
HETATM   22  H   UNL     1      41.832 -11.255   4.386  1.00  0.00     0.189 HD
BRANCH  21  23
HETATM   23  N   UNL     1      41.508 -13.206   3.871  1.00  0.00    -0.266 N 
HETATM   24  C   UNL     1      42.533 -14.099   3.607  1.00  0.00     0.265 C 
HETATM   25  O   UNL     1      43.613 -13.728   3.142  1.00  0.00    -0.269 OA
HETATM   26  H   UNL     1      40.559 -13.476   4.114  1.00  0.00     0.190 HD
BRANCH  24  27
HETATM   27  C   UNL     1      42.199 -15.579   3.888  1.00  0.00     0.218 C 
HETATM   28  C   UNL     1      41.358 -15.746   5.152  1.00  0.00     0.050 C 
BRANCH  27  29
HETATM   29  O   UNL     1      43.448 -16.256   4.090  1.00  0.00    -0.335 OA
BRANCH  29  30
HETATM   30  C   UNL     1      43.545 -17.526   3.593  1.00  0.00     0.091 A 
HETATM   31  C   UNL     1      44.193 -18.498   4.370  1.00  0.00     0.068 A 
HETATM   32 CL   UNL     1      44.756 -18.140   5.964  1.00  0.00    -0.081 Cl
HETATM   33  C   UNL     1      44.392 -19.787   3.873  1.00  0.00     0.046 A 
HETATM   34  C   UNL     1      43.954 -20.099   2.589  1.00  0.00     0.012 A 
HETATM   35 BR   UNL     1      44.233 -21.838   1.902  1.00  0.00    -0.051 Br
HETATM   36  C   UNL     1      43.327 -19.136   1.799  1.00  0.00     0.022 A 
HETATM   37  C   UNL     1      43.132 -17.844   2.296  1.00  0.00     0.040 A 
ENDBRANCH  29  30
ENDBRANCH  27  29
ENDBRANCH  24  27
ENDBRANCH  21  23
ENDBRANCH   1  21
TORSDOF 10
ENDMDL
MODEL 3
REMARK VINA RESULT:      -8.3      5.327      9.614
REMARK  10 active torsions:
REMARK  status: ('A' for Active; 'I' for Inactive)
REMARK    1  A    between atoms: C_4  and  N_5 
REMARK    2  A    between atoms: N_5  and  C_6 
REMARK    3  A    between atoms: C_6  and  N_7 
REMARK    4  A    between atoms: N_7  and  N_8 
REMARK       I    between atoms: N_8  and  C_9 
REMARK    5  A    between atoms: C_9  and  C_10 
REMARK    6  A    between atoms: C_10  and  O_11 
REMARK    7  A    between atoms: O_11  and  C_12 
REMARK    8  A    between atoms: C_23  and  C_24 
REMARK    9  A    between atoms: C_24  and  O_25 
REMARK   10  A    between atoms: C_28  and  C_29 
ROOT
HETATM    1  C   UNL     1      41.668 -11.832   2.425  1.00  0.00     0.191 C 
HETATM    2  S   UNL     1      40.225 -10.967   2.388  1.00  0.00    -0.039 SA
ENDROOT
BRANCH   1   3
HETATM    3  N   UNL     1      42.348 -11.960   1.245  1.00  0.00    -0.325 N 
HETATM    4  H   UNL     1      43.110 -11.293   1.174  1.00  0.00     0.169 HD
BRANCH   3   5
HETATM    5  C   UNL     1      41.886 -12.436   0.034  1.00  0.00     0.094 C 
HETATM    6  S   UNL     1      42.682 -11.668  -1.262  1.00  0.00    -0.075 SA
HETATM    7  C   UNL     1      41.701 -12.442  -2.424  1.00  0.00    -0.007 C 
HETATM    8  C   UNL     1      41.843 -12.070  -3.866  1.00  0.00     0.057 C 
HETATM    9  C   UNL     1      40.872 -13.383  -1.835  1.00  0.00     0.006 C 
HETATM   10  C   UNL     1      41.035 -13.442  -0.390  1.00  0.00     0.085 C 
BRANCH   9  11
HETATM   11  C   UNL     1      39.941 -14.178  -2.632  1.00  0.00    -0.024 A 
HETATM   12  C   UNL     1      38.634 -13.714  -2.833  1.00  0.00     0.012 A 
HETATM   13  C   UNL     1      37.728 -14.471  -3.580  1.00  0.00     0.001 A 
HETATM   14  C   UNL     1      38.123 -15.691  -4.127  1.00  0.00     0.000 A 
HETATM   15  C   UNL     1      39.422 -16.158  -3.928  1.00  0.00     0.001 A 
HETATM   16  C   UNL     1      40.330 -15.405  -3.180  1.00  0.00     0.012 A 
ENDBRANCH   9  11
BRANCH  10  17
HETATM   17  C   UNL     1      40.440 -14.460   0.471  1.00  0.00     0.296 C 
HETATM   18  O   UNL     1      39.260 -14.470   0.793  1.00  0.00    -0.259 OA
BRANCH  17  19
HETATM   19  O   UNL     1      41.355 -15.375   0.903  1.00  0.00    -0.322 OA
HETATM   20  C   UNL     1      41.371 -16.595   0.166  1.00  0.00     0.213 C 
ENDBRANCH  17  19
ENDBRANCH  10  17
ENDBRANCH   3   5
ENDBRANCH   1   3
BRANCH   1  21
HETATM   21  N   UNL     1      42.102 -12.525   3.518  1.00  0.00    -0.273 N 
HETATM   22  H   UNL     1      42.206 -12.054   4.416  1.00  0.00     0.189 HD
BRANCH  21  23
HETATM   23  N   UNL     1      41.967 -13.919   3.617  1.00  0.00    -0.266 N 
HETATM   24  C   UNL     1      42.194 -14.505   4.852  1.00  0.00     0.265 C 
HETATM   25  O   UNL     1      42.481 -13.833   5.845  1.00  0.00    -0.269 OA
HETATM   26  H   UNL     1      41.871 -14.434   2.747  1.00  0.00     0.190 HD
BRANCH  24  27
HETATM   27  C   UNL     1      42.108 -16.045   4.871  1.00  0.00     0.218 C 
HETATM   28  C   UNL     1      41.563 -16.572   6.196  1.00  0.00     0.050 C 
BRANCH  27  29
HETATM   29  O   UNL     1      43.447 -16.537   4.711  1.00  0.00    -0.335 OA
BRANCH  29  30
HETATM   30  C   UNL     1      43.583 -17.763   4.121  1.00  0.00     0.091 A 
HETATM   31  C   UNL     1      44.423 -18.707   4.731  1.00  0.00     0.068 A 
HETATM   32 CL   UNL     1      45.179 -18.382   6.251  1.00  0.00    -0.081 Cl
HETATM   33  C   UNL     1      44.661 -19.941   4.125  1.00  0.00     0.046 A 
HETATM   34  C   UNL     1      44.070 -20.225   2.898  1.00  0.00     0.012 A 
HETATM   35 BR   UNL     1      44.400 -21.889   2.063  1.00  0.00    -0.051 Br
HETATM   36  C   UNL     1      43.250 -19.287   2.271  1.00  0.00     0.022 A 
HETATM   37  C   UNL     1      43.015 -18.050   2.877  1.00  0.00     0.040 A 
ENDBRANCH  29  30
ENDBRANCH  27  29
ENDBRANCH  24  27
ENDBRANCH  21  23
ENDBRANCH   1  21
TORSDOF 10
ENDMDL
MODEL 4
REMARK VINA RESULT:      -8.2      4.808      8.680
REMARK  10 active torsions:
REMARK  status: ('A' for Active; 'I' for Inactive)
REMARK    1  A    between atoms: C_4  and  N_5 
REMARK    2  A    between atoms: N_5  and  C_6 
REMARK    3  A    between atoms: C_6  and  N_7 
REMARK    4  A    between atoms: N_7  and  N_8 
REMARK       I    between atoms: N_8  and  C_9 
REMARK    5  A    between atoms: C_9  and  C_10 
REMARK    6  A    between atoms: C_10  and  O_11 
REMARK    7  A    between atoms: O_11  and  C_12 
REMARK    8  A    between atoms: C_23  and  C_24 
REMARK    9  A    between atoms: C_24  and  O_25 
REMARK   10  A    between atoms: C_28  and  C_29 
ROOT
HETATM    1  C   UNL     1      40.181 -12.434   4.504  1.00  0.00     0.191 C 
HETATM    2  S   UNL     1      40.362 -11.321   5.753  1.00  0.00    -0.039 SA
ENDROOT
BRANCH   1   3
HETATM    3  N   UNL     1      39.788 -11.945   3.288  1.00  0.00    -0.325 N 
HETATM    4  H   UNL     1      38.879 -11.495   3.338  1.00  0.00     0.169 HD
BRANCH   3   5
HETATM    5  C   UNL     1      40.143 -12.386   2.029  1.00  0.00     0.094 C 
HETATM    6  S   UNL     1      41.537 -11.578   1.475  1.00  0.00    -0.075 SA
HETATM    7  C   UNL     1      41.452 -12.319  -0.059  1.00  0.00    -0.007 C 
HETATM    8  C   UNL     1      42.414 -11.904  -1.127  1.00  0.00     0.057 C 
HETATM    9  C   UNL     1      40.453 -13.278  -0.098  1.00  0.00     0.006 C 
HETATM   10  C   UNL     1      39.729 -13.380   1.159  1.00  0.00     0.085 C 
BRANCH   9  11
HETATM   11  C   UNL     1      40.191 -14.051  -1.311  1.00  0.00    -0.024 A 
HETATM   12  C   UNL     1      39.153 -13.660  -2.168  1.00  0.00     0.012 A 
HETATM   13  C   UNL     1      38.881 -14.398  -3.322  1.00  0.00     0.001 A 
HETATM   14  C   UNL     1      39.642 -15.527  -3.624  1.00  0.00     0.000 A 
HETATM   15  C   UNL     1      40.674 -15.921  -2.773  1.00  0.00     0.001 A 
HETATM   16  C   UNL     1      40.948 -15.187  -1.617  1.00  0.00     0.012 A 
ENDBRANCH   9  11
BRANCH  10  17
HETATM   17  C   UNL     1      38.759 -14.425   1.476  1.00  0.00     0.296 C 
HETATM   18  O   UNL     1      37.671 -14.529   0.926  1.00  0.00    -0.259 OA
BRANCH  17  19
HETATM   19  O   UNL     1      39.188 -15.247   2.477  1.00  0.00    -0.322 OA
HETATM   20  C   UNL     1      39.908 -16.396   2.035  1.00  0.00     0.213 C 
ENDBRANCH  17  19
ENDBRANCH  10  17
ENDBRANCH   3   5
ENDBRANCH   1   3
BRANCH   1  21
HETATM   21  N   UNL     1      40.255 -13.785   4.682  1.00  0.00    -0.273 N 
HETATM   22  H   UNL     1      39.464 -14.379   4.433  1.00  0.00     0.189 HD
BRANCH  21  23
HETATM   23  N   UNL     1      41.483 -14.463   4.736  1.00  0.00    -0.266 N 
HETATM   24  C   UNL     1      41.548 -15.625   5.489  1.00  0.00     0.265 C 
HETATM   25  O   UNL     1      40.561 -16.072   6.078  1.00  0.00    -0.269 OA
HETATM   26  H   UNL     1      42.291 -13.980   4.356  1.00  0.00     0.190 HD
BRANCH  24  27
HETATM   27  C   UNL     1      42.945 -16.273   5.571  1.00  0.00     0.218 C 
HETATM   28  C   UNL     1      43.911 -15.447   6.417  1.00  0.00     0.050 C 
BRANCH  27  29
HETATM   29  O   UNL     1      43.458 -16.327   4.232  1.00  0.00    -0.335 OA
BRANCH  29  30
HETATM   30  C   UNL     1      43.722 -17.569   3.725  1.00  0.00     0.091 A 
HETATM   31  C   UNL     1      43.582 -17.769   2.343  1.00  0.00     0.068 A 
HETATM   32 CL   UNL     1      43.200 -16.458   1.284  1.00  0.00    -0.081 Cl
HETATM   33  C   UNL     1      43.759 -19.037   1.788  1.00  0.00     0.046 A 
HETATM   34  C   UNL     1      44.061 -20.111   2.621  1.00  0.00     0.012 A 
HETATM   35 BR   UNL     1      44.286 -21.835   1.879  1.00  0.00    -0.051 Br
HETATM   36  C   UNL     1      44.181 -19.930   3.999  1.00  0.00     0.022 A 
HETATM   37  C   UNL     1      44.001 -18.659   4.554  1.00  0.00     0.040 A 
ENDBRANCH  29  30
ENDBRANCH  27  29
ENDBRANCH  24  27
ENDBRANCH  21  23
ENDBRANCH   1  21
TORSDOF 10
ENDMDL
MODEL 5
REMARK VINA RESULT:      -8.0      3.927     10.277
REMARK  10 active torsions:
REMARK  status: ('A' for Active; 'I' for Inactive)
REMARK    1  A    between atoms: C_4  and  N_5 
REMARK    2  A    between atoms: N_5  and  C_6 
REMARK    3  A    between atoms: C_6  and  N_7 
REMARK    4  A    between atoms: N_7  and  N_8 
REMARK       I    between atoms: N_8  and  C_9 
REMARK    5  A    between atoms: C_9  and  C_10 
REMARK    6  A    between atoms: C_10  and  O_11 
REMARK    7  A    between atoms: O_11  and  C_12 
REMARK    8  A    between atoms: C_23  and  C_24 
REMARK    9  A    between atoms: C_24  and  O_25 
REMARK   10  A    between atoms: C_28  and  C_29 
ROOT
HETATM    1  C   UNL     1      41.110 -14.372   5.055  1.00  0.00     0.191 C 
HETATM    2  S   UNL     1      40.096 -14.785   3.776  1.00  0.00    -0.039 SA
ENDROOT
BRANCH   1   3
HETATM    3  N   UNL     1      42.386 -14.863   5.021  1.00  0.00    -0.325 N 
HETATM    4  H   UNL     1      43.073 -14.144   5.224  1.00  0.00     0.169 HD
BRANCH   3   5
HETATM    5  C   UNL     1      42.875 -15.939   4.307  1.00  0.00     0.094 C 
HETATM    6  S   UNL     1      43.379 -15.456   2.753  1.00  0.00    -0.075 SA
HETATM    7  C   UNL     1      43.714 -17.061   2.279  1.00  0.00    -0.007 C 
HETATM    8  C   UNL     1      44.118 -17.337   0.865  1.00  0.00     0.057 C 
HETATM    9  C   UNL     1      43.577 -17.938   3.343  1.00  0.00     0.006 C 
HETATM   10  C   UNL     1      43.160 -17.269   4.566  1.00  0.00     0.085 C 
BRANCH   9  11
HETATM   11  C   UNL     1      43.816 -19.370   3.180  1.00  0.00    -0.024 A 
HETATM   12  C   UNL     1      44.644 -20.040   4.090  1.00  0.00     0.012 A 
HETATM   13  C   UNL     1      44.894 -21.406   3.937  1.00  0.00     0.001 A 
HETATM   14  C   UNL     1      44.320 -22.105   2.877  1.00  0.00     0.000 A 
HETATM   15  C   UNL     1      43.496 -21.443   1.968  1.00  0.00     0.001 A 
HETATM   16  C   UNL     1      43.246 -20.077   2.116  1.00  0.00     0.012 A 
ENDBRANCH   9  11
BRANCH  10  17
HETATM   17  C   UNL     1      43.120 -17.897   5.883  1.00  0.00     0.296 C 
HETATM   18  O   UNL     1      42.190 -18.590   6.275  1.00  0.00    -0.259 OA
BRANCH  17  19
HETATM   19  O   UNL     1      44.216 -17.597   6.637  1.00  0.00    -0.322 OA
HETATM   20  C   UNL     1      44.451 -18.486   7.727  1.00  0.00     0.213 C 
ENDBRANCH  17  19
ENDBRANCH  10  17
ENDBRANCH   3   5
ENDBRANCH   1   3
BRANCH   1  21
HETATM   21  N   UNL     1      40.682 -13.717   6.173  1.00  0.00    -0.273 N 
HETATM   22  H   UNL     1      40.181 -14.222   6.904  1.00  0.00     0.189 HD
BRANCH  21  23
HETATM   23  N   UNL     1      41.278 -12.523   6.611  1.00  0.00    -0.266 N 
HETATM   24  C   UNL     1      40.444 -11.490   7.005  1.00  0.00     0.265 C 
HETATM   25  O   UNL     1      39.217 -11.609   6.999  1.00  0.00    -0.269 OA
HETATM   26  H   UNL     1      42.278 -12.428   6.461  1.00  0.00     0.190 HD
BRANCH  24  27
HETATM   27  C   UNL     1      41.162 -10.182   7.396  1.00  0.00     0.218 C 
HETATM   28  C   UNL     1      41.468  -9.311   6.180  1.00  0.00     0.050 C 
BRANCH  27  29
HETATM   29  O   UNL     1      42.408 -10.558   8.001  1.00  0.00    -0.335 OA
BRANCH  29  30
HETATM   30  C   UNL     1      42.587 -10.200   9.309  1.00  0.00     0.091 A 
HETATM   31  C   UNL     1      43.735 -10.659   9.974  1.00  0.00     0.068 A 
HETATM   32 CL   UNL     1      44.954 -11.555   9.140  1.00  0.00    -0.081 Cl
HETATM   33  C   UNL     1      43.923 -10.392  11.331  1.00  0.00     0.046 A 
HETATM   34  C   UNL     1      42.952  -9.677  12.028  1.00  0.00     0.012 A 
HETATM   35 BR   UNL     1      43.192  -9.325  13.869  1.00  0.00    -0.051 Br
HETATM   36  C   UNL     1      41.797  -9.234  11.383  1.00  0.00     0.022 A 
HETATM   37  C   UNL     1      41.609  -9.505  10.024  1.00  0.00     0.040 A 
ENDBRANCH  29  30
ENDBRANCH  27  29
ENDBRANCH  24  27
ENDBRANCH  21  23
ENDBRANCH   1  21
TORSDOF 10
ENDMDL
MODEL 6
REMARK VINA RESULT:      -7.7      4.990      9.229
REMARK  10 active torsions:
REMARK  status: ('A' for Active; 'I' for Inactive)
REMARK    1  A    between atoms: C_4  and  N_5 
REMARK    2  A    between atoms: N_5  and  C_6 
REMARK    3  A    between atoms: C_6  and  N_7 
REMARK    4  A    between atoms: N_7  and  N_8 
REMARK       I    between atoms: N_8  and  C_9 
REMARK    5  A    between atoms: C_9  and  C_10 
REMARK    6  A    between atoms: C_10  and  O_11 
REMARK    7  A    between atoms: O_11  and  C_12 
REMARK    8  A    between atoms: C_23  and  C_24 
REMARK    9  A    between atoms: C_24  and  O_25 
REMARK   10  A    between atoms: C_28  and  C_29 
ROOT
HETATM    1  C   UNL     1      41.313 -12.134   3.156  1.00  0.00     0.191 C 
HETATM    2  S   UNL     1      40.657 -10.606   3.420  1.00  0.00    -0.039 SA
ENDROOT
BRANCH   1   3
HETATM    3  N   UNL     1      41.984 -12.328   1.981  1.00  0.00    -0.325 N 
HETATM    4  H   UNL     1      42.887 -11.863   1.979  1.00  0.00     0.169 HD
BRANCH   3   5
HETATM    5  C   UNL     1      41.466 -12.580   0.726  1.00  0.00     0.094 C 
HETATM    6  S   UNL     1      41.610 -11.210  -0.275  1.00  0.00    -0.075 SA
HETATM    7  C   UNL     1      40.744 -11.950  -1.545  1.00  0.00    -0.007 C 
HETATM    8  C   UNL     1      40.409 -11.152  -2.765  1.00  0.00     0.057 C 
HETATM    9  C   UNL     1      40.472 -13.278  -1.260  1.00  0.00     0.006 C 
HETATM   10  C   UNL     1      40.968 -13.680   0.048  1.00  0.00     0.085 C 
BRANCH   9  11
HETATM   11  C   UNL     1      39.739 -14.122  -2.202  1.00  0.00    -0.024 A 
HETATM   12  C   UNL     1      38.339 -14.093  -2.210  1.00  0.00     0.012 A 
HETATM   13  C   UNL     1      37.626 -14.906  -3.094  1.00  0.00     0.001 A 
HETATM   14  C   UNL     1      38.307 -15.748  -3.971  1.00  0.00     0.000 A 
HETATM   15  C   UNL     1      39.701 -15.782  -3.966  1.00  0.00     0.001 A 
HETATM   16  C   UNL     1      40.417 -14.972  -3.082  1.00  0.00     0.012 A 
ENDBRANCH   9  11
BRANCH  10  17
HETATM   17  C   UNL     1      40.998 -15.055   0.538  1.00  0.00     0.296 C 
HETATM   18  O   UNL     1      41.443 -15.994  -0.108  1.00  0.00    -0.259 OA
BRANCH  17  19
HETATM   19  O   UNL     1      40.443 -15.178   1.778  1.00  0.00    -0.322 OA
HETATM   20  C   UNL     1      40.165 -16.519   2.175  1.00  0.00     0.213 C 
ENDBRANCH  17  19
ENDBRANCH  10  17
ENDBRANCH   3   5
ENDBRANCH   1   3
BRANCH   1  21
HETATM   21  N   UNL     1      41.078 -13.204   3.970  1.00  0.00    -0.273 N 
HETATM   22  H   UNL     1      40.149 -13.621   4.013  1.00  0.00     0.189 HD
BRANCH  21  23
HETATM   23  N   UNL     1      42.109 -14.062   4.389  1.00  0.00    -0.266 N 
HETATM   24  C   UNL     1      41.776 -15.108   5.234  1.00  0.00     0.265 C 
HETATM   25  O   UNL     1      40.614 -15.305   5.595  1.00  0.00    -0.269 OA
HETATM   26  H   UNL     1      43.060 -13.772   4.181  1.00  0.00     0.190 HD
BRANCH  24  27
HETATM   27  C   UNL     1      42.967 -15.959   5.720  1.00  0.00     0.218 C 
HETATM   28  C   UNL     1      44.023 -15.116   6.430  1.00  0.00     0.050 C 
BRANCH  27  29
HETATM   29  O   UNL     1      43.568 -16.538   4.552  1.00  0.00    -0.335 OA
BRANCH  29  30
HETATM   30  C   UNL     1      43.945 -17.849   4.642  1.00  0.00     0.091 A 
HETATM   31  C   UNL     1      44.016 -18.604   3.461  1.00  0.00     0.068 A 
HETATM   32 CL   UNL     1      43.749 -17.877   1.916  1.00  0.00    -0.081 Cl
HETATM   33  C   UNL     1      44.314 -19.967   3.507  1.00  0.00     0.046 A 
HETATM   34  C   UNL     1      44.527 -20.578   4.739  1.00  0.00     0.012 A 
HETATM   35 BR   UNL     1      44.916 -22.427   4.811  1.00  0.00    -0.051 Br
HETATM   36  C   UNL     1      44.438 -19.843   5.921  1.00  0.00     0.022 A 
HETATM   37  C   UNL     1      44.136 -18.479   5.874  1.00  0.00     0.040 A 
ENDBRANCH  29  30
ENDBRANCH  27  29
ENDBRANCH  24  27
ENDBRANCH  21  23
ENDBRANCH   1  21
TORSDOF 10
ENDMDL
MODEL 7
REMARK VINA RESULT:      -7.6      2.134      2.759
REMARK  10 active torsions:
REMARK  status: ('A' for Active; 'I' for Inactive)
REMARK    1  A    between atoms: C_4  and  N_5 
REMARK    2  A    between atoms: N_5  and  C_6 
REMARK    3  A    between atoms: C_6  and  N_7 
REMARK    4  A    between atoms: N_7  and  N_8 
REMARK       I    between atoms: N_8  and  C_9 
REMARK    5  A    between atoms: C_9  and  C_10 
REMARK    6  A    between atoms: C_10  and  O_11 
REMARK    7  A    between atoms: O_11  and  C_12 
REMARK    8  A    between atoms: C_23  and  C_24 
REMARK    9  A    between atoms: C_24  and  O_25 
REMARK   10  A    between atoms: C_28  and  C_29 
ROOT
HETATM    1  C   UNL     1      41.445 -11.742   5.983  1.00  0.00     0.191 C 
HETATM    2  S   UNL     1      41.076 -11.563   4.351  1.00  0.00    -0.039 SA
ENDROOT
BRANCH   1   3
HETATM    3  N   UNL     1      41.607 -10.597   6.714  1.00  0.00    -0.325 N 
HETATM    4  H   UNL     1      42.281  -9.969   6.286  1.00  0.00     0.169 HD
BRANCH   3   5
HETATM    5  C   UNL     1      41.426 -10.409   8.069  1.00  0.00     0.094 C 
HETATM    6  S   UNL     1      39.770 -10.260   8.443  1.00  0.00    -0.075 SA
HETATM    7  C   UNL     1      40.092  -9.911  10.082  1.00  0.00    -0.007 C 
HETATM    8  C   UNL     1      38.961  -9.542  10.988  1.00  0.00     0.057 C 
HETATM    9  C   UNL     1      41.441 -10.047  10.369  1.00  0.00     0.006 C 
HETATM   10  C   UNL     1      42.223 -10.422   9.200  1.00  0.00     0.085 C 
BRANCH   9  11
HETATM   11  C   UNL     1      41.959  -9.802  11.713  1.00  0.00    -0.024 A 
HETATM   12  C   UNL     1      42.051 -10.865  12.622  1.00  0.00     0.012 A 
HETATM   13  C   UNL     1      42.529 -10.642  13.915  1.00  0.00     0.001 A 
HETATM   14  C   UNL     1      42.916  -9.361  14.305  1.00  0.00     0.000 A 
HETATM   15  C   UNL     1      42.824  -8.300  13.404  1.00  0.00     0.001 A 
HETATM   16  C   UNL     1      42.345  -8.518  12.111  1.00  0.00     0.012 A 
ENDBRANCH   9  11
BRANCH  10  17
HETATM   17  C   UNL     1      43.628 -10.820   9.235  1.00  0.00     0.296 C 
HETATM   18  O   UNL     1      44.474 -10.259   9.918  1.00  0.00    -0.259 OA
BRANCH  17  19
HETATM   19  O   UNL     1      43.894 -11.862   8.396  1.00  0.00    -0.322 OA
HETATM   20  C   UNL     1      44.814 -12.822   8.911  1.00  0.00     0.213 C 
ENDBRANCH  17  19
ENDBRANCH  10  17
ENDBRANCH   3   5
ENDBRANCH   1   3
BRANCH   1  21
HETATM   21  N   UNL     1      41.735 -12.944   6.562  1.00  0.00    -0.273 N 
HETATM   22  H   UNL     1      41.784 -13.026   7.577  1.00  0.00     0.189 HD
BRANCH  21  23
HETATM   23  N   UNL     1      41.509 -14.162   5.901  1.00  0.00    -0.266 N 
HETATM   24  C   UNL     1      42.608 -14.955   5.613  1.00  0.00     0.265 C 
HETATM   25  O   UNL     1      43.750 -14.624   5.941  1.00  0.00    -0.269 OA
HETATM   26  H   UNL     1      40.577 -14.317   5.530  1.00  0.00     0.190 HD
BRANCH  24  27
HETATM   27  C   UNL     1      42.298 -16.238   4.815  1.00  0.00     0.218 C 
HETATM   28  C   UNL     1      42.612 -17.500   5.615  1.00  0.00     0.050 C 
BRANCH  27  29
HETATM   29  O   UNL     1      43.143 -16.221   3.655  1.00  0.00    -0.335 OA
BRANCH  29  30
HETATM   30  C   UNL     1      42.544 -15.920   2.464  1.00  0.00     0.091 A 
HETATM   31  C   UNL     1      42.248 -16.970   1.581  1.00  0.00     0.068 A 
HETATM   32 CL   UNL     1      42.524 -18.617   2.026  1.00  0.00    -0.081 Cl
HETATM   33  C   UNL     1      41.714 -16.707   0.319  1.00  0.00     0.046 A 
HETATM   34  C   UNL     1      41.489 -15.389  -0.067  1.00  0.00     0.012 A 
HETATM   35 BR   UNL     1      40.780 -15.024  -1.780  1.00  0.00    -0.051 Br
HETATM   36  C   UNL     1      41.798 -14.335   0.793  1.00  0.00     0.022 A 
HETATM   37  C   UNL     1      42.336 -14.599   2.056  1.00  0.00     0.040 A 
ENDBRANCH  29  30
ENDBRANCH  27  29
ENDBRANCH  24  27
ENDBRANCH  21  23
ENDBRANCH   1  21
TORSDOF 10
ENDMDL
MODEL 8
REMARK VINA RESULT:      -7.5      5.097      9.003
REMARK  10 active torsions:
REMARK  status: ('A' for Active; 'I' for Inactive)
REMARK    1  A    between atoms: C_4  and  N_5 
REMARK    2  A    between atoms: N_5  and  C_6 
REMARK    3  A    between atoms: C_6  and  N_7 
REMARK    4  A    between atoms: N_7  and  N_8 
REMARK       I    between atoms: N_8  and  C_9 
REMARK    5  A    between atoms: C_9  and  C_10 
REMARK    6  A    between atoms: C_10  and  O_11 
REMARK    7  A    between atoms: O_11  and  C_12 
REMARK    8  A    between atoms: C_23  and  C_24 
REMARK    9  A    between atoms: C_24  and  O_25 
REMARK   10  A    between atoms: C_28  and  C_29 
ROOT
HETATM    1  C   UNL     1      40.295 -11.092   3.612  1.00  0.00     0.191 C 
HETATM    2  S   UNL     1      38.833 -11.395   4.389  1.00  0.00    -0.039 SA
ENDROOT
BRANCH   1   3
HETATM    3  N   UNL     1      40.233 -10.647   2.321  1.00  0.00    -0.325 N 
HETATM    4  H   UNL     1      39.575  -9.881   2.217  1.00  0.00     0.169 HD
BRANCH   3   5
HETATM    5  C   UNL     1      40.493 -11.343   1.157  1.00  0.00     0.094 C 
HETATM    6  S   UNL     1      41.717 -10.577   0.254  1.00  0.00    -0.075 SA
HETATM    7  C   UNL     1      41.546 -11.666  -1.048  1.00  0.00    -0.007 C 
HETATM    8  C   UNL     1      42.330 -11.438  -2.301  1.00  0.00     0.057 C 
HETATM    9  C   UNL     1      40.663 -12.687  -0.735  1.00  0.00     0.006 C 
HETATM   10  C   UNL     1      40.100 -12.547   0.599  1.00  0.00     0.085 C 
BRANCH   9  11
HETATM   11  C   UNL     1      40.356 -13.745  -1.695  1.00  0.00    -0.024 A 
HETATM   12  C   UNL     1      41.143 -14.905  -1.720  1.00  0.00     0.012 A 
HETATM   13  C   UNL     1      40.871 -15.917  -2.643  1.00  0.00     0.001 A 
HETATM   14  C   UNL     1      39.816 -15.775  -3.544  1.00  0.00     0.000 A 
HETATM   15  C   UNL     1      39.032 -14.623  -3.524  1.00  0.00     0.001 A 
HETATM   16  C   UNL     1      39.302 -13.607  -2.604  1.00  0.00     0.012 A 
ENDBRANCH   9  11
BRANCH  10  17
HETATM   17  C   UNL     1      39.295 -13.563   1.271  1.00  0.00     0.296 C 
HETATM   18  O   UNL     1      39.666 -14.172   2.266  1.00  0.00    -0.259 OA
BRANCH  17  19
HETATM   19  O   UNL     1      38.103 -13.781   0.645  1.00  0.00    -0.322 OA
HETATM   20  C   UNL     1      37.173 -12.704   0.745  1.00  0.00     0.213 C 
ENDBRANCH  17  19
ENDBRANCH  10  17
ENDBRANCH   3   5
ENDBRANCH   1   3
BRANCH   1  21
HETATM   21  N   UNL     1      41.510 -11.412   4.146  1.00  0.00    -0.273 N 
HETATM   22  H   UNL     1      41.780 -11.049   5.060  1.00  0.00     0.189 HD
BRANCH  21  23
HETATM   23  N   UNL     1      42.215 -12.563   3.758  1.00  0.00    -0.266 N 
HETATM   24  C   UNL     1      42.135 -13.677   4.577  1.00  0.00     0.265 C 
HETATM   25  O   UNL     1      41.451 -13.680   5.603  1.00  0.00    -0.269 OA
HETATM   26  H   UNL     1      42.871 -12.462   2.989  1.00  0.00     0.190 HD
BRANCH  24  27
HETATM   27  C   UNL     1      42.997 -14.877   4.134  1.00  0.00     0.218 C 
HETATM   28  C   UNL     1      43.737 -14.600   2.828  1.00  0.00     0.050 C 
BRANCH  27  29
HETATM   29  O   UNL     1      42.101 -15.976   3.917  1.00  0.00    -0.335 OA
BRANCH  29  30
HETATM   30  C   UNL     1      42.665 -17.163   3.541  1.00  0.00     0.091 A 
HETATM   31  C   UNL     1      42.234 -17.757   2.345  1.00  0.00     0.068 A 
HETATM   32 CL   UNL     1      41.105 -16.961   1.306  1.00  0.00    -0.081 Cl
HETATM   33  C   UNL     1      42.717 -19.008   1.959  1.00  0.00     0.046 A 
HETATM   34  C   UNL     1      43.623 -19.674   2.781  1.00  0.00     0.012 A 
HETATM   35 BR   UNL     1      44.270 -21.376   2.274  1.00  0.00    -0.051 Br
HETATM   36  C   UNL     1      44.042 -19.104   3.983  1.00  0.00     0.022 A 
HETATM   37  C   UNL     1      43.554 -17.852   4.370  1.00  0.00     0.040 A 
ENDBRANCH  29  30
ENDBRANCH  27  29
ENDBRANCH  24  27
ENDBRANCH  21  23
ENDBRANCH   1  21
TORSDOF 10
ENDMDL
MODEL 9
REMARK VINA RESULT:      -7.3      6.094      9.187
REMARK  10 active torsions:
REMARK  status: ('A' for Active; 'I' for Inactive)
REMARK    1  A    between atoms: C_4  and  N_5 
REMARK    2  A    between atoms: N_5  and  C_6 
REMARK    3  A    between atoms: C_6  and  N_7 
REMARK    4  A    between atoms: N_7  and  N_8 
REMARK       I    between atoms: N_8  and  C_9 
REMARK    5  A    between atoms: C_9  and  C_10 
REMARK    6  A    between atoms: C_10  and  O_11 
REMARK    7  A    between atoms: O_11  and  C_12 
REMARK    8  A    between atoms: C_23  and  C_24 
REMARK    9  A    between atoms: C_24  and  O_25 
REMARK   10  A    between atoms: C_28  and  C_29 
ROOT
HETATM    1  C   UNL     1      39.831 -11.266   3.120  1.00  0.00     0.191 C 
HETATM    2  S   UNL     1      40.424 -10.012   4.073  1.00  0.00    -0.039 SA
ENDROOT
BRANCH   1   3
HETATM    3  N   UNL     1      39.596 -12.461   3.741  1.00  0.00    -0.325 N 
HETATM    4  H   UNL     1      38.950 -12.363   4.518  1.00  0.00     0.169 HD
BRANCH   3   5
HETATM    5  C   UNL     1      40.419 -13.568   3.815  1.00  0.00     0.094 C 
HETATM    6  S   UNL     1      41.069 -13.736   5.380  1.00  0.00    -0.075 SA
HETATM    7  C   UNL     1      42.053 -15.050   4.915  1.00  0.00    -0.007 C 
HETATM    8  C   UNL     1      43.026 -15.620   5.897  1.00  0.00     0.057 C 
HETATM    9  C   UNL     1      41.781 -15.445   3.614  1.00  0.00     0.006 C 
HETATM   10  C   UNL     1      40.757 -14.624   2.986  1.00  0.00     0.085 C 
BRANCH   9  11
HETATM   11  C   UNL     1      42.499 -16.556   2.993  1.00  0.00    -0.024 A 
HETATM   12  C   UNL     1      43.556 -16.289   2.114  1.00  0.00     0.012 A 
HETATM   13  C   UNL     1      44.241 -17.341   1.501  1.00  0.00     0.001 A 
HETATM   14  C   UNL     1      43.872 -18.660   1.763  1.00  0.00     0.000 A 
HETATM   15  C   UNL     1      42.820 -18.930   2.636  1.00  0.00     0.001 A 
HETATM   16  C   UNL     1      42.131 -17.881   3.249  1.00  0.00     0.012 A 
ENDBRANCH   9  11
BRANCH  10  17
HETATM   17  C   UNL     1      40.132 -14.918   1.700  1.00  0.00     0.296 C 
HETATM   18  O   UNL     1      40.728 -14.879   0.632  1.00  0.00    -0.259 OA
BRANCH  17  19
HETATM   19  O   UNL     1      38.804 -15.204   1.820  1.00  0.00    -0.322 OA
HETATM   20  C   UNL     1      37.939 -14.336   1.090  1.00  0.00     0.213 C 
ENDBRANCH  17  19
ENDBRANCH  10  17
ENDBRANCH   3   5
ENDBRANCH   1   3
BRANCH   1  21
HETATM   21  N   UNL     1      39.723 -11.193   1.762  1.00  0.00    -0.273 N 
HETATM   22  H   UNL     1      39.036 -10.573   1.334  1.00  0.00     0.189 HD
BRANCH  21  23
HETATM   23  N   UNL     1      40.784 -11.540   0.910  1.00  0.00    -0.266 N 
HETATM   24  C   UNL     1      41.190 -10.609  -0.032  1.00  0.00     0.265 C 
HETATM   25  O   UNL     1      40.660  -9.498  -0.115  1.00  0.00    -0.269 OA
HETATM   26  H   UNL     1      41.085 -12.510   0.925  1.00  0.00     0.190 HD
BRANCH  24  27
HETATM   27  C   UNL     1      42.303 -11.086  -0.986  1.00  0.00     0.218 C 
HETATM   28  C   UNL     1      43.524 -10.170  -0.947  1.00  0.00     0.050 C 
BRANCH  27  29
HETATM   29  O   UNL     1      41.758 -11.049  -2.313  1.00  0.00    -0.335 OA
BRANCH  29  30
HETATM   30  C   UNL     1      41.188 -12.203  -2.775  1.00  0.00     0.091 A 
HETATM   31  C   UNL     1      39.808 -12.207  -3.033  1.00  0.00     0.068 A 
HETATM   32 CL   UNL     1      38.866 -10.766  -2.885  1.00  0.00    -0.081 Cl
HETATM   33  C   UNL     1      39.164 -13.381  -3.426  1.00  0.00     0.046 A 
HETATM   34  C   UNL     1      39.899 -14.557  -3.546  1.00  0.00     0.012 A 
HETATM   35 BR   UNL     1      39.031 -16.154  -4.062  1.00  0.00    -0.051 Br
HETATM   36  C   UNL     1      41.267 -14.570  -3.272  1.00  0.00     0.022 A 
HETATM   37  C   UNL     1      41.911 -13.394  -2.875  1.00  0.00     0.040 A 
ENDBRANCH  29  30
ENDBRANCH  27  29
ENDBRANCH  24  27
ENDBRANCH  21  23
ENDBRANCH   1  21
TORSDOF 10
ENDMDL
MODEL 10
REMARK VINA RESULT:      -7.2      4.743      8.287
REMARK  10 active torsions:
REMARK  status: ('A' for Active; 'I' for Inactive)
REMARK    1  A    between atoms: C_4  and  N_5 
REMARK    2  A    between atoms: N_5  and  C_6 
REMARK    3  A    between atoms: C_6  and  N_7 
REMARK    4  A    between atoms: N_7  and  N_8 
REMARK       I    between atoms: N_8  and  C_9 
REMARK    5  A    between atoms: C_9  and  C_10 
REMARK    6  A    between atoms: C_10  and  O_11 
REMARK    7  A    between atoms: O_11  and  C_12 
REMARK    8  A    between atoms: C_23  and  C_24 
REMARK    9  A    between atoms: C_24  and  O_25 
REMARK   10  A    between atoms: C_28  and  C_29 
ROOT
HETATM    1  C   UNL     1      40.818 -11.454   4.697  1.00  0.00     0.191 C 
HETATM    2  S   UNL     1      40.959  -9.777   4.707  1.00  0.00    -0.039 SA
ENDROOT
BRANCH   1   3
HETATM    3  N   UNL     1      39.705 -11.982   4.104  1.00  0.00    -0.325 N 
HETATM    4  H   UNL     1      39.320 -12.753   4.642  1.00  0.00     0.169 HD
BRANCH   3   5
HETATM    5  C   UNL     1      39.364 -11.987   2.766  1.00  0.00     0.094 C 
HETATM    6  S   UNL     1      38.036 -10.961   2.476  1.00  0.00    -0.075 SA
HETATM    7  C   UNL     1      37.935 -11.427   0.837  1.00  0.00    -0.007 C 
HETATM    8  C   UNL     1      36.806 -10.916  -0.001  1.00  0.00     0.057 C 
HETATM    9  C   UNL     1      38.992 -12.249   0.484  1.00  0.00     0.006 C 
HETATM   10  C   UNL     1      39.886 -12.518   1.600  1.00  0.00     0.085 C 
BRANCH   9  11
HETATM   11  C   UNL     1      39.122 -12.775  -0.874  1.00  0.00    -0.024 A 
HETATM   12  C   UNL     1      39.905 -12.086  -1.809  1.00  0.00     0.012 A 
HETATM   13  C   UNL     1      40.025 -12.568  -3.114  1.00  0.00     0.001 A 
HETATM   14  C   UNL     1      39.365 -13.738  -3.489  1.00  0.00     0.000 A 
HETATM   15  C   UNL     1      38.584 -14.426  -2.562  1.00  0.00     0.001 A 
HETATM   16  C   UNL     1      38.459 -13.946  -1.257  1.00  0.00     0.012 A 
ENDBRANCH   9  11
BRANCH  10  17
HETATM   17  C   UNL     1      41.178 -13.189   1.485  1.00  0.00     0.296 C 
HETATM   18  O   UNL     1      42.242 -12.596   1.370  1.00  0.00    -0.259 OA
BRANCH  17  19
HETATM   19  O   UNL     1      41.060 -14.548   1.486  1.00  0.00    -0.322 OA
HETATM   20  C   UNL     1      41.767 -15.207   0.437  1.00  0.00     0.213 C 
ENDBRANCH  17  19
ENDBRANCH  10  17
ENDBRANCH   3   5
ENDBRANCH   1   3
BRANCH   1  21
HETATM   21  N   UNL     1      41.665 -12.285   5.374  1.00  0.00    -0.273 N 
HETATM   22  H   UNL     1      42.184 -11.941   6.181  1.00  0.00     0.189 HD
BRANCH  21  23
HETATM   23  N   UNL     1      41.524 -13.681   5.339  1.00  0.00    -0.266 N 
HETATM   24  C   UNL     1      42.492 -14.413   4.672  1.00  0.00     0.265 C 
HETATM   25  O   UNL     1      43.464 -13.870   4.142  1.00  0.00    -0.269 OA
HETATM   26  H   UNL     1      40.639 -14.061   5.663  1.00  0.00     0.190 HD
BRANCH  24  27
HETATM   27  C   UNL     1      42.233 -15.932   4.603  1.00  0.00     0.218 C 
HETATM   28  C   UNL     1      41.406 -16.426   5.788  1.00  0.00     0.050 C 
BRANCH  27  29
HETATM   29  O   UNL     1      43.514 -16.576   4.653  1.00  0.00    -0.335 OA
BRANCH  29  30
HETATM   30  C   UNL     1      43.615 -17.791   4.035  1.00  0.00     0.091 A 
HETATM   31  C   UNL     1      44.382 -18.791   4.652  1.00  0.00     0.068 A 
HETATM   32 CL   UNL     1      45.091 -18.542   6.208  1.00  0.00    -0.081 Cl
HETATM   33  C   UNL     1      44.585 -20.020   4.023  1.00  0.00     0.046 A 
HETATM   34  C   UNL     1      44.030 -20.244   2.766  1.00  0.00     0.012 A 
HETATM   35 BR   UNL     1      44.313 -21.900   1.900  1.00  0.00    -0.051 Br
HETATM   36  C   UNL     1      43.283 -19.250   2.133  1.00  0.00     0.022 A 
HETATM   37  C   UNL     1      43.084 -18.018   2.763  1.00  0.00     0.040 A 
ENDBRANCH  29  30
ENDBRANCH  27  29
ENDBRANCH  24  27
ENDBRANCH  21  23
ENDBRANCH   1  21
TORSDOF 10
ENDMDL
