MODEL 1
REMARK VINA RESULT:      -7.2      0.000      0.000
REMARK  6 active torsions:
REMARK  status: ('A' for Active; 'I' for Inactive)
REMARK    1  A    between atoms: C_2  and  C_3 
REMARK    2  A    between atoms: C_3  and  N_4 
REMARK    3  A    between atoms: C_3  and  C_15 
REMARK       I    between atoms: N_4  and  C_5 
REMARK    4  A    between atoms: C_5  and  C_6 
REMARK    5  A    between atoms: C_6  and  C_7 
REMARK    6  A    between atoms: C_16  and  O_17 
ROOT
HETATM    1  C   UNL     1      41.923 -15.603   3.736  1.00  0.00     0.128 C 
ENDROOT
BRANCH   1   2
HETATM    2  C   UNL     1      41.648 -15.791   5.276  1.00  0.00    -0.026 C 
HETATM    3  C   UNL     1      41.541 -17.302   5.592  1.00  0.00     0.016 C 
HETATM    4  C   UNL     1      40.348 -15.111   5.748  1.00  0.00     0.016 C 
HETATM    5  C   UNL     1      42.816 -15.233   6.117  1.00  0.00     0.016 C 
ENDBRANCH   1   2
BRANCH   1   6
HETATM    6  N   UNL     1      42.154 -16.895   3.075  1.00  0.00    -0.351 N 
HETATM    7  C   UNL     1      43.217 -17.118   2.228  1.00  0.00     0.222 C 
HETATM    8  O   UNL     1      44.118 -16.309   2.030  1.00  0.00    -0.273 OA
HETATM    9  H   UNL     1      41.441 -17.603   3.161  1.00  0.00     0.163 HD
BRANCH   7  10
HETATM   10  C   UNL     1      43.216 -18.486   1.567  1.00  0.00     0.142 C 
BRANCH  10  11
HETATM   11  C   UNL     1      43.711 -19.603   2.451  1.00  0.00    -0.032 A 
HETATM   12  C   UNL     1      44.157 -19.375   3.752  1.00  0.00     0.126 A 
HETATM   13  N   UNL     1      44.659 -20.337   4.562  1.00  0.00    -0.248 NA
HETATM   14  C   UNL     1      44.737 -21.577   4.047  1.00  0.00     0.125 A 
HETATM   15 CL   UNL     1      45.393 -22.756   5.104  1.00  0.00    -0.063 Cl
HETATM   16  C   UNL     1      44.340 -21.916   2.766  1.00  0.00     0.045 A 
HETATM   17  C   UNL     1      43.822 -20.908   1.955  1.00  0.00     0.012 A 
ENDBRANCH  10  11
ENDBRANCH   7  10
ENDBRANCH   1   6
BRANCH   1  18
HETATM   18  C   UNL     1      40.857 -14.805   2.976  1.00  0.00    -0.001 A 
HETATM   19  C   UNL     1      40.919 -13.394   2.905  1.00  0.00     0.076 A 
HETATM   20  C   UNL     1      39.939 -12.685   2.198  1.00  0.00     0.037 A 
HETATM   21  C   UNL     1      38.889 -13.356   1.572  1.00  0.00     0.003 A 
HETATM   22  C   UNL     1      38.808 -14.741   1.644  1.00  0.00     0.001 A 
HETATM   23  C   UNL     1      39.782 -15.458   2.338  1.00  0.00     0.012 A 
BRANCH  19  24
HETATM   24  O   UNL     1      41.970 -12.802   3.555  1.00  0.00    -0.355 OA
HETATM   25  C   UNL     1      41.674 -11.795   4.513  1.00  0.00     0.210 C 
ENDBRANCH  19  24
ENDBRANCH   1  18
TORSDOF 6
ENDMDL
MODEL 2
REMARK VINA RESULT:      -7.1      3.273      6.647
REMARK  6 active torsions:
REMARK  status: ('A' for Active; 'I' for Inactive)
REMARK    1  A    between atoms: C_2  and  C_3 
REMARK    2  A    between atoms: C_3  and  N_4 
REMARK    3  A    between atoms: C_3  and  C_15 
REMARK       I    between atoms: N_4  and  C_5 
REMARK    4  A    between atoms: C_5  and  C_6 
REMARK    5  A    between atoms: C_6  and  C_7 
REMARK    6  A    between atoms: C_16  and  O_17 
ROOT
HETATM    1  C   UNL     1      42.965 -17.513   5.792  1.00  0.00     0.128 C 
ENDROOT
BRANCH   1   2
HETATM    2  C   UNL     1      44.060 -17.087   6.841  1.00  0.00    -0.026 C 
HETATM    3  C   UNL     1      44.278 -15.558   6.755  1.00  0.00     0.016 C 
HETATM    4  C   UNL     1      45.419 -17.776   6.614  1.00  0.00     0.016 C 
HETATM    5  C   UNL     1      43.596 -17.401   8.280  1.00  0.00     0.016 C 
ENDBRANCH   1   2
BRANCH   1   6
HETATM    6  N   UNL     1      42.208 -16.349   5.309  1.00  0.00    -0.351 N 
HETATM    7  C   UNL     1      40.891 -16.127   5.645  1.00  0.00     0.222 C 
HETATM    8  O   UNL     1      40.264 -16.808   6.450  1.00  0.00    -0.273 OA
HETATM    9  H   UNL     1      42.644 -15.758   4.617  1.00  0.00     0.163 HD
BRANCH   7  10
HETATM   10  C   UNL     1      40.263 -14.925   4.958  1.00  0.00     0.142 C 
BRANCH  10  11
HETATM   11  C   UNL     1      40.661 -14.758   3.513  1.00  0.00    -0.032 A 
HETATM   12  C   UNL     1      41.341 -13.629   3.058  1.00  0.00     0.126 A 
HETATM   13  N   UNL     1      41.671 -13.412   1.763  1.00  0.00    -0.248 NA
HETATM   14  C   UNL     1      41.290 -14.352   0.880  1.00  0.00     0.125 A 
HETATM   15 CL   UNL     1      41.715 -14.024  -0.749  1.00  0.00    -0.063 Cl
HETATM   16  C   UNL     1      40.598 -15.502   1.214  1.00  0.00     0.045 A 
HETATM   17  C   UNL     1      40.276 -15.703   2.555  1.00  0.00     0.012 A 
ENDBRANCH  10  11
ENDBRANCH   7  10
ENDBRANCH   1   6
BRANCH   1  18
HETATM   18  C   UNL     1      43.484 -18.333   4.604  1.00  0.00    -0.001 A 
HETATM   19  C   UNL     1      43.857 -19.688   4.765  1.00  0.00     0.076 A 
HETATM   20  C   UNL     1      44.321 -20.421   3.665  1.00  0.00     0.037 A 
HETATM   21  C   UNL     1      44.433 -19.825   2.410  1.00  0.00     0.003 A 
HETATM   22  C   UNL     1      44.083 -18.491   2.239  1.00  0.00     0.001 A 
HETATM   23  C   UNL     1      43.613 -17.754   3.325  1.00  0.00     0.012 A 
BRANCH  19  24
HETATM   24  O   UNL     1      43.733 -20.203   6.029  1.00  0.00    -0.355 OA
HETATM   25  C   UNL     1      44.201 -21.526   6.253  1.00  0.00     0.210 C 
ENDBRANCH  19  24
ENDBRANCH   1  18
TORSDOF 6
ENDMDL
MODEL 3
REMARK VINA RESULT:      -7.1      3.469      6.452
REMARK  6 active torsions:
REMARK  status: ('A' for Active; 'I' for Inactive)
REMARK    1  A    between atoms: C_2  and  C_3 
REMARK    2  A    between atoms: C_3  and  N_4 
REMARK    3  A    between atoms: C_3  and  C_15 
REMARK       I    between atoms: N_4  and  C_5 
REMARK    4  A    between atoms: C_5  and  C_6 
REMARK    5  A    between atoms: C_6  and  C_7 
REMARK    6  A    between atoms: C_16  and  O_17 
ROOT
HETATM    1  C   UNL     1      42.839 -17.181   5.646  1.00  0.00     0.128 C 
ENDROOT
BRANCH   1   2
HETATM    2  C   UNL     1      44.034 -17.167   6.673  1.00  0.00    -0.026 C 
HETATM    3  C   UNL     1      44.497 -15.707   6.895  1.00  0.00     0.016 C 
HETATM    4  C   UNL     1      45.250 -17.987   6.200  1.00  0.00     0.016 C 
HETATM    5  C   UNL     1      43.589 -17.716   8.045  1.00  0.00     0.016 C 
ENDBRANCH   1   2
BRANCH   1   6
HETATM    6  N   UNL     1      42.109 -15.905   5.662  1.00  0.00    -0.351 N 
HETATM    7  C   UNL     1      40.791 -15.807   6.048  1.00  0.00     0.222 C 
HETATM    8  O   UNL     1      40.140 -16.739   6.510  1.00  0.00    -0.273 OA
HETATM    9  H   UNL     1      42.565 -15.097   5.266  1.00  0.00     0.163 HD
BRANCH   7  10
HETATM   10  C   UNL     1      40.194 -14.418   5.893  1.00  0.00     0.142 C 
BRANCH  10  11
HETATM   11  C   UNL     1      39.876 -14.035   4.469  1.00  0.00    -0.032 A 
HETATM   12  C   UNL     1      39.528 -12.733   4.113  1.00  0.00     0.126 A 
HETATM   13  N   UNL     1      39.183 -12.355   2.859  1.00  0.00    -0.248 NA
HETATM   14  C   UNL     1      39.166 -13.321   1.923  1.00  0.00     0.125 A 
HETATM   15 CL   UNL     1      38.707 -12.797   0.356  1.00  0.00    -0.063 Cl
HETATM   16  C   UNL     1      39.475 -14.647   2.165  1.00  0.00     0.045 A 
HETATM   17  C   UNL     1      39.832 -15.008   3.463  1.00  0.00     0.012 A 
ENDBRANCH  10  11
ENDBRANCH   7  10
ENDBRANCH   1   6
BRANCH   1  18
HETATM   18  C   UNL     1      43.220 -17.552   4.208  1.00  0.00    -0.001 A 
HETATM   19  C   UNL     1      43.573 -16.554   3.270  1.00  0.00     0.076 A 
HETATM   20  C   UNL     1      43.926 -16.915   1.964  1.00  0.00     0.037 A 
HETATM   21  C   UNL     1      43.922 -18.253   1.570  1.00  0.00     0.003 A 
HETATM   22  C   UNL     1      43.565 -19.243   2.476  1.00  0.00     0.001 A 
HETATM   23  C   UNL     1      43.219 -18.896   3.782  1.00  0.00     0.012 A 
BRANCH  19  24
HETATM   24  O   UNL     1      43.543 -15.261   3.723  1.00  0.00    -0.355 OA
HETATM   25  C   UNL     1      43.232 -14.238   2.787  1.00  0.00     0.210 C 
ENDBRANCH  19  24
ENDBRANCH   1  18
TORSDOF 6
ENDMDL
MODEL 4
REMARK VINA RESULT:      -7.0      3.983      7.030
REMARK  6 active torsions:
REMARK  status: ('A' for Active; 'I' for Inactive)
REMARK    1  A    between atoms: C_2  and  C_3 
REMARK    2  A    between atoms: C_3  and  N_4 
REMARK    3  A    between atoms: C_3  and  C_15 
REMARK       I    between atoms: N_4  and  C_5 
REMARK    4  A    between atoms: C_5  and  C_6 
REMARK    5  A    between atoms: C_6  and  C_7 
REMARK    6  A    between atoms: C_16  and  O_17 
ROOT
HETATM    1  C   UNL     1      43.120 -17.729   5.654  1.00  0.00     0.128 C 
ENDROOT
BRANCH   1   2
HETATM    2  C   UNL     1      43.912 -18.400   6.839  1.00  0.00    -0.026 C 
HETATM    3  C   UNL     1      45.425 -18.128   6.657  1.00  0.00     0.016 C 
HETATM    4  C   UNL     1      43.708 -19.925   6.919  1.00  0.00     0.016 C 
HETATM    5  C   UNL     1      43.500 -17.788   8.195  1.00  0.00     0.016 C 
ENDBRANCH   1   2
BRANCH   1   6
HETATM    6  N   UNL     1      43.436 -16.297   5.546  1.00  0.00    -0.351 N 
HETATM    7  C   UNL     1      42.524 -15.310   5.848  1.00  0.00     0.222 C 
HETATM    8  O   UNL     1      41.416 -15.523   6.329  1.00  0.00    -0.273 OA
HETATM    9  H   UNL     1      44.316 -16.039   5.127  1.00  0.00     0.163 HD
BRANCH   7  10
HETATM   10  C   UNL     1      43.013 -13.899   5.570  1.00  0.00     0.142 C 
BRANCH  10  11
HETATM   11  C   UNL     1      43.565 -13.184   6.778  1.00  0.00    -0.032 A 
HETATM   12  C   UNL     1      42.942 -12.062   7.323  1.00  0.00     0.126 A 
HETATM   13  N   UNL     1      43.429 -11.357   8.371  1.00  0.00    -0.248 NA
HETATM   14  C   UNL     1      44.597 -11.779   8.889  1.00  0.00     0.125 A 
HETATM   15 CL   UNL     1      45.181 -10.845  10.203  1.00  0.00    -0.063 Cl
HETATM   16  C   UNL     1      45.310 -12.867   8.420  1.00  0.00     0.045 A 
HETATM   17  C   UNL     1      44.784 -13.577   7.343  1.00  0.00     0.012 A 
ENDBRANCH  10  11
ENDBRANCH   7  10
ENDBRANCH   1   6
BRANCH   1  18
HETATM   18  C   UNL     1      43.287 -18.410   4.291  1.00  0.00    -0.001 A 
HETATM   19  C   UNL     1      42.383 -18.151   3.235  1.00  0.00     0.076 A 
HETATM   20  C   UNL     1      42.559 -18.777   1.994  1.00  0.00     0.037 A 
HETATM   21  C   UNL     1      43.613 -19.667   1.789  1.00  0.00     0.003 A 
HETATM   22  C   UNL     1      44.502 -19.940   2.821  1.00  0.00     0.001 A 
HETATM   23  C   UNL     1      44.342 -19.317   4.058  1.00  0.00     0.012 A 
BRANCH  19  24
HETATM   24  O   UNL     1      41.364 -17.278   3.511  1.00  0.00    -0.355 OA
HETATM   25  C   UNL     1      40.804 -16.549   2.428  1.00  0.00     0.210 C 
ENDBRANCH  19  24
ENDBRANCH   1  18
TORSDOF 6
ENDMDL
MODEL 5
REMARK VINA RESULT:      -7.0      2.780      3.437
REMARK  6 active torsions:
REMARK  status: ('A' for Active; 'I' for Inactive)
REMARK    1  A    between atoms: C_2  and  C_3 
REMARK    2  A    between atoms: C_3  and  N_4 
REMARK    3  A    between atoms: C_3  and  C_15 
REMARK       I    between atoms: N_4  and  C_5 
REMARK    4  A    between atoms: C_5  and  C_6 
REMARK    5  A    between atoms: C_6  and  C_7 
REMARK    6  A    between atoms: C_16  and  O_17 
ROOT
HETATM    1  C   UNL     1      41.628 -15.162   0.896  1.00  0.00     0.128 C 
ENDROOT
BRANCH   1   2
HETATM    2  C   UNL     1      40.285 -15.077   1.715  1.00  0.00    -0.026 C 
HETATM    3  C   UNL     1      39.839 -16.505   2.109  1.00  0.00     0.016 C 
HETATM    4  C   UNL     1      39.136 -14.417   0.929  1.00  0.00     0.016 C 
HETATM    5  C   UNL     1      40.488 -14.286   3.025  1.00  0.00     0.016 C 
ENDBRANCH   1   2
BRANCH   1   6
HETATM    6  N   UNL     1      42.282 -16.466   1.079  1.00  0.00    -0.351 N 
HETATM    7  C   UNL     1      43.408 -16.631   1.855  1.00  0.00     0.222 C 
HETATM    8  O   UNL     1      43.904 -15.744   2.542  1.00  0.00    -0.273 OA
HETATM    9  H   UNL     1      41.953 -17.240   0.523  1.00  0.00     0.163 HD
BRANCH   7  10
HETATM   10  C   UNL     1      43.987 -18.036   1.829  1.00  0.00     0.142 C 
BRANCH  10  11
HETATM   11  C   UNL     1      43.907 -18.764   3.147  1.00  0.00    -0.032 A 
HETATM   12  C   UNL     1      43.114 -18.307   4.199  1.00  0.00     0.126 A 
HETATM   13  N   UNL     1      43.053 -18.897   5.416  1.00  0.00    -0.248 NA
HETATM   14  C   UNL     1      43.829 -19.980   5.599  1.00  0.00     0.125 A 
HETATM   15 CL   UNL     1      43.730 -20.682   7.161  1.00  0.00    -0.063 Cl
HETATM   16  C   UNL     1      44.666 -20.512   4.635  1.00  0.00     0.045 A 
HETATM   17  C   UNL     1      44.706 -19.888   3.390  1.00  0.00     0.012 A 
ENDBRANCH  10  11
ENDBRANCH   7  10
ENDBRANCH   1   6
BRANCH   1  18
HETATM   18  C   UNL     1      41.502 -14.842  -0.598  1.00  0.00    -0.001 A 
HETATM   19  C   UNL     1      41.807 -13.552  -1.092  1.00  0.00     0.076 A 
HETATM   20  C   UNL     1      41.694 -13.283  -2.463  1.00  0.00     0.037 A 
HETATM   21  C   UNL     1      41.268 -14.273  -3.349  1.00  0.00     0.003 A 
HETATM   22  C   UNL     1      40.952 -15.540  -2.876  1.00  0.00     0.001 A 
HETATM   23  C   UNL     1      41.069 -15.822  -1.515  1.00  0.00     0.012 A 
BRANCH  19  24
HETATM   24  O   UNL     1      42.207 -12.627  -0.164  1.00  0.00    -0.355 OA
HETATM   25  C   UNL     1      41.334 -11.538   0.104  1.00  0.00     0.210 C 
ENDBRANCH  19  24
ENDBRANCH   1  18
TORSDOF 6
ENDMDL
MODEL 6
REMARK VINA RESULT:      -6.9      4.016      7.669
REMARK  6 active torsions:
REMARK  status: ('A' for Active; 'I' for Inactive)
REMARK    1  A    between atoms: C_2  and  C_3 
REMARK    2  A    between atoms: C_3  and  N_4 
REMARK    3  A    between atoms: C_3  and  C_15 
REMARK       I    between atoms: N_4  and  C_5 
REMARK    4  A    between atoms: C_5  and  C_6 
REMARK    5  A    between atoms: C_6  and  C_7 
REMARK    6  A    between atoms: C_16  and  O_17 
ROOT
HETATM    1  C   UNL     1      42.921 -17.429   5.716  1.00  0.00     0.128 C 
ENDROOT
BRANCH   1   2
HETATM    2  C   UNL     1      44.000 -16.993   6.778  1.00  0.00    -0.026 C 
HETATM    3  C   UNL     1      44.209 -15.462   6.690  1.00  0.00     0.016 C 
HETATM    4  C   UNL     1      45.366 -17.674   6.570  1.00  0.00     0.016 C 
HETATM    5  C   UNL     1      43.520 -17.305   8.212  1.00  0.00     0.016 C 
ENDBRANCH   1   2
BRANCH   1   6
HETATM    6  N   UNL     1      42.165 -16.270   5.218  1.00  0.00    -0.351 N 
HETATM    7  C   UNL     1      40.883 -15.986   5.631  1.00  0.00     0.222 C 
HETATM    8  O   UNL     1      40.296 -16.597   6.519  1.00  0.00    -0.273 OA
HETATM    9  H   UNL     1      42.566 -15.736   4.462  1.00  0.00     0.163 HD
BRANCH   7  10
HETATM   10  C   UNL     1      40.242 -14.806   4.919  1.00  0.00     0.142 C 
BRANCH  10  11
HETATM   11  C   UNL     1      40.315 -13.507   5.681  1.00  0.00    -0.032 A 
HETATM   12  C   UNL     1      39.176 -12.869   6.171  1.00  0.00     0.126 A 
HETATM   13  N   UNL     1      39.189 -11.677   6.812  1.00  0.00    -0.248 NA
HETATM   14  C   UNL     1      40.388 -11.085   6.956  1.00  0.00     0.125 A 
HETATM   15 CL   UNL     1      40.351  -9.571   7.760  1.00  0.00    -0.063 Cl
HETATM   16  C   UNL     1      41.580 -11.615   6.497  1.00  0.00     0.045 A 
HETATM   17  C   UNL     1      41.539 -12.846   5.846  1.00  0.00     0.012 A 
ENDBRANCH  10  11
ENDBRANCH   7  10
ENDBRANCH   1   6
BRANCH   1  18
HETATM   18  C   UNL     1      43.460 -18.251   4.539  1.00  0.00    -0.001 A 
HETATM   19  C   UNL     1      43.769 -19.622   4.693  1.00  0.00     0.076 A 
HETATM   20  C   UNL     1      44.253 -20.357   3.603  1.00  0.00     0.037 A 
HETATM   21  C   UNL     1      44.447 -19.747   2.364  1.00  0.00     0.003 A 
HETATM   22  C   UNL     1      44.160 -18.398   2.201  1.00  0.00     0.001 A 
HETATM   23  C   UNL     1      43.671 -17.658   3.277  1.00  0.00     0.012 A 
BRANCH  19  24
HETATM   24  O   UNL     1      43.566 -20.152   5.941  1.00  0.00    -0.355 OA
HETATM   25  C   UNL     1      44.172 -21.403   6.236  1.00  0.00     0.210 C 
ENDBRANCH  19  24
ENDBRANCH   1  18
TORSDOF 6
ENDMDL
MODEL 7
REMARK VINA RESULT:      -6.9      2.545      4.310
REMARK  6 active torsions:
REMARK  status: ('A' for Active; 'I' for Inactive)
REMARK    1  A    between atoms: C_2  and  C_3 
REMARK    2  A    between atoms: C_3  and  N_4 
REMARK    3  A    between atoms: C_3  and  C_15 
REMARK       I    between atoms: N_4  and  C_5 
REMARK    4  A    between atoms: C_5  and  C_6 
REMARK    5  A    between atoms: C_6  and  C_7 
REMARK    6  A    between atoms: C_16  and  O_17 
ROOT
HETATM    1  C   UNL     1      40.975 -15.071  -0.143  1.00  0.00     0.128 C 
ENDROOT
BRANCH   1   2
HETATM    2  C   UNL     1      40.897 -14.452  -1.589  1.00  0.00    -0.026 C 
HETATM    3  C   UNL     1      42.100 -13.503  -1.802  1.00  0.00     0.016 C 
HETATM    4  C   UNL     1      39.606 -13.649  -1.837  1.00  0.00     0.016 C 
HETATM    5  C   UNL     1      40.991 -15.554  -2.666  1.00  0.00     0.016 C 
ENDBRANCH   1   2
BRANCH   1   6
HETATM    6  N   UNL     1      42.211 -15.848   0.038  1.00  0.00    -0.351 N 
HETATM    7  C   UNL     1      42.249 -17.031   0.742  1.00  0.00     0.222 C 
HETATM    8  O   UNL     1      41.256 -17.597   1.187  1.00  0.00    -0.273 OA
HETATM    9  H   UNL     1      43.077 -15.433  -0.271  1.00  0.00     0.163 HD
BRANCH   7  10
HETATM   10  C   UNL     1      43.640 -17.620   0.901  1.00  0.00     0.142 C 
BRANCH  10  11
HETATM   11  C   UNL     1      43.867 -18.331   2.211  1.00  0.00    -0.032 A 
HETATM   12  C   UNL     1      44.063 -19.710   2.282  1.00  0.00     0.126 A 
HETATM   13  N   UNL     1      44.216 -20.397   3.438  1.00  0.00    -0.248 NA
HETATM   14  C   UNL     1      44.153 -19.682   4.576  1.00  0.00     0.125 A 
HETATM   15 CL   UNL     1      44.337 -20.598   6.013  1.00  0.00    -0.063 Cl
HETATM   16  C   UNL     1      43.946 -18.315   4.627  1.00  0.00     0.045 A 
HETATM   17  C   UNL     1      43.797 -17.632   3.422  1.00  0.00     0.012 A 
ENDBRANCH  10  11
ENDBRANCH   7  10
ENDBRANCH   1   6
BRANCH   1  18
HETATM   18  C   UNL     1      40.811 -14.068   1.005  1.00  0.00    -0.001 A 
HETATM   19  C   UNL     1      39.578 -13.941   1.687  1.00  0.00     0.076 A 
HETATM   20  C   UNL     1      39.452 -13.024   2.739  1.00  0.00     0.037 A 
HETATM   21  C   UNL     1      40.528 -12.221   3.115  1.00  0.00     0.003 A 
HETATM   22  C   UNL     1      41.741 -12.326   2.446  1.00  0.00     0.001 A 
HETATM   23  C   UNL     1      41.881 -13.241   1.403  1.00  0.00     0.012 A 
BRANCH  19  24
HETATM   24  O   UNL     1      38.561 -14.752   1.255  1.00  0.00    -0.355 OA
HETATM   25  C   UNL     1      37.361 -14.132   0.816  1.00  0.00     0.210 C 
ENDBRANCH  19  24
ENDBRANCH   1  18
TORSDOF 6
ENDMDL
MODEL 8
REMARK VINA RESULT:      -6.9      3.458      6.773
REMARK  6 active torsions:
REMARK  status: ('A' for Active; 'I' for Inactive)
REMARK    1  A    between atoms: C_2  and  C_3 
REMARK    2  A    between atoms: C_3  and  N_4 
REMARK    3  A    between atoms: C_3  and  C_15 
REMARK       I    between atoms: N_4  and  C_5 
REMARK    4  A    between atoms: C_5  and  C_6 
REMARK    5  A    between atoms: C_6  and  C_7 
REMARK    6  A    between atoms: C_16  and  O_17 
ROOT
HETATM    1  C   UNL     1      43.120 -17.565   5.598  1.00  0.00     0.128 C 
ENDROOT
BRANCH   1   2
HETATM    2  C   UNL     1      43.915 -18.195   6.804  1.00  0.00    -0.026 C 
HETATM    3  C   UNL     1      43.435 -17.545   8.123  1.00  0.00     0.016 C 
HETATM    4  C   UNL     1      45.438 -17.992   6.699  1.00  0.00     0.016 C 
HETATM    5  C   UNL     1      43.637 -19.709   6.916  1.00  0.00     0.016 C 
ENDBRANCH   1   2
BRANCH   1   6
HETATM    6  N   UNL     1      43.457 -16.145   5.422  1.00  0.00    -0.351 N 
HETATM    7  C   UNL     1      42.570 -15.130   5.702  1.00  0.00     0.222 C 
HETATM    8  O   UNL     1      41.470 -15.303   6.218  1.00  0.00    -0.273 OA
HETATM    9  H   UNL     1      44.331 -15.920   4.972  1.00  0.00     0.163 HD
BRANCH   7  10
HETATM   10  C   UNL     1      43.076 -13.740   5.354  1.00  0.00     0.142 C 
BRANCH  10  11
HETATM   11  C   UNL     1      42.488 -13.165   4.089  1.00  0.00    -0.032 A 
HETATM   12  C   UNL     1      42.901 -13.583   2.824  1.00  0.00     0.126 A 
HETATM   13  N   UNL     1      42.442 -13.059   1.664  1.00  0.00    -0.248 NA
HETATM   14  C   UNL     1      41.545 -12.061   1.768  1.00  0.00     0.125 A 
HETATM   15 CL   UNL     1      41.006 -11.419   0.273  1.00  0.00    -0.063 Cl
HETATM   16  C   UNL     1      41.077 -11.555   2.968  1.00  0.00     0.045 A 
HETATM   17  C   UNL     1      41.562 -12.117   4.146  1.00  0.00     0.012 A 
ENDBRANCH  10  11
ENDBRANCH   7  10
ENDBRANCH   1   6
BRANCH   1  18
HETATM   18  C   UNL     1      43.262 -18.309   4.265  1.00  0.00    -0.001 A 
HETATM   19  C   UNL     1      42.385 -18.042   3.188  1.00  0.00     0.076 A 
HETATM   20  C   UNL     1      42.538 -18.727   1.975  1.00  0.00     0.037 A 
HETATM   21  C   UNL     1      43.541 -19.683   1.820  1.00  0.00     0.003 A 
HETATM   22  C   UNL     1      44.401 -19.965   2.873  1.00  0.00     0.001 A 
HETATM   23  C   UNL     1      44.264 -19.284   4.082  1.00  0.00     0.012 A 
BRANCH  19  24
HETATM   24  O   UNL     1      41.416 -17.100   3.416  1.00  0.00    -0.355 OA
HETATM   25  C   UNL     1      40.590 -16.722   2.324  1.00  0.00     0.210 C 
ENDBRANCH  19  24
ENDBRANCH   1  18
TORSDOF 6
ENDMDL
MODEL 9
REMARK VINA RESULT:      -6.9      1.992      2.792
REMARK  6 active torsions:
REMARK  status: ('A' for Active; 'I' for Inactive)
REMARK    1  A    between atoms: C_2  and  C_3 
REMARK    2  A    between atoms: C_3  and  N_4 
REMARK    3  A    between atoms: C_3  and  C_15 
REMARK       I    between atoms: N_4  and  C_5 
REMARK    4  A    between atoms: C_5  and  C_6 
REMARK    5  A    between atoms: C_6  and  C_7 
REMARK    6  A    between atoms: C_16  and  O_17 
ROOT
HETATM    1  C   UNL     1      42.239 -15.463   4.181  1.00  0.00     0.128 C 
ENDROOT
BRANCH   1   2
HETATM    2  C   UNL     1      41.055 -14.835   5.008  1.00  0.00    -0.026 C 
HETATM    3  C   UNL     1      41.551 -13.547   5.708  1.00  0.00     0.016 C 
HETATM    4  C   UNL     1      40.500 -15.782   6.089  1.00  0.00     0.016 C 
HETATM    5  C   UNL     1      39.890 -14.429   4.081  1.00  0.00     0.016 C 
ENDBRANCH   1   2
BRANCH   1   6
HETATM    6  N   UNL     1      42.752 -16.681   4.827  1.00  0.00    -0.351 N 
HETATM    7  C   UNL     1      43.822 -16.669   5.694  1.00  0.00     0.222 C 
HETATM    8  O   UNL     1      44.374 -15.646   6.088  1.00  0.00    -0.273 OA
HETATM    9  H   UNL     1      42.372 -17.567   4.530  1.00  0.00     0.163 HD
BRANCH   7  10
HETATM   10  C   UNL     1      44.259 -18.044   6.169  1.00  0.00     0.142 C 
BRANCH  10  11
HETATM   11  C   UNL     1      44.310 -19.089   5.083  1.00  0.00    -0.032 A 
HETATM   12  C   UNL     1      44.571 -20.431   5.358  1.00  0.00     0.126 A 
HETATM   13  N   UNL     1      44.679 -21.393   4.411  1.00  0.00    -0.248 NA
HETATM   14  C   UNL     1      44.538 -20.998   3.133  1.00  0.00     0.125 A 
HETATM   15 CL   UNL     1      44.699 -22.248   1.971  1.00  0.00    -0.063 Cl
HETATM   16  C   UNL     1      44.294 -19.693   2.742  1.00  0.00     0.045 A 
HETATM   17  C   UNL     1      44.182 -18.724   3.737  1.00  0.00     0.012 A 
ENDBRANCH  10  11
ENDBRANCH   7  10
ENDBRANCH   1   6
BRANCH   1  18
HETATM   18  C   UNL     1      41.929 -15.741   2.706  1.00  0.00    -0.001 A 
HETATM   19  C   UNL     1      42.177 -14.761   1.716  1.00  0.00     0.076 A 
HETATM   20  C   UNL     1      41.894 -15.038   0.372  1.00  0.00     0.037 A 
HETATM   21  C   UNL     1      41.355 -16.269  -0.003  1.00  0.00     0.003 A 
HETATM   22  C   UNL     1      41.094 -17.236   0.960  1.00  0.00     0.001 A 
HETATM   23  C   UNL     1      41.379 -16.974   2.300  1.00  0.00     0.012 A 
BRANCH  19  24
HETATM   24  O   UNL     1      42.694 -13.572   2.157  1.00  0.00    -0.355 OA
HETATM   25  C   UNL     1      42.039 -12.376   1.758  1.00  0.00     0.210 C 
ENDBRANCH  19  24
ENDBRANCH   1  18
TORSDOF 6
ENDMDL
MODEL 10
REMARK VINA RESULT:      -6.7      3.003      4.307
REMARK  6 active torsions:
REMARK  status: ('A' for Active; 'I' for Inactive)
REMARK    1  A    between atoms: C_2  and  C_3 
REMARK    2  A    between atoms: C_3  and  N_4 
REMARK    3  A    between atoms: C_3  and  C_15 
REMARK       I    between atoms: N_4  and  C_5 
REMARK    4  A    between atoms: C_5  and  C_6 
REMARK    5  A    between atoms: C_6  and  C_7 
REMARK    6  A    between atoms: C_16  and  O_17 
ROOT
HETATM    1  C   UNL     1      40.256 -13.807   0.461  1.00  0.00     0.128 C 
ENDROOT
BRANCH   1   2
HETATM    2  C   UNL     1      38.880 -13.132   0.828  1.00  0.00    -0.026 C 
HETATM    3  C   UNL     1      38.934 -12.631   2.291  1.00  0.00     0.016 C 
HETATM    4  C   UNL     1      37.680 -14.090   0.696  1.00  0.00     0.016 C 
HETATM    5  C   UNL     1      38.614 -11.902  -0.065  1.00  0.00     0.016 C 
ENDBRANCH   1   2
BRANCH   1   6
HETATM    6  N   UNL     1      40.234 -15.249   0.744  1.00  0.00    -0.351 N 
HETATM    7  C   UNL     1      41.354 -15.946   1.140  1.00  0.00     0.222 C 
HETATM    8  O   UNL     1      42.434 -15.423   1.393  1.00  0.00    -0.273 OA
HETATM    9  H   UNL     1      39.391 -15.759   0.529  1.00  0.00     0.163 HD
BRANCH   7  10
HETATM   10  C   UNL     1      41.143 -17.445   1.280  1.00  0.00     0.142 C 
BRANCH  10  11
HETATM   11  C   UNL     1      42.127 -18.127   2.196  1.00  0.00    -0.032 A 
HETATM   12  C   UNL     1      42.058 -18.002   3.583  1.00  0.00     0.126 A 
HETATM   13  N   UNL     1      42.949 -18.551   4.441  1.00  0.00    -0.248 NA
HETATM   14  C   UNL     1      43.965 -19.241   3.892  1.00  0.00     0.125 A 
HETATM   15 CL   UNL     1      45.077 -19.903   5.017  1.00  0.00    -0.063 Cl
HETATM   16  C   UNL     1      44.144 -19.417   2.531  1.00  0.00     0.045 A 
HETATM   17  C   UNL     1      43.209 -18.845   1.672  1.00  0.00     0.012 A 
ENDBRANCH  10  11
ENDBRANCH   7  10
ENDBRANCH   1   6
BRANCH   1  18
HETATM   18  C   UNL     1      40.741 -13.559  -0.972  1.00  0.00    -0.001 A 
HETATM   19  C   UNL     1      41.850 -12.718  -1.227  1.00  0.00     0.076 A 
HETATM   20  C   UNL     1      42.283 -12.512  -2.543  1.00  0.00     0.037 A 
HETATM   21  C   UNL     1      41.623 -13.117  -3.612  1.00  0.00     0.003 A 
HETATM   22  C   UNL     1      40.525 -13.935  -3.378  1.00  0.00     0.001 A 
HETATM   23  C   UNL     1      40.089 -14.154  -2.071  1.00  0.00     0.012 A 
BRANCH  19  24
HETATM   24  O   UNL     1      42.441 -12.147  -0.131  1.00  0.00    -0.355 OA
HETATM   25  C   UNL     1      42.333 -10.738   0.022  1.00  0.00     0.210 C 
ENDBRANCH  19  24
ENDBRANCH   1  18
TORSDOF 6
ENDMDL
