MODEL 1
REMARK VINA RESULT:      -9.0      0.000      0.000
REMARK  5 active torsions:
REMARK  status: ('A' for Active; 'I' for Inactive)
REMARK    1  A    between atoms: C_3  and  C_4 
REMARK    2  A    between atoms: C_7  and  C_8 
REMARK    3  A    between atoms: C_8  and  N_9 
REMARK    4  A    between atoms: C_16  and  O_17 
REMARK    5  A    between atoms: C_18  and  O_19 
ROOT
HETATM    1  N   UNL     1      41.607 -14.494   1.454  1.00  0.00    -0.067 N 
HETATM    2  H   UNL     1      41.231 -13.726   0.885  1.00  0.00     0.280 HD
HETATM    3  C   UNL     1      42.707 -13.911   2.325  1.00  0.00     0.240 C 
HETATM    4  C   UNL     1      42.259 -14.172   3.760  1.00  0.00     0.020 C 
HETATM    5  C   UNL     1      40.733 -14.161   3.647  1.00  0.00     0.020 C 
HETATM    6  C   UNL     1      40.478 -14.940   2.364  1.00  0.00     0.240 C 
HETATM    7  C   UNL     1      42.824 -15.497   4.310  1.00  0.00     0.041 C 
HETATM    8  C   UNL     1      42.131 -15.918   5.604  1.00  0.00     0.147 C 
HETATM    9  C   UNL     1      40.612 -16.026   5.390  1.00  0.00     0.147 C 
HETATM   10  C   UNL     1      40.012 -14.717   4.870  1.00  0.00     0.041 C 
ENDROOT
BRANCH   1  11
HETATM   11  C   UNL     1      42.085 -15.537   0.479  1.00  0.00     0.273 C 
BRANCH  11  12
HETATM   12  C   UNL     1      42.589 -16.783   1.153  1.00  0.00    -0.033 A 
HETATM   13  C   UNL     1      41.697 -17.753   1.630  1.00  0.00     0.010 A 
HETATM   14  C   UNL     1      42.175 -18.895   2.283  1.00  0.00     0.013 A 
HETATM   15  C   UNL     1      43.549 -19.098   2.484  1.00  0.00    -0.023 A 
HETATM   16  C   UNL     1      44.432 -18.120   2.001  1.00  0.00     0.013 A 
HETATM   17  C   UNL     1      43.963 -16.980   1.344  1.00  0.00     0.010 A 
BRANCH  15  18
HETATM   18  C   UNL     1      44.053 -20.300   3.170  1.00  0.00     0.013 A 
HETATM   19  C   UNL     1      44.356 -20.277   4.542  1.00  0.00     0.015 A 
HETATM   20  C   UNL     1      44.822 -21.422   5.198  1.00  0.00     0.001 A 
HETATM   21  C   UNL     1      44.995 -22.612   4.494  1.00  0.00     0.003 A 
HETATM   22  C   UNL     1      44.703 -22.657   3.133  1.00  0.00     0.043 A 
HETATM   23  C   UNL     1      44.238 -21.514   2.486  1.00  0.00     0.127 A 
HETATM   24  F   UNL     1      43.974 -21.592   1.172  1.00  0.00    -0.205 F 
ENDBRANCH  15  18
ENDBRANCH  11  12
ENDBRANCH   1  11
BRANCH   8  25
HETATM   25  O   UNL     1      42.383 -14.934   6.607  1.00  0.00    -0.393 OA
HETATM   26  H   UNL     1      42.072 -14.075   6.263  1.00  0.00     0.210 HD
ENDBRANCH   8  25
BRANCH   9  27
HETATM   27  O   UNL     1      39.978 -16.358   6.619  1.00  0.00    -0.393 OA
HETATM   28  H   UNL     1      39.379 -17.108   6.429  1.00  0.00     0.210 HD
ENDBRANCH   9  27
TORSDOF 5
ENDMDL
MODEL 2
REMARK VINA RESULT:      -8.9      4.238      5.604
REMARK  5 active torsions:
REMARK  status: ('A' for Active; 'I' for Inactive)
REMARK    1  A    between atoms: C_3  and  C_4 
REMARK    2  A    between atoms: C_7  and  C_8 
REMARK    3  A    between atoms: C_8  and  N_9 
REMARK    4  A    between atoms: C_16  and  O_17 
REMARK    5  A    between atoms: C_18  and  O_19 
ROOT
HETATM    1  N   UNL     1      41.848 -14.783  -0.991  1.00  0.00    -0.067 N 
HETATM    2  H   UNL     1      42.807 -15.108  -1.167  1.00  0.00     0.280 HD
HETATM    3  C   UNL     1      41.745 -13.369  -1.535  1.00  0.00     0.240 C 
HETATM    4  C   UNL     1      40.645 -13.428  -2.592  1.00  0.00     0.020 C 
HETATM    5  C   UNL     1      40.739 -14.869  -3.100  1.00  0.00     0.020 C 
HETATM    6  C   UNL     1      40.940 -15.671  -1.821  1.00  0.00     0.240 C 
HETATM    7  C   UNL     1      39.263 -13.073  -2.008  1.00  0.00     0.041 C 
HETATM    8  C   UNL     1      38.130 -13.439  -2.963  1.00  0.00     0.147 C 
HETATM    9  C   UNL     1      38.194 -14.931  -3.327  1.00  0.00     0.147 C 
HETATM   10  C   UNL     1      39.545 -15.315  -3.937  1.00  0.00     0.041 C 
ENDROOT
BRANCH   1  11
HETATM   11  C   UNL     1      41.642 -14.883   0.498  1.00  0.00     0.273 C 
BRANCH  11  12
HETATM   12  C   UNL     1      42.197 -16.151   1.083  1.00  0.00    -0.033 A 
HETATM   13  C   UNL     1      43.570 -16.290   1.328  1.00  0.00     0.010 A 
HETATM   14  C   UNL     1      44.080 -17.487   1.844  1.00  0.00     0.013 A 
HETATM   15  C   UNL     1      43.241 -18.576   2.125  1.00  0.00    -0.023 A 
HETATM   16  C   UNL     1      41.868 -18.424   1.877  1.00  0.00     0.013 A 
HETATM   17  C   UNL     1      41.351 -17.231   1.365  1.00  0.00     0.010 A 
BRANCH  15  18
HETATM   18  C   UNL     1      43.777 -19.834   2.670  1.00  0.00     0.013 A 
HETATM   19  C   UNL     1      43.764 -21.017   1.910  1.00  0.00     0.015 A 
HETATM   20  C   UNL     1      44.285 -22.210   2.422  1.00  0.00     0.001 A 
HETATM   21  C   UNL     1      44.829 -22.245   3.704  1.00  0.00     0.003 A 
HETATM   22  C   UNL     1      44.851 -21.086   4.476  1.00  0.00     0.043 A 
HETATM   23  C   UNL     1      44.331 -19.900   3.960  1.00  0.00     0.127 A 
HETATM   24  F   UNL     1      44.362 -18.804   4.735  1.00  0.00    -0.205 F 
ENDBRANCH  15  18
ENDBRANCH  11  12
ENDBRANCH   1  11
BRANCH   8  25
HETATM   25  O   UNL     1      38.264 -12.670  -4.159  1.00  0.00    -0.393 OA
HETATM   26  H   UNL     1      38.618 -13.260  -4.852  1.00  0.00     0.210 HD
ENDBRANCH   8  25
BRANCH   9  27
HETATM   27  O   UNL     1      37.170 -15.241  -4.265  1.00  0.00    -0.393 OA
HETATM   28  H   UNL     1      37.335 -16.157  -4.564  1.00  0.00     0.210 HD
ENDBRANCH   9  27
TORSDOF 5
ENDMDL
MODEL 3
REMARK VINA RESULT:      -8.4      2.972      4.223
REMARK  5 active torsions:
REMARK  status: ('A' for Active; 'I' for Inactive)
REMARK    1  A    between atoms: C_3  and  C_4 
REMARK    2  A    between atoms: C_7  and  C_8 
REMARK    3  A    between atoms: C_8  and  N_9 
REMARK    4  A    between atoms: C_16  and  O_17 
REMARK    5  A    between atoms: C_18  and  O_19 
ROOT
HETATM    1  N   UNL     1      40.468 -13.411   3.353  1.00  0.00    -0.067 N 
HETATM    2  H   UNL     1      39.915 -12.679   3.815  1.00  0.00     0.280 HD
HETATM    3  C   UNL     1      39.490 -14.440   2.813  1.00  0.00     0.240 C 
HETATM    4  C   UNL     1      39.732 -14.467   1.306  1.00  0.00     0.020 C 
HETATM    5  C   UNL     1      40.204 -13.041   1.013  1.00  0.00     0.020 C 
HETATM    6  C   UNL     1      41.149 -12.748   2.171  1.00  0.00     0.240 C 
HETATM    7  C   UNL     1      40.755 -15.547   0.904  1.00  0.00     0.041 C 
HETATM    8  C   UNL     1      41.238 -15.368  -0.533  1.00  0.00     0.147 C 
HETATM    9  C   UNL     1      41.830 -13.963  -0.730  1.00  0.00     0.147 C 
HETATM   10  C   UNL     1      40.831 -12.863  -0.366  1.00  0.00     0.041 C 
ENDROOT
BRANCH   1  11
HETATM   11  C   UNL     1      41.405 -13.948   4.403  1.00  0.00     0.273 C 
BRANCH  11  12
HETATM   12  C   UNL     1      41.923 -15.322   4.080  1.00  0.00    -0.033 A 
HETATM   13  C   UNL     1      41.260 -16.467   4.540  1.00  0.00     0.010 A 
HETATM   14  C   UNL     1      41.767 -17.741   4.260  1.00  0.00     0.013 A 
HETATM   15  C   UNL     1      42.949 -17.908   3.521  1.00  0.00    -0.023 A 
HETATM   16  C   UNL     1      43.604 -16.754   3.065  1.00  0.00     0.013 A 
HETATM   17  C   UNL     1      43.101 -15.479   3.337  1.00  0.00     0.010 A 
BRANCH  15  18
HETATM   18  C   UNL     1      43.483 -19.248   3.224  1.00  0.00     0.013 A 
HETATM   19  C   UNL     1      43.143 -19.916   2.035  1.00  0.00     0.015 A 
HETATM   20  C   UNL     1      43.660 -21.184   1.746  1.00  0.00     0.001 A 
HETATM   21  C   UNL     1      44.526 -21.809   2.641  1.00  0.00     0.003 A 
HETATM   22  C   UNL     1      44.874 -21.167   3.827  1.00  0.00     0.043 A 
HETATM   23  C   UNL     1      44.357 -19.903   4.108  1.00  0.00     0.127 A 
HETATM   24  F   UNL     1      44.710 -19.318   5.264  1.00  0.00    -0.205 F 
ENDBRANCH  15  18
ENDBRANCH  11  12
ENDBRANCH   1  11
BRANCH   8  25
HETATM   25  O   UNL     1      40.128 -15.524  -1.418  1.00  0.00    -0.393 OA
HETATM   26  H   UNL     1      40.324 -15.021  -2.231  1.00  0.00     0.210 HD
ENDBRANCH   8  25
BRANCH   9  27
HETATM   27  O   UNL     1      42.218 -13.792  -2.088  1.00  0.00    -0.393 OA
HETATM   28  H   UNL     1      42.525 -14.666  -2.402  1.00  0.00     0.210 HD
ENDBRANCH   9  27
TORSDOF 5
ENDMDL
MODEL 4
REMARK VINA RESULT:      -8.4      1.654      2.302
REMARK  5 active torsions:
REMARK  status: ('A' for Active; 'I' for Inactive)
REMARK    1  A    between atoms: C_3  and  C_4 
REMARK    2  A    between atoms: C_7  and  C_8 
REMARK    3  A    between atoms: C_8  and  N_9 
REMARK    4  A    between atoms: C_16  and  O_17 
REMARK    5  A    between atoms: C_18  and  O_19 
ROOT
HETATM    1  N   UNL     1      40.623 -13.446   1.335  1.00  0.00    -0.067 N 
HETATM    2  H   UNL     1      40.462 -12.676   0.674  1.00  0.00     0.280 HD
HETATM    3  C   UNL     1      42.039 -13.298   1.863  1.00  0.00     0.240 C 
HETATM    4  C   UNL     1      41.887 -13.137   3.373  1.00  0.00     0.020 C 
HETATM    5  C   UNL     1      40.517 -12.467   3.506  1.00  0.00     0.020 C 
HETATM    6  C   UNL     1      39.667 -13.220   2.491  1.00  0.00     0.240 C 
HETATM    7  C   UNL     1      41.984 -14.487   4.110  1.00  0.00     0.041 C 
HETATM    8  C   UNL     1      41.517 -14.379   5.560  1.00  0.00     0.147 C 
HETATM    9  C   UNL     1      40.082 -13.832   5.623  1.00  0.00     0.147 C 
HETATM   10  C   UNL     1      39.953 -12.476   4.923  1.00  0.00     0.041 C 
ENDROOT
BRANCH   1  11
HETATM   11  C   UNL     1      40.387 -14.715   0.558  1.00  0.00     0.273 C 
BRANCH  11  12
HETATM   12  C   UNL     1      41.174 -15.881   1.087  1.00  0.00    -0.033 A 
HETATM   13  C   UNL     1      42.450 -16.173   0.588  1.00  0.00     0.010 A 
HETATM   14  C   UNL     1      43.162 -17.280   1.065  1.00  0.00     0.013 A 
HETATM   15  C   UNL     1      42.621 -18.126   2.045  1.00  0.00    -0.023 A 
HETATM   16  C   UNL     1      41.343 -17.823   2.538  1.00  0.00     0.013 A 
HETATM   17  C   UNL     1      40.628 -16.717   2.070  1.00  0.00     0.010 A 
BRANCH  15  18
HETATM   18  C   UNL     1      43.370 -19.290   2.549  1.00  0.00     0.013 A 
HETATM   19  C   UNL     1      43.390 -20.502   1.837  1.00  0.00     0.015 A 
HETATM   20  C   UNL     1      44.112 -21.604   2.309  1.00  0.00     0.001 A 
HETATM   21  C   UNL     1      44.827 -21.516   3.501  1.00  0.00     0.003 A 
HETATM   22  C   UNL     1      44.820 -20.326   4.224  1.00  0.00     0.043 A 
HETATM   23  C   UNL     1      44.100 -19.232   3.748  1.00  0.00     0.127 A 
HETATM   24  F   UNL     1      44.110 -18.103   4.476  1.00  0.00    -0.205 F 
ENDBRANCH  15  18
ENDBRANCH  11  12
ENDBRANCH   1  11
BRANCH   8  25
HETATM   25  O   UNL     1      42.380 -13.482   6.260  1.00  0.00    -0.393 OA
HETATM   26  H   UNL     1      42.284 -12.601   5.852  1.00  0.00     0.210 HD
ENDBRANCH   8  25
BRANCH   9  27
HETATM   27  O   UNL     1      39.686 -13.679   6.981  1.00  0.00    -0.393 OA
HETATM   28  H   UNL     1      39.325 -14.543   7.264  1.00  0.00     0.210 HD
ENDBRANCH   9  27
TORSDOF 5
ENDMDL
MODEL 5
REMARK VINA RESULT:      -8.3      1.586      2.114
REMARK  5 active torsions:
REMARK  status: ('A' for Active; 'I' for Inactive)
REMARK    1  A    between atoms: C_3  and  C_4 
REMARK    2  A    between atoms: C_7  and  C_8 
REMARK    3  A    between atoms: C_8  and  N_9 
REMARK    4  A    between atoms: C_16  and  O_17 
REMARK    5  A    between atoms: C_18  and  O_19 
ROOT
HETATM    1  N   UNL     1      42.458 -14.027   1.919  1.00  0.00    -0.067 N 
HETATM    2  H   UNL     1      43.215 -13.578   1.388  1.00  0.00     0.280 HD
HETATM    3  C   UNL     1      42.997 -14.322   3.307  1.00  0.00     0.240 C 
HETATM    4  C   UNL     1      42.087 -13.552   4.260  1.00  0.00     0.020 C 
HETATM    5  C   UNL     1      41.640 -12.359   3.413  1.00  0.00     0.020 C 
HETATM    6  C   UNL     1      41.361 -12.988   2.055  1.00  0.00     0.240 C 
HETATM    7  C   UNL     1      40.916 -14.418   4.766  1.00  0.00     0.041 C 
HETATM    8  C   UNL     1      39.840 -13.578   5.449  1.00  0.00     0.147 C 
HETATM    9  C   UNL     1      39.330 -12.482   4.499  1.00  0.00     0.147 C 
HETATM   10  C   UNL     1      40.464 -11.584   3.998  1.00  0.00     0.041 C 
ENDROOT
BRANCH   1  11
HETATM   11  C   UNL     1      42.074 -15.254   1.136  1.00  0.00     0.273 C 
BRANCH  11  12
HETATM   12  C   UNL     1      42.600 -16.525   1.742  1.00  0.00    -0.033 A 
HETATM   13  C   UNL     1      43.811 -17.081   1.307  1.00  0.00     0.010 A 
HETATM   14  C   UNL     1      44.277 -18.281   1.856  1.00  0.00     0.013 A 
HETATM   15  C   UNL     1      43.549 -18.961   2.845  1.00  0.00    -0.023 A 
HETATM   16  C   UNL     1      42.340 -18.394   3.273  1.00  0.00     0.013 A 
HETATM   17  C   UNL     1      41.870 -17.194   2.733  1.00  0.00     0.010 A 
BRANCH  15  18
HETATM   18  C   UNL     1      44.040 -20.223   3.424  1.00  0.00     0.013 A 
HETATM   19  C   UNL     1      44.386 -20.310   4.784  1.00  0.00     0.015 A 
HETATM   20  C   UNL     1      44.840 -21.512   5.338  1.00  0.00     0.001 A 
HETATM   21  C   UNL     1      44.958 -22.650   4.544  1.00  0.00     0.003 A 
HETATM   22  C   UNL     1      44.623 -22.587   3.194  1.00  0.00     0.043 A 
HETATM   23  C   UNL     1      44.170 -21.387   2.648  1.00  0.00     0.127 A 
HETATM   24  F   UNL     1      43.863 -21.362   1.341  1.00  0.00    -0.205 F 
ENDBRANCH  15  18
ENDBRANCH  11  12
ENDBRANCH   1  11
BRANCH   8  25
HETATM   25  O   UNL     1      40.401 -12.955   6.605  1.00  0.00    -0.393 OA
HETATM   26  H   UNL     1      41.355 -12.832   6.442  1.00  0.00     0.210 HD
ENDBRANCH   8  25
BRANCH   9  27
HETATM   27  O   UNL     1      38.374 -11.671   5.172  1.00  0.00    -0.393 OA
HETATM   28  H   UNL     1      38.312 -12.014   6.086  1.00  0.00     0.210 HD
ENDBRANCH   9  27
TORSDOF 5
ENDMDL
MODEL 6
REMARK VINA RESULT:      -8.1      3.744      4.864
REMARK  5 active torsions:
REMARK  status: ('A' for Active; 'I' for Inactive)
REMARK    1  A    between atoms: C_3  and  C_4 
REMARK    2  A    between atoms: C_7  and  C_8 
REMARK    3  A    between atoms: C_8  and  N_9 
REMARK    4  A    between atoms: C_16  and  O_17 
REMARK    5  A    between atoms: C_18  and  O_19 
ROOT
HETATM    1  N   UNL     1      40.953 -15.213   0.524  1.00  0.00    -0.067 N 
HETATM    2  H   UNL     1      40.393 -15.927   1.005  1.00  0.00     0.280 HD
HETATM    3  C   UNL     1      41.186 -15.704  -0.894  1.00  0.00     0.240 C 
HETATM    4  C   UNL     1      40.569 -14.636  -1.793  1.00  0.00     0.020 C 
HETATM    5  C   UNL     1      39.441 -14.073  -0.925  1.00  0.00     0.020 C 
HETATM    6  C   UNL     1      40.085 -13.971   0.451  1.00  0.00     0.240 C 
HETATM    7  C   UNL     1      41.601 -13.575  -2.222  1.00  0.00     0.041 C 
HETATM    8  C   UNL     1      40.933 -12.349  -2.841  1.00  0.00     0.147 C 
HETATM    9  C   UNL     1      39.910 -11.744  -1.866  1.00  0.00     0.147 C 
HETATM   10  C   UNL     1      38.852 -12.764  -1.440  1.00  0.00     0.041 C 
ENDROOT
BRANCH   1  11
HETATM   11  C   UNL     1      42.213 -15.058   1.334  1.00  0.00     0.273 C 
BRANCH  11  12
HETATM   12  C   UNL     1      42.712 -16.359   1.897  1.00  0.00    -0.033 A 
HETATM   13  C   UNL     1      43.742 -17.068   1.265  1.00  0.00     0.010 A 
HETATM   14  C   UNL     1      44.178 -18.294   1.781  1.00  0.00     0.013 A 
HETATM   15  C   UNL     1      43.599 -18.847   2.933  1.00  0.00    -0.023 A 
HETATM   16  C   UNL     1      42.570 -18.127   3.558  1.00  0.00     0.013 A 
HETATM   17  C   UNL     1      42.132 -16.901   3.052  1.00  0.00     0.010 A 
BRANCH  15  18
HETATM   18  C   UNL     1      44.060 -20.136   3.477  1.00  0.00     0.013 A 
HETATM   19  C   UNL     1      44.393 -20.271   4.836  1.00  0.00     0.015 A 
HETATM   20  C   UNL     1      44.817 -21.499   5.357  1.00  0.00     0.001 A 
HETATM   21  C   UNL     1      44.919 -22.614   4.529  1.00  0.00     0.003 A 
HETATM   22  C   UNL     1      44.596 -22.503   3.179  1.00  0.00     0.043 A 
HETATM   23  C   UNL     1      44.172 -21.278   2.667  1.00  0.00     0.127 A 
HETATM   24  F   UNL     1      43.877 -21.207   1.358  1.00  0.00    -0.205 F 
ENDBRANCH  15  18
ENDBRANCH  11  12
ENDBRANCH   1  11
BRANCH   8  25
HETATM   25  O   UNL     1      40.252 -12.743  -4.032  1.00  0.00    -0.393 OA
HETATM   26  H   UNL     1      39.898 -13.641  -3.888  1.00  0.00     0.210 HD
ENDBRANCH   8  25
BRANCH   9  27
HETATM   27  O   UNL     1      39.254 -10.642  -2.482  1.00  0.00    -0.393 OA
HETATM   28  H   UNL     1      39.355  -9.883  -1.873  1.00  0.00     0.210 HD
ENDBRANCH   9  27
TORSDOF 5
ENDMDL
MODEL 7
REMARK VINA RESULT:      -8.0      2.868      3.657
REMARK  5 active torsions:
REMARK  status: ('A' for Active; 'I' for Inactive)
REMARK    1  A    between atoms: C_3  and  C_4 
REMARK    2  A    between atoms: C_7  and  C_8 
REMARK    3  A    between atoms: C_8  and  N_9 
REMARK    4  A    between atoms: C_16  and  O_17 
REMARK    5  A    between atoms: C_18  and  O_19 
ROOT
HETATM    1  N   UNL     1      40.507 -14.058   4.230  1.00  0.00    -0.067 N 
HETATM    2  H   UNL     1      40.050 -14.970   4.107  1.00  0.00     0.280 HD
HETATM    3  C   UNL     1      39.598 -13.012   3.610  1.00  0.00     0.240 C 
HETATM    4  C   UNL     1      39.248 -12.060   4.751  1.00  0.00     0.020 C 
HETATM    5  C   UNL     1      39.310 -12.968   5.981  1.00  0.00     0.020 C 
HETATM    6  C   UNL     1      40.555 -13.807   5.726  1.00  0.00     0.240 C 
HETATM    7  C   UNL     1      40.217 -10.863   4.822  1.00  0.00     0.041 C 
HETATM    8  C   UNL     1      40.075 -10.094   6.133  1.00  0.00     0.147 C 
HETATM    9  C   UNL     1      40.287 -11.032   7.333  1.00  0.00     0.147 C 
HETATM   10  C   UNL     1      39.321 -12.220   7.309  1.00  0.00     0.041 C 
ENDROOT
BRANCH   1  11
HETATM   11  C   UNL     1      41.853 -14.174   3.565  1.00  0.00     0.273 C 
BRANCH  11  12
HETATM   12  C   UNL     1      42.311 -15.597   3.410  1.00  0.00    -0.033 A 
HETATM   13  C   UNL     1      41.712 -16.629   4.145  1.00  0.00     0.010 A 
HETATM   14  C   UNL     1      42.167 -17.946   4.017  1.00  0.00     0.013 A 
HETATM   15  C   UNL     1      43.230 -18.270   3.159  1.00  0.00    -0.023 A 
HETATM   16  C   UNL     1      43.820 -17.229   2.427  1.00  0.00     0.013 A 
HETATM   17  C   UNL     1      43.369 -15.911   2.547  1.00  0.00     0.010 A 
BRANCH  15  18
HETATM   18  C   UNL     1      43.708 -19.656   3.022  1.00  0.00     0.013 A 
HETATM   19  C   UNL     1      43.429 -20.407   1.867  1.00  0.00     0.015 A 
HETATM   20  C   UNL     1      43.894 -21.721   1.731  1.00  0.00     0.001 A 
HETATM   21  C   UNL     1      44.644 -22.308   2.746  1.00  0.00     0.003 A 
HETATM   22  C   UNL     1      44.930 -21.584   3.901  1.00  0.00     0.043 A 
HETATM   23  C   UNL     1      44.466 -20.276   4.030  1.00  0.00     0.127 A 
HETATM   24  F   UNL     1      44.755 -19.610   5.160  1.00  0.00    -0.205 F 
ENDBRANCH  15  18
ENDBRANCH  11  12
ENDBRANCH   1  11
BRANCH   8  25
HETATM   25  O   UNL     1      38.760  -9.544   6.209  1.00  0.00    -0.393 OA
HETATM   26  H   UNL     1      38.661  -9.130   7.087  1.00  0.00     0.210 HD
ENDBRANCH   8  25
BRANCH   9  27
HETATM   27  O   UNL     1      40.090 -10.313   8.545  1.00  0.00    -0.393 OA
HETATM   28  H   UNL     1      40.707  -9.554   8.521  1.00  0.00     0.210 HD
ENDBRANCH   9  27
TORSDOF 5
ENDMDL
MODEL 8
REMARK VINA RESULT:      -7.9      2.916      3.979
REMARK  5 active torsions:
REMARK  status: ('A' for Active; 'I' for Inactive)
REMARK    1  A    between atoms: C_3  and  C_4 
REMARK    2  A    between atoms: C_7  and  C_8 
REMARK    3  A    between atoms: C_8  and  N_9 
REMARK    4  A    between atoms: C_16  and  O_17 
REMARK    5  A    between atoms: C_18  and  O_19 
ROOT
HETATM    1  N   UNL     1      40.792 -14.267   3.338  1.00  0.00    -0.067 N 
HETATM    2  H   UNL     1      40.168 -14.036   4.121  1.00  0.00     0.280 HD
HETATM    3  C   UNL     1      40.219 -15.496   2.654  1.00  0.00     0.240 C 
HETATM    4  C   UNL     1      39.938 -15.061   1.219  1.00  0.00     0.020 C 
HETATM    5  C   UNL     1      39.642 -13.567   1.370  1.00  0.00     0.020 C 
HETATM    6  C   UNL     1      40.698 -13.106   2.365  1.00  0.00     0.240 C 
HETATM    7  C   UNL     1      41.125 -15.359   0.282  1.00  0.00     0.041 C 
HETATM    8  C   UNL     1      40.985 -14.645  -1.061  1.00  0.00     0.147 C 
HETATM    9  C   UNL     1      40.830 -13.130  -0.850  1.00  0.00     0.147 C 
HETATM   10  C   UNL     1      39.642 -12.795   0.055  1.00  0.00     0.041 C 
ENDROOT
BRANCH   1  11
HETATM   11  C   UNL     1      42.155 -14.479   3.940  1.00  0.00     0.273 C 
BRANCH  11  12
HETATM   12  C   UNL     1      42.608 -15.911   3.878  1.00  0.00    -0.033 A 
HETATM   13  C   UNL     1      42.182 -16.842   4.834  1.00  0.00     0.010 A 
HETATM   14  C   UNL     1      42.634 -18.166   4.785  1.00  0.00     0.013 A 
HETATM   15  C   UNL     1      43.524 -18.595   3.788  1.00  0.00    -0.023 A 
HETATM   16  C   UNL     1      43.943 -17.654   2.835  1.00  0.00     0.013 A 
HETATM   17  C   UNL     1      43.492 -16.332   2.875  1.00  0.00     0.010 A 
BRANCH  15  18
HETATM   18  C   UNL     1      43.999 -19.988   3.735  1.00  0.00     0.013 A 
HETATM   19  C   UNL     1      44.551 -20.609   4.868  1.00  0.00     0.015 A 
HETATM   20  C   UNL     1      44.991 -21.937   4.822  1.00  0.00     0.001 A 
HETATM   21  C   UNL     1      44.887 -22.669   3.642  1.00  0.00     0.003 A 
HETATM   22  C   UNL     1      44.345 -22.074   2.506  1.00  0.00     0.043 A 
HETATM   23  C   UNL     1      43.908 -20.752   2.558  1.00  0.00     0.127 A 
HETATM   24  F   UNL     1      43.398 -20.208   1.441  1.00  0.00    -0.205 F 
ENDBRANCH  15  18
ENDBRANCH  11  12
ENDBRANCH   1  11
BRANCH   8  25
HETATM   25  O   UNL     1      39.820 -15.135  -1.727  1.00  0.00    -0.393 OA
HETATM   26  H   UNL     1      39.994 -15.107  -2.687  1.00  0.00     0.210 HD
ENDBRANCH   8  25
BRANCH   9  27
HETATM   27  O   UNL     1      40.638 -12.489  -2.106  1.00  0.00    -0.393 OA
HETATM   28  H   UNL     1      39.771 -12.792  -2.443  1.00  0.00     0.210 HD
ENDBRANCH   9  27
TORSDOF 5
ENDMDL
MODEL 9
REMARK VINA RESULT:      -7.8      4.309      5.627
REMARK  5 active torsions:
REMARK  status: ('A' for Active; 'I' for Inactive)
REMARK    1  A    between atoms: C_3  and  C_4 
REMARK    2  A    between atoms: C_7  and  C_8 
REMARK    3  A    between atoms: C_8  and  N_9 
REMARK    4  A    between atoms: C_16  and  O_17 
REMARK    5  A    between atoms: C_18  and  O_19 
ROOT
HETATM    1  N   UNL     1      39.976 -14.662  -0.680  1.00  0.00    -0.067 N 
HETATM    2  H   UNL     1      39.195 -15.327  -0.737  1.00  0.00     0.280 HD
HETATM    3  C   UNL     1      41.062 -15.162  -1.617  1.00  0.00     0.240 C 
HETATM    4  C   UNL     1      41.264 -14.037  -2.629  1.00  0.00     0.020 C 
HETATM    5  C   UNL     1      39.882 -13.383  -2.690  1.00  0.00     0.020 C 
HETATM    6  C   UNL     1      39.455 -13.347  -1.229  1.00  0.00     0.240 C 
HETATM    7  C   UNL     1      42.384 -13.068  -2.199  1.00  0.00     0.041 C 
HETATM    8  C   UNL     1      42.373 -11.784  -3.025  1.00  0.00     0.147 C 
HETATM    9  C   UNL     1      41.000 -11.098  -2.935  1.00  0.00     0.147 C 
HETATM   10  C   UNL     1      39.865 -12.023  -3.381  1.00  0.00     0.041 C 
ENDROOT
BRANCH   1  11
HETATM   11  C   UNL     1      40.386 -14.625   0.768  1.00  0.00     0.273 C 
BRANCH  11  12
HETATM   12  C   UNL     1      41.143 -15.850   1.196  1.00  0.00    -0.033 A 
HETATM   13  C   UNL     1      40.484 -16.926   1.807  1.00  0.00     0.010 A 
HETATM   14  C   UNL     1      41.203 -18.049   2.230  1.00  0.00     0.013 A 
HETATM   15  C   UNL     1      42.594 -18.130   2.061  1.00  0.00    -0.023 A 
HETATM   16  C   UNL     1      43.243 -17.048   1.446  1.00  0.00     0.013 A 
HETATM   17  C   UNL     1      42.531 -15.925   1.018  1.00  0.00     0.010 A 
BRANCH  15  18
HETATM   18  C   UNL     1      43.351 -19.314   2.504  1.00  0.00     0.013 A 
HETATM   19  C   UNL     1      43.370 -20.490   1.735  1.00  0.00     0.015 A 
HETATM   20  C   UNL     1      44.100 -21.611   2.148  1.00  0.00     0.001 A 
HETATM   21  C   UNL     1      44.823 -21.577   3.338  1.00  0.00     0.003 A 
HETATM   22  C   UNL     1      44.817 -20.422   4.117  1.00  0.00     0.043 A 
HETATM   23  C   UNL     1      44.090 -19.309   3.699  1.00  0.00     0.127 A 
HETATM   24  F   UNL     1      44.101 -18.216   4.479  1.00  0.00    -0.205 F 
ENDBRANCH  15  18
ENDBRANCH  11  12
ENDBRANCH   1  11
BRANCH   8  25
HETATM   25  O   UNL     1      42.632 -12.109  -4.391  1.00  0.00    -0.393 OA
HETATM   26  H   UNL     1      42.543 -13.076  -4.488  1.00  0.00     0.210 HD
ENDBRANCH   8  25
BRANCH   9  27
HETATM   27  O   UNL     1      40.988  -9.938  -3.758  1.00  0.00    -0.393 OA
HETATM   28  H   UNL     1      41.709  -9.360  -3.435  1.00  0.00     0.210 HD
ENDBRANCH   9  27
TORSDOF 5
ENDMDL
MODEL 10
REMARK VINA RESULT:      -7.7      2.756      3.376
REMARK  5 active torsions:
REMARK  status: ('A' for Active; 'I' for Inactive)
REMARK    1  A    between atoms: C_3  and  C_4 
REMARK    2  A    between atoms: C_7  and  C_8 
REMARK    3  A    between atoms: C_8  and  N_9 
REMARK    4  A    between atoms: C_16  and  O_17 
REMARK    5  A    between atoms: C_18  and  O_19 
ROOT
HETATM    1  N   UNL     1      42.098 -13.227   3.764  1.00  0.00    -0.067 N 
HETATM    2  H   UNL     1      43.055 -13.098   3.414  1.00  0.00     0.280 HD
HETATM    3  C   UNL     1      42.205 -13.812   5.161  1.00  0.00     0.240 C 
HETATM    4  C   UNL     1      41.513 -12.801   6.071  1.00  0.00     0.020 C 
HETATM    5  C   UNL     1      41.744 -11.475   5.342  1.00  0.00     0.020 C 
HETATM    6  C   UNL     1      41.498 -11.839   3.884  1.00  0.00     0.240 C 
HETATM    7  C   UNL     1      40.023 -13.135   6.280  1.00  0.00     0.041 C 
HETATM    8  C   UNL     1      39.261 -11.972   6.911  1.00  0.00     0.147 C 
HETATM    9  C   UNL     1      39.416 -10.703   6.058  1.00  0.00     0.147 C 
HETATM   10  C   UNL     1      40.885 -10.324   5.853  1.00  0.00     0.041 C 
ENDROOT
BRANCH   1  11
HETATM   11  C   UNL     1      41.412 -14.129   2.773  1.00  0.00     0.273 C 
BRANCH  11  12
HETATM   12  C   UNL     1      41.955 -15.531   2.780  1.00  0.00    -0.033 A 
HETATM   13  C   UNL     1      41.156 -16.610   3.181  1.00  0.00     0.010 A 
HETATM   14  C   UNL     1      41.681 -17.907   3.214  1.00  0.00     0.013 A 
HETATM   15  C   UNL     1      43.014 -18.163   2.855  1.00  0.00    -0.023 A 
HETATM   16  C   UNL     1      43.803 -17.075   2.453  1.00  0.00     0.013 A 
HETATM   17  C   UNL     1      43.285 -15.777   2.414  1.00  0.00     0.010 A 
BRANCH  15  18
HETATM   18  C   UNL     1      43.566 -19.528   2.887  1.00  0.00     0.013 A 
HETATM   19  C   UNL     1      43.343 -20.425   1.828  1.00  0.00     0.015 A 
HETATM   20  C   UNL     1      43.878 -21.718   1.852  1.00  0.00     0.001 A 
HETATM   21  C   UNL     1      44.646 -22.138   2.935  1.00  0.00     0.003 A 
HETATM   22  C   UNL     1      44.879 -21.267   3.997  1.00  0.00     0.043 A 
HETATM   23  C   UNL     1      44.344 -19.981   3.966  1.00  0.00     0.127 A 
HETATM   24  F   UNL     1      44.583 -19.170   5.010  1.00  0.00    -0.205 F 
ENDBRANCH  15  18
ENDBRANCH  11  12
ENDBRANCH   1  11
BRANCH   8  25
HETATM   25  O   UNL     1      39.796 -11.718   8.211  1.00  0.00    -0.393 OA
HETATM   26  H   UNL     1      40.712 -11.401   8.097  1.00  0.00     0.210 HD
ENDBRANCH   8  25
BRANCH   9  27
HETATM   27  O   UNL     1      38.752  -9.615   6.692  1.00  0.00    -0.393 OA
HETATM   28  H   UNL     1      38.362  -9.970   7.516  1.00  0.00     0.210 HD
ENDBRANCH   9  27
TORSDOF 5
ENDMDL
