MODEL 1
REMARK VINA RESULT:      -8.7      0.000      0.000
REMARK  3 active torsions:
REMARK  status: ('A' for Active; 'I' for Inactive)
REMARK    1  A    between atoms: C_3  and  N_4 
REMARK       I    between atoms: N_4  and  C_5 
REMARK    2  A    between atoms: C_5  and  C_6 
REMARK    3  A    between atoms: C_6  and  C_7 
ROOT
HETATM    1  C   UNL     1      42.636 -17.869   6.848  1.00  0.00     0.286 C 
HETATM    2  N   UNL     1      42.148 -17.418   5.466  1.00  0.00    -0.056 N 
HETATM    3  H   UNL     1      42.256 -18.209   4.802  1.00  0.00     0.278 HD
HETATM    4  H   UNL     1      41.141 -17.214   5.516  1.00  0.00     0.278 HD
HETATM    5  C   UNL     1      42.886 -16.241   4.884  1.00  0.00     0.209 C 
HETATM    6  C   UNL     1      42.950 -15.105   5.923  1.00  0.00     0.115 C 
HETATM    7  N   UNL     1      43.538 -15.562   7.171  1.00  0.00    -0.353 N 
HETATM    8  C   UNL     1      43.221 -16.765   7.745  1.00  0.00     0.249 C 
HETATM    9  O   UNL     1      43.444 -16.954   8.936  1.00  0.00    -0.271 OA
HETATM   10  C   UNL     1      42.192 -15.780   3.607  1.00  0.00     0.035 C 
HETATM   11  C   UNL     1      42.929 -14.578   3.014  1.00  0.00     0.002 C 
HETATM   12  C   UNL     1      43.101 -13.445   4.028  1.00  0.00     0.002 C 
HETATM   13  C   UNL     1      43.724 -13.921   5.340  1.00  0.00     0.027 C 
HETATM   14  H   UNL     1      43.851 -14.867   7.848  1.00  0.00     0.163 HD
ENDROOT
BRANCH   1  15
HETATM   15  C   UNL     1      43.564 -19.086   6.786  1.00  0.00     0.146 C 
BRANCH  15  16
HETATM   16  C   UNL     1      44.857 -18.762   6.105  1.00  0.00     0.224 C 
HETATM   17  N   UNL     1      45.234 -19.181   4.880  1.00  0.00    -0.325 N 
HETATM   18  H   UNL     1      46.168 -18.836   4.650  1.00  0.00     0.169 HD
HETATM   19  O   UNL     1      45.697 -18.157   6.791  1.00  0.00    -0.273 OA
BRANCH  17  20
HETATM   20  C   UNL     1      44.681 -19.957   3.840  1.00  0.00     0.073 A 
HETATM   21  C   UNL     1      43.983 -19.503   2.728  1.00  0.00     0.033 A 
HETATM   22  C   UNL     1      43.476 -20.414   1.787  1.00  0.00     0.002 A 
HETATM   23  C   UNL     1      43.668 -21.786   1.940  1.00  0.00     0.003 A 
HETATM   24  C   UNL     1      44.369 -22.258   3.043  1.00  0.00     0.044 A 
HETATM   25  C   UNL     1      44.863 -21.347   3.971  1.00  0.00     0.143 A 
HETATM   26  F   UNL     1      45.524 -21.816   5.043  1.00  0.00    -0.204 F 
ENDBRANCH  17  20
ENDBRANCH  15  16
ENDBRANCH   1  15
TORSDOF 3
ENDMDL
MODEL 2
REMARK VINA RESULT:      -8.1      1.862      2.266
REMARK  3 active torsions:
REMARK  status: ('A' for Active; 'I' for Inactive)
REMARK    1  A    between atoms: C_3  and  N_4 
REMARK       I    between atoms: N_4  and  C_5 
REMARK    2  A    between atoms: C_5  and  C_6 
REMARK    3  A    between atoms: C_6  and  C_7 
ROOT
HETATM    1  C   UNL     1      43.824 -15.647   7.093  1.00  0.00     0.286 C 
HETATM    2  N   UNL     1      42.360 -15.855   6.685  1.00  0.00    -0.056 N 
HETATM    3  H   UNL     1      42.204 -16.866   6.513  1.00  0.00     0.278 HD
HETATM    4  H   UNL     1      41.753 -15.596   7.474  1.00  0.00     0.278 HD
HETATM    5  C   UNL     1      41.936 -15.118   5.441  1.00  0.00     0.209 C 
HETATM    6  C   UNL     1      42.349 -13.638   5.551  1.00  0.00     0.115 C 
HETATM    7  N   UNL     1      43.772 -13.503   5.813  1.00  0.00    -0.353 N 
HETATM    8  C   UNL     1      44.438 -14.289   6.715  1.00  0.00     0.249 C 
HETATM    9  O   UNL     1      45.517 -13.923   7.168  1.00  0.00    -0.271 OA
HETATM   10  C   UNL     1      40.430 -15.257   5.251  1.00  0.00     0.035 C 
HETATM   11  C   UNL     1      39.988 -14.503   3.995  1.00  0.00     0.002 C 
HETATM   12  C   UNL     1      40.444 -13.043   4.004  1.00  0.00     0.002 C 
HETATM   13  C   UNL     1      41.942 -12.898   4.275  1.00  0.00     0.027 C 
HETATM   14  H   UNL     1      44.211 -12.593   5.674  1.00  0.00     0.163 HD
ENDROOT
BRANCH   1  15
HETATM   15  C   UNL     1      44.731 -16.807   6.669  1.00  0.00     0.146 C 
BRANCH  15  16
HETATM   16  C   UNL     1      44.124 -18.134   7.002  1.00  0.00     0.224 C 
HETATM   17  N   UNL     1      43.683 -19.048   6.114  1.00  0.00    -0.325 N 
HETATM   18  H   UNL     1      43.298 -19.863   6.594  1.00  0.00     0.169 HD
HETATM   19  O   UNL     1      43.899 -18.344   8.205  1.00  0.00    -0.273 OA
BRANCH  17  20
HETATM   20  C   UNL     1      43.621 -19.176   4.711  1.00  0.00     0.073 A 
HETATM   21  C   UNL     1      42.820 -18.456   3.832  1.00  0.00     0.033 A 
HETATM   22  C   UNL     1      42.862 -18.720   2.454  1.00  0.00     0.002 A 
HETATM   23  C   UNL     1      43.709 -19.698   1.936  1.00  0.00     0.003 A 
HETATM   24  C   UNL     1      44.521 -20.424   2.799  1.00  0.00     0.044 A 
HETATM   25  C   UNL     1      44.468 -20.157   4.163  1.00  0.00     0.143 A 
HETATM   26  F   UNL     1      45.245 -20.878   4.989  1.00  0.00    -0.204 F 
ENDBRANCH  17  20
ENDBRANCH  15  16
ENDBRANCH   1  15
TORSDOF 3
ENDMDL
MODEL 3
REMARK VINA RESULT:      -7.9      2.679      3.132
REMARK  3 active torsions:
REMARK  status: ('A' for Active; 'I' for Inactive)
REMARK    1  A    between atoms: C_3  and  N_4 
REMARK       I    between atoms: N_4  and  C_5 
REMARK    2  A    between atoms: C_5  and  C_6 
REMARK    3  A    between atoms: C_6  and  C_7 
ROOT
HETATM    1  C   UNL     1      41.502 -16.815   4.776  1.00  0.00     0.286 C 
HETATM    2  N   UNL     1      41.054 -15.897   3.633  1.00  0.00    -0.056 N 
HETATM    3  H   UNL     1      41.793 -15.889   2.904  1.00  0.00     0.278 HD
HETATM    4  H   UNL     1      40.214 -16.295   3.192  1.00  0.00     0.278 HD
HETATM    5  C   UNL     1      40.800 -14.465   4.029  1.00  0.00     0.209 C 
HETATM    6  C   UNL     1      39.874 -14.425   5.259  1.00  0.00     0.115 C 
HETATM    7  N   UNL     1      40.415 -15.213   6.354  1.00  0.00    -0.353 N 
HETATM    8  C   UNL     1      40.974 -16.450   6.174  1.00  0.00     0.249 C 
HETATM    9  O   UNL     1      41.083 -17.218   7.123  1.00  0.00    -0.271 OA
HETATM   10  C   UNL     1      40.189 -13.708   2.855  1.00  0.00     0.035 C 
HETATM   11  C   UNL     1      39.918 -12.256   3.251  1.00  0.00     0.002 C 
HETATM   12  C   UNL     1      39.071 -12.149   4.520  1.00  0.00     0.002 C 
HETATM   13  C   UNL     1      39.640 -12.972   5.676  1.00  0.00     0.027 C 
HETATM   14  H   UNL     1      40.028 -15.082   7.289  1.00  0.00     0.163 HD
ENDROOT
BRANCH   1  15
HETATM   15  C   UNL     1      43.015 -17.049   4.795  1.00  0.00     0.146 C 
BRANCH  15  16
HETATM   16  C   UNL     1      43.557 -17.278   3.419  1.00  0.00     0.224 C 
HETATM   17  N   UNL     1      44.076 -18.432   2.954  1.00  0.00    -0.325 N 
HETATM   18  H   UNL     1      44.391 -18.325   1.987  1.00  0.00     0.169 HD
HETATM   19  O   UNL     1      43.643 -16.273   2.693  1.00  0.00    -0.273 OA
BRANCH  17  20
HETATM   20  C   UNL     1      44.292 -19.737   3.443  1.00  0.00     0.073 A 
HETATM   21  C   UNL     1      44.677 -20.104   4.727  1.00  0.00     0.033 A 
HETATM   22  C   UNL     1      44.869 -21.457   5.051  1.00  0.00     0.002 A 
HETATM   23  C   UNL     1      44.671 -22.458   4.101  1.00  0.00     0.003 A 
HETATM   24  C   UNL     1      44.280 -22.110   2.815  1.00  0.00     0.044 A 
HETATM   25  C   UNL     1      44.096 -20.767   2.503  1.00  0.00     0.143 A 
HETATM   26  F   UNL     1      43.735 -20.441   1.251  1.00  0.00    -0.204 F 
ENDBRANCH  17  20
ENDBRANCH  15  16
ENDBRANCH   1  15
TORSDOF 3
ENDMDL
MODEL 4
REMARK VINA RESULT:      -7.9      2.345      5.791
REMARK  3 active torsions:
REMARK  status: ('A' for Active; 'I' for Inactive)
REMARK    1  A    between atoms: C_3  and  N_4 
REMARK       I    between atoms: N_4  and  C_5 
REMARK    2  A    between atoms: C_5  and  C_6 
REMARK    3  A    between atoms: C_6  and  C_7 
ROOT
HETATM    1  C   UNL     1      43.962 -17.603   4.907  1.00  0.00     0.286 C 
HETATM    2  N   UNL     1      43.731 -18.106   3.477  1.00  0.00    -0.056 N 
HETATM    3  H   UNL     1      42.847 -17.695   3.119  1.00  0.00     0.278 HD
HETATM    4  H   UNL     1      44.483 -17.753   2.871  1.00  0.00     0.278 HD
HETATM    5  C   UNL     1      43.615 -19.602   3.340  1.00  0.00     0.209 C 
HETATM    6  C   UNL     1      44.799 -20.280   4.055  1.00  0.00     0.115 C 
HETATM    7  N   UNL     1      44.891 -19.858   5.443  1.00  0.00    -0.353 N 
HETATM    8  C   UNL     1      44.733 -18.556   5.835  1.00  0.00     0.249 C 
HETATM    9  O   UNL     1      45.164 -18.186   6.922  1.00  0.00    -0.271 OA
HETATM   10  C   UNL     1      43.573 -19.982   1.864  1.00  0.00     0.035 C 
HETATM   11  C   UNL     1      43.466 -21.500   1.715  1.00  0.00     0.002 C 
HETATM   12  C   UNL     1      44.569 -22.237   2.477  1.00  0.00     0.002 C 
HETATM   13  C   UNL     1      44.665 -21.799   3.939  1.00  0.00     0.027 C 
HETATM   14  H   UNL     1      45.473 -20.400   6.082  1.00  0.00     0.163 HD
ENDROOT
BRANCH   1  15
HETATM   15  C   UNL     1      42.682 -17.089   5.572  1.00  0.00     0.146 C 
BRANCH  15  16
HETATM   16  C   UNL     1      42.683 -15.597   5.695  1.00  0.00     0.224 C 
HETATM   17  N   UNL     1      42.134 -14.730   4.820  1.00  0.00    -0.325 N 
HETATM   18  H   UNL     1      42.283 -13.766   5.122  1.00  0.00     0.169 HD
HETATM   19  O   UNL     1      43.361 -15.127   6.623  1.00  0.00    -0.273 OA
BRANCH  17  20
HETATM   20  C   UNL     1      41.409 -14.804   3.612  1.00  0.00     0.073 A 
HETATM   21  C   UNL     1      40.028 -14.776   3.454  1.00  0.00     0.033 A 
HETATM   22  C   UNL     1      39.458 -14.881   2.175  1.00  0.00     0.002 A 
HETATM   23  C   UNL     1      40.257 -15.006   1.041  1.00  0.00     0.003 A 
HETATM   24  C   UNL     1      41.640 -15.030   1.179  1.00  0.00     0.044 A 
HETATM   25  C   UNL     1      42.194 -14.930   2.451  1.00  0.00     0.143 A 
HETATM   26  F   UNL     1      43.531 -14.973   2.574  1.00  0.00    -0.204 F 
ENDBRANCH  17  20
ENDBRANCH  15  16
ENDBRANCH   1  15
TORSDOF 3
ENDMDL
MODEL 5
REMARK VINA RESULT:      -7.9      2.722      5.203
REMARK  3 active torsions:
REMARK  status: ('A' for Active; 'I' for Inactive)
REMARK    1  A    between atoms: C_3  and  N_4 
REMARK       I    between atoms: N_4  and  C_5 
REMARK    2  A    between atoms: C_5  and  C_6 
REMARK    3  A    between atoms: C_6  and  C_7 
ROOT
HETATM    1  C   UNL     1      43.749 -16.754   6.398  1.00  0.00     0.286 C 
HETATM    2  N   UNL     1      44.295 -17.587   5.232  1.00  0.00    -0.056 N 
HETATM    3  H   UNL     1      43.921 -17.201   4.344  1.00  0.00     0.278 HD
HETATM    4  H   UNL     1      45.316 -17.477   5.190  1.00  0.00     0.278 HD
HETATM    5  C   UNL     1      43.934 -19.050   5.272  1.00  0.00     0.209 C 
HETATM    6  C   UNL     1      44.267 -19.627   6.660  1.00  0.00     0.115 C 
HETATM    7  N   UNL     1      43.619 -18.870   7.718  1.00  0.00    -0.353 N 
HETATM    8  C   UNL     1      43.572 -17.502   7.730  1.00  0.00     0.249 C 
HETATM    9  O   UNL     1      43.351 -16.905   8.778  1.00  0.00    -0.271 OA
HETATM   10  C   UNL     1      44.683 -19.794   4.172  1.00  0.00     0.035 C 
HETATM   11  C   UNL     1      44.330 -21.282   4.210  1.00  0.00     0.002 C 
HETATM   12  C   UNL     1      44.559 -21.896   5.592  1.00  0.00     0.002 C 
HETATM   13  C   UNL     1      43.874 -21.105   6.707  1.00  0.00     0.027 C 
HETATM   14  H   UNL     1      43.564 -19.280   8.650  1.00  0.00     0.163 HD
ENDROOT
BRANCH   1  15
HETATM   15  C   UNL     1      42.489 -15.966   6.029  1.00  0.00     0.146 C 
BRANCH  15  16
HETATM   16  C   UNL     1      41.333 -16.873   5.741  1.00  0.00     0.224 C 
HETATM   17  N   UNL     1      40.891 -17.228   4.517  1.00  0.00    -0.325 N 
HETATM   18  H   UNL     1      40.079 -17.843   4.590  1.00  0.00     0.169 HD
HETATM   19  O   UNL     1      40.656 -17.222   6.722  1.00  0.00    -0.273 OA
BRANCH  17  20
HETATM   20  C   UNL     1      41.255 -16.981   3.177  1.00  0.00     0.073 A 
HETATM   21  C   UNL     1      42.126 -17.724   2.389  1.00  0.00     0.033 A 
HETATM   22  C   UNL     1      42.400 -17.330   1.069  1.00  0.00     0.002 A 
HETATM   23  C   UNL     1      41.802 -16.197   0.519  1.00  0.00     0.003 A 
HETATM   24  C   UNL     1      40.924 -15.446   1.290  1.00  0.00     0.044 A 
HETATM   25  C   UNL     1      40.664 -15.842   2.598  1.00  0.00     0.143 A 
HETATM   26  F   UNL     1      39.827 -15.098   3.340  1.00  0.00    -0.204 F 
ENDBRANCH  17  20
ENDBRANCH  15  16
ENDBRANCH   1  15
TORSDOF 3
ENDMDL
MODEL 6
REMARK VINA RESULT:      -7.8      3.146      4.184
REMARK  3 active torsions:
REMARK  status: ('A' for Active; 'I' for Inactive)
REMARK    1  A    between atoms: C_3  and  N_4 
REMARK       I    between atoms: N_4  and  C_5 
REMARK    2  A    between atoms: C_5  and  C_6 
REMARK    3  A    between atoms: C_6  and  C_7 
ROOT
HETATM    1  C   UNL     1      41.831 -16.305   2.711  1.00  0.00     0.286 C 
HETATM    2  N   UNL     1      41.691 -14.824   3.082  1.00  0.00    -0.056 N 
HETATM    3  H   UNL     1      41.978 -14.701   4.072  1.00  0.00     0.278 HD
HETATM    4  H   UNL     1      42.351 -14.273   2.517  1.00  0.00     0.278 HD
HETATM    5  C   UNL     1      40.299 -14.263   2.946  1.00  0.00     0.209 C 
HETATM    6  C   UNL     1      39.734 -14.613   1.556  1.00  0.00     0.115 C 
HETATM    7  N   UNL     1      39.777 -16.045   1.313  1.00  0.00    -0.353 N 
HETATM    8  C   UNL     1      40.858 -16.821   1.637  1.00  0.00     0.249 C 
HETATM    9  O   UNL     1      41.009 -17.916   1.106  1.00  0.00    -0.271 OA
HETATM   10  C   UNL     1      40.330 -12.755   3.163  1.00  0.00     0.035 C 
HETATM   11  C   UNL     1      38.922 -12.174   3.017  1.00  0.00     0.002 C 
HETATM   12  C   UNL     1      38.271 -12.560   1.688  1.00  0.00     0.002 C 
HETATM   13  C   UNL     1      38.310 -14.067   1.431  1.00  0.00     0.027 C 
HETATM   14  H   UNL     1      39.227 -16.429   0.545  1.00  0.00     0.163 HD
ENDROOT
BRANCH   1  15
HETATM   15  C   UNL     1      41.851 -17.227   3.934  1.00  0.00     0.146 C 
BRANCH  15  16
HETATM   16  C   UNL     1      43.221 -17.325   4.530  1.00  0.00     0.224 C 
HETATM   17  N   UNL     1      44.091 -18.339   4.352  1.00  0.00    -0.325 N 
HETATM   18  H   UNL     1      44.952 -18.175   4.879  1.00  0.00     0.169 HD
HETATM   19  O   UNL     1      43.518 -16.448   5.358  1.00  0.00    -0.273 OA
BRANCH  17  20
HETATM   20  C   UNL     1      44.130 -19.551   3.633  1.00  0.00     0.073 A 
HETATM   21  C   UNL     1      43.743 -19.763   2.314  1.00  0.00     0.033 A 
HETATM   22  C   UNL     1      43.826 -21.044   1.747  1.00  0.00     0.002 A 
HETATM   23  C   UNL     1      44.302 -22.126   2.485  1.00  0.00     0.003 A 
HETATM   24  C   UNL     1      44.699 -21.933   3.802  1.00  0.00     0.044 A 
HETATM   25  C   UNL     1      44.609 -20.660   4.356  1.00  0.00     0.143 A 
HETATM   26  F   UNL     1      44.979 -20.488   5.636  1.00  0.00    -0.204 F 
ENDBRANCH  17  20
ENDBRANCH  15  16
ENDBRANCH   1  15
TORSDOF 3
ENDMDL
MODEL 7
REMARK VINA RESULT:      -7.8      2.386      3.122
REMARK  3 active torsions:
REMARK  status: ('A' for Active; 'I' for Inactive)
REMARK    1  A    between atoms: C_3  and  N_4 
REMARK       I    between atoms: N_4  and  C_5 
REMARK    2  A    between atoms: C_5  and  C_6 
REMARK    3  A    between atoms: C_6  and  C_7 
ROOT
HETATM    1  C   UNL     1      40.969 -17.285   4.969  1.00  0.00     0.286 C 
HETATM    2  N   UNL     1      40.874 -17.763   3.515  1.00  0.00    -0.056 N 
HETATM    3  H   UNL     1      41.438 -18.628   3.412  1.00  0.00     0.278 HD
HETATM    4  H   UNL     1      39.901 -18.024   3.311  1.00  0.00     0.278 HD
HETATM    5  C   UNL     1      41.372 -16.778   2.488  1.00  0.00     0.209 C 
HETATM    6  C   UNL     1      40.726 -15.402   2.735  1.00  0.00     0.115 C 
HETATM    7  N   UNL     1      40.959 -14.945   4.095  1.00  0.00    -0.353 N 
HETATM    8  C   UNL     1      40.845 -15.767   5.184  1.00  0.00     0.249 C 
HETATM    9  O   UNL     1      40.691 -15.287   6.302  1.00  0.00    -0.271 OA
HETATM   10  C   UNL     1      41.055 -17.292   1.088  1.00  0.00     0.035 C 
HETATM   11  C   UNL     1      41.548 -16.294   0.039  1.00  0.00     0.002 C 
HETATM   12  C   UNL     1      41.008 -14.884   0.281  1.00  0.00     0.002 C 
HETATM   13  C   UNL     1      41.255 -14.398   1.709  1.00  0.00     0.027 C 
HETATM   14  H   UNL     1      40.793 -13.963   4.317  1.00  0.00     0.163 HD
ENDROOT
BRANCH   1  15
HETATM   15  C   UNL     1      42.185 -17.855   5.706  1.00  0.00     0.146 C 
BRANCH  15  16
HETATM   16  C   UNL     1      43.468 -17.451   5.050  1.00  0.00     0.224 C 
HETATM   17  N   UNL     1      44.325 -18.275   4.413  1.00  0.00    -0.325 N 
HETATM   18  H   UNL     1      45.136 -17.757   4.067  1.00  0.00     0.169 HD
HETATM   19  O   UNL     1      43.823 -16.274   5.226  1.00  0.00    -0.273 OA
BRANCH  17  20
HETATM   20  C   UNL     1      44.394 -19.647   4.096  1.00  0.00     0.073 A 
HETATM   21  C   UNL     1      44.709 -20.696   4.952  1.00  0.00     0.033 A 
HETATM   22  C   UNL     1      44.753 -22.015   4.471  1.00  0.00     0.002 A 
HETATM   23  C   UNL     1      44.476 -22.303   3.136  1.00  0.00     0.003 A 
HETATM   24  C   UNL     1      44.153 -21.267   2.268  1.00  0.00     0.044 A 
HETATM   25  C   UNL     1      44.116 -19.964   2.753  1.00  0.00     0.143 A 
HETATM   26  F   UNL     1      43.820 -18.969   1.900  1.00  0.00    -0.204 F 
ENDBRANCH  17  20
ENDBRANCH  15  16
ENDBRANCH   1  15
TORSDOF 3
ENDMDL
MODEL 8
REMARK VINA RESULT:      -7.7      2.854      5.569
REMARK  3 active torsions:
REMARK  status: ('A' for Active; 'I' for Inactive)
REMARK    1  A    between atoms: C_3  and  N_4 
REMARK       I    between atoms: N_4  and  C_5 
REMARK    2  A    between atoms: C_5  and  C_6 
REMARK    3  A    between atoms: C_6  and  C_7 
ROOT
HETATM    1  C   UNL     1      43.553 -16.549   4.761  1.00  0.00     0.286 C 
HETATM    2  N   UNL     1      43.858 -17.451   3.559  1.00  0.00    -0.056 N 
HETATM    3  H   UNL     1      43.167 -17.252   2.810  1.00  0.00     0.278 HD
HETATM    4  H   UNL     1      44.780 -17.203   3.179  1.00  0.00     0.278 HD
HETATM    5  C   UNL     1      43.795 -18.930   3.842  1.00  0.00     0.209 C 
HETATM    6  C   UNL     1      44.635 -19.253   5.092  1.00  0.00     0.115 C 
HETATM    7  N   UNL     1      44.215 -18.456   6.232  1.00  0.00    -0.353 N 
HETATM    8  C   UNL     1      43.929 -17.120   6.139  1.00  0.00     0.249 C 
HETATM    9  O   UNL     1      43.935 -16.419   7.145  1.00  0.00    -0.271 OA
HETATM   10  C   UNL     1      44.294 -19.707   2.629  1.00  0.00     0.035 C 
HETATM   11  C   UNL     1      44.244 -21.210   2.910  1.00  0.00     0.002 C 
HETATM   12  C   UNL     1      44.991 -21.585   4.191  1.00  0.00     0.002 C 
HETATM   13  C   UNL     1      44.548 -20.751   5.394  1.00  0.00     0.027 C 
HETATM   14  H   UNL     1      44.522 -18.734   7.164  1.00  0.00     0.163 HD
ENDROOT
BRANCH   1  15
HETATM   15  C   UNL     1      42.120 -16.009   4.753  1.00  0.00     0.146 C 
BRANCH  15  16
HETATM   16  C   UNL     1      41.144 -17.038   4.275  1.00  0.00     0.224 C 
HETATM   17  N   UNL     1      40.482 -17.015   3.100  1.00  0.00    -0.325 N 
HETATM   18  H   UNL     1      39.862 -17.824   3.018  1.00  0.00     0.169 HD
HETATM   19  O   UNL     1      40.832 -17.916   5.095  1.00  0.00    -0.273 OA
BRANCH  17  20
HETATM   20  C   UNL     1      40.425 -16.182   1.964  1.00  0.00     0.073 A 
HETATM   21  C   UNL     1      39.651 -15.041   1.791  1.00  0.00     0.033 A 
HETATM   22  C   UNL     1      39.695 -14.329   0.582  1.00  0.00     0.002 A 
HETATM   23  C   UNL     1      40.518 -14.741  -0.464  1.00  0.00     0.003 A 
HETATM   24  C   UNL     1      41.305 -15.875  -0.308  1.00  0.00     0.044 A 
HETATM   25  C   UNL     1      41.250 -16.576   0.893  1.00  0.00     0.143 A 
HETATM   26  F   UNL     1      42.001 -17.682   1.026  1.00  0.00    -0.204 F 
ENDBRANCH  17  20
ENDBRANCH  15  16
ENDBRANCH   1  15
TORSDOF 3
ENDMDL
MODEL 9
REMARK VINA RESULT:      -7.7      2.483      3.304
REMARK  3 active torsions:
REMARK  status: ('A' for Active; 'I' for Inactive)
REMARK    1  A    between atoms: C_3  and  N_4 
REMARK       I    between atoms: N_4  and  C_5 
REMARK    2  A    between atoms: C_5  and  C_6 
REMARK    3  A    between atoms: C_6  and  C_7 
ROOT
HETATM    1  C   UNL     1      42.453 -16.519   4.056  1.00  0.00     0.286 C 
HETATM    2  N   UNL     1      42.942 -15.211   4.691  1.00  0.00    -0.056 N 
HETATM    3  H   UNL     1      43.571 -15.441   5.483  1.00  0.00     0.278 HD
HETATM    4  H   UNL     1      43.511 -14.698   4.005  1.00  0.00     0.278 HD
HETATM    5  C   UNL     1      41.852 -14.320   5.229  1.00  0.00     0.209 C 
HETATM    6  C   UNL     1      40.766 -14.124   4.154  1.00  0.00     0.115 C 
HETATM    7  N   UNL     1      40.253 -15.399   3.682  1.00  0.00    -0.353 N 
HETATM    8  C   UNL     1      41.062 -16.468   3.403  1.00  0.00     0.249 C 
HETATM    9  O   UNL     1      40.655 -17.374   2.684  1.00  0.00    -0.271 OA
HETATM   10  C   UNL     1      42.447 -12.985   5.660  1.00  0.00     0.035 C 
HETATM   11  C   UNL     1      41.347 -12.069   6.199  1.00  0.00     0.002 C 
HETATM   12  C   UNL     1      40.194 -11.902   5.208  1.00  0.00     0.002 C 
HETATM   13  C   UNL     1      39.648 -13.242   4.712  1.00  0.00     0.027 C 
HETATM   14  H   UNL     1      39.381 -15.410   3.153  1.00  0.00     0.163 HD
ENDROOT
BRANCH   1  15
HETATM   15  C   UNL     1      42.586 -17.723   4.994  1.00  0.00     0.146 C 
BRANCH  15  16
HETATM   16  C   UNL     1      43.991 -17.892   5.482  1.00  0.00     0.224 C 
HETATM   17  N   UNL     1      44.782 -18.961   5.263  1.00  0.00    -0.325 N 
HETATM   18  H   UNL     1      45.690 -18.839   5.715  1.00  0.00     0.169 HD
HETATM   19  O   UNL     1      44.405 -17.018   6.261  1.00  0.00    -0.273 OA
BRANCH  17  20
HETATM   20  C   UNL     1      44.690 -20.188   4.574  1.00  0.00     0.073 A 
HETATM   21  C   UNL     1      44.737 -21.467   5.117  1.00  0.00     0.033 A 
HETATM   22  C   UNL     1      44.651 -22.595   4.285  1.00  0.00     0.002 A 
HETATM   23  C   UNL     1      44.508 -22.460   2.905  1.00  0.00     0.003 A 
HETATM   24  C   UNL     1      44.452 -21.190   2.345  1.00  0.00     0.044 A 
HETATM   25  C   UNL     1      44.544 -20.079   3.178  1.00  0.00     0.143 A 
HETATM   26  F   UNL     1      44.507 -18.856   2.623  1.00  0.00    -0.204 F 
ENDBRANCH  17  20
ENDBRANCH  15  16
ENDBRANCH   1  15
TORSDOF 3
ENDMDL
MODEL 10
REMARK VINA RESULT:      -7.5      2.869      3.732
REMARK  3 active torsions:
REMARK  status: ('A' for Active; 'I' for Inactive)
REMARK    1  A    between atoms: C_3  and  N_4 
REMARK       I    between atoms: N_4  and  C_5 
REMARK    2  A    between atoms: C_5  and  C_6 
REMARK    3  A    between atoms: C_6  and  C_7 
ROOT
HETATM    1  C   UNL     1      42.401 -15.248   3.692  1.00  0.00     0.286 C 
HETATM    2  N   UNL     1      40.915 -15.422   3.356  1.00  0.00    -0.056 N 
HETATM    3  H   UNL     1      40.710 -16.436   3.272  1.00  0.00     0.278 HD
HETATM    4  H   UNL     1      40.350 -15.074   4.141  1.00  0.00     0.278 HD
HETATM    5  C   UNL     1      40.474 -14.769   2.071  1.00  0.00     0.209 C 
HETATM    6  C   UNL     1      40.951 -13.305   2.045  1.00  0.00     0.115 C 
HETATM    7  N   UNL     1      42.388 -13.214   2.244  1.00  0.00    -0.353 N 
HETATM    8  C   UNL     1      43.056 -13.953   3.183  1.00  0.00     0.249 C 
HETATM    9  O   UNL     1      44.166 -13.600   3.566  1.00  0.00    -0.271 OA
HETATM   10  C   UNL     1      38.957 -14.855   1.946  1.00  0.00     0.035 C 
HETATM   11  C   UNL     1      38.498 -14.186   0.650  1.00  0.00     0.002 C 
HETATM   12  C   UNL     1      39.014 -12.752   0.523  1.00  0.00     0.002 C 
HETATM   13  C   UNL     1      40.526 -12.652   0.728  1.00  0.00     0.027 C 
HETATM   14  H   UNL     1      42.859 -12.338   2.016  1.00  0.00     0.163 HD
ENDROOT
BRANCH   1  15
HETATM   15  C   UNL     1      43.242 -16.477   3.333  1.00  0.00     0.146 C 
BRANCH  15  16
HETATM   16  C   UNL     1      43.700 -17.210   4.555  1.00  0.00     0.224 C 
HETATM   17  N   UNL     1      43.990 -18.525   4.627  1.00  0.00    -0.325 N 
HETATM   18  H   UNL     1      44.265 -18.784   5.577  1.00  0.00     0.169 HD
HETATM   19  O   UNL     1      43.686 -16.564   5.616  1.00  0.00    -0.273 OA
BRANCH  17  20
HETATM   20  C   UNL     1      44.022 -19.624   3.745  1.00  0.00     0.073 A 
HETATM   21  C   UNL     1      43.556 -19.669   2.436  1.00  0.00     0.033 A 
HETATM   22  C   UNL     1      43.644 -20.856   1.691  1.00  0.00     0.002 A 
HETATM   23  C   UNL     1      44.205 -22.008   2.240  1.00  0.00     0.003 A 
HETATM   24  C   UNL     1      44.681 -21.980   3.545  1.00  0.00     0.044 A 
HETATM   25  C   UNL     1      44.585 -20.800   4.275  1.00  0.00     0.143 A 
HETATM   26  F   UNL     1      45.033 -20.790   5.542  1.00  0.00    -0.204 F 
ENDBRANCH  17  20
ENDBRANCH  15  16
ENDBRANCH   1  15
TORSDOF 3
ENDMDL
