MODEL 1
REMARK VINA RESULT:      -8.3      0.000      0.000
REMARK  7 active torsions:
REMARK  status: ('A' for Active; 'I' for Inactive)
REMARK    1  A    between atoms: O_2  and  C_3 
REMARK    2  A    between atoms: C_4  and  N_5 
REMARK       I    between atoms: N_5  and  C_6 
REMARK    3  A    between atoms: C_6  and  C_7 
REMARK    4  A    between atoms: C_14  and  N_15 
REMARK       I    between atoms: N_15  and  C_16 
REMARK    5  A    between atoms: C_16  and  C_17 
REMARK    6  A    between atoms: C_17  and  C_18 
REMARK    7  A    between atoms: C_18  and  C_19 
ROOT
HETATM    1  C   UNL     1      39.770 -14.262   0.404  1.00  0.00     0.095 A 
HETATM    2  C   UNL     1      40.978 -14.832  -0.017  1.00  0.00     0.070 A 
HETATM    3  C   UNL     1      41.600 -15.777   0.821  1.00  0.00     0.062 A 
HETATM    4  C   UNL     1      41.008 -16.192   2.019  1.00  0.00     0.037 A 
HETATM    5  C   UNL     1      39.765 -15.663   2.378  1.00  0.00     0.032 A 
HETATM    6  C   UNL     1      39.146 -14.709   1.571  1.00  0.00     0.041 A 
ENDROOT
BRANCH   4   7
HETATM    7  N   UNL     1      41.602 -17.097   2.922  1.00  0.00    -0.327 N 
HETATM    8  C   UNL     1      42.439 -16.808   3.987  1.00  0.00     0.222 C 
HETATM    9  O   UNL     1      42.875 -15.702   4.291  1.00  0.00    -0.273 OA
HETATM   10  H   UNL     1      41.396 -18.075   2.758  1.00  0.00     0.169 HD
BRANCH   8  11
HETATM   11  C   UNL     1      42.761 -18.030   4.829  1.00  0.00     0.108 C 
BRANCH  11  12
HETATM   12  C   UNL     1      44.194 -18.526   4.610  1.00  0.00     0.047 C 
BRANCH  12  13
HETATM   13  C   UNL     1      44.299 -19.848   3.883  1.00  0.00    -0.058 A 
HETATM   14  C   UNL     1      43.869 -19.946   2.552  1.00  0.00     0.007 A 
HETATM   15  C   UNL     1      43.903 -21.170   1.878  1.00  0.00     0.001 A 
HETATM   16  C   UNL     1      44.362 -22.313   2.528  1.00  0.00     0.000 A 
HETATM   17  C   UNL     1      44.780 -22.235   3.854  1.00  0.00     0.001 A 
HETATM   18  C   UNL     1      44.738 -21.013   4.531  1.00  0.00     0.007 A 
ENDBRANCH  12  13
ENDBRANCH  11  12
ENDBRANCH   8  11
ENDBRANCH   4   7
BRANCH   2  19
HETATM   19  N   UNL     1      41.700 -14.473  -1.173  1.00  0.00    -0.319 N 
HETATM   20  C   UNL     1      41.318 -14.228  -2.475  1.00  0.00     0.280 C 
HETATM   21  O   UNL     1      42.037 -13.454  -3.115  1.00  0.00    -0.265 OA
HETATM   22  H   UNL     1      42.669 -14.216  -1.029  1.00  0.00     0.169 HD
BRANCH  20  23
HETATM   23  C   UNL     1      40.221 -14.952  -3.083  1.00  0.00     0.142 A 
HETATM   24  O   UNL     1      39.094 -14.239  -3.413  1.00  0.00    -0.317 OA
HETATM   25  C   UNL     1      38.221 -15.095  -3.997  1.00  0.00     0.143 A 
HETATM   26  C   UNL     1      38.760 -16.355  -4.073  1.00  0.00     0.027 A 
HETATM   27  C   UNL     1      40.052 -16.263  -3.499  1.00  0.00     0.045 A 
ENDBRANCH  20  23
ENDBRANCH   2  19
BRANCH   1  28
HETATM   28  O   UNL     1      39.150 -13.237  -0.254  1.00  0.00    -0.354 OA
HETATM   29  C   UNL     1      37.737 -13.286  -0.046  1.00  0.00     0.210 C 
ENDBRANCH   1  28
TORSDOF 7
ENDMDL
MODEL 2
REMARK VINA RESULT:      -8.3      1.419      2.374
REMARK  7 active torsions:
REMARK  status: ('A' for Active; 'I' for Inactive)
REMARK    1  A    between atoms: O_2  and  C_3 
REMARK    2  A    between atoms: C_4  and  N_5 
REMARK       I    between atoms: N_5  and  C_6 
REMARK    3  A    between atoms: C_6  and  C_7 
REMARK    4  A    between atoms: C_14  and  N_15 
REMARK       I    between atoms: N_15  and  C_16 
REMARK    5  A    between atoms: C_16  and  C_17 
REMARK    6  A    between atoms: C_17  and  C_18 
REMARK    7  A    between atoms: C_18  and  C_19 
ROOT
HETATM    1  C   UNL     1      40.337 -14.467   0.629  1.00  0.00     0.095 A 
HETATM    2  C   UNL     1      41.226 -15.009  -0.307  1.00  0.00     0.070 A 
HETATM    3  C   UNL     1      41.783 -16.275  -0.046  1.00  0.00     0.062 A 
HETATM    4  C   UNL     1      41.422 -17.012   1.087  1.00  0.00     0.037 A 
HETATM    5  C   UNL     1      40.474 -16.480   1.967  1.00  0.00     0.032 A 
HETATM    6  C   UNL     1      39.929 -15.218   1.735  1.00  0.00     0.041 A 
ENDROOT
BRANCH   4   7
HETATM    7  N   UNL     1      41.978 -18.262   1.428  1.00  0.00    -0.327 N 
HETATM    8  C   UNL     1      43.309 -18.561   1.671  1.00  0.00     0.222 C 
HETATM    9  O   UNL     1      44.259 -17.793   1.560  1.00  0.00    -0.273 OA
HETATM   10  H   UNL     1      41.321 -19.031   1.489  1.00  0.00     0.169 HD
BRANCH   8  11
HETATM   11  C   UNL     1      43.511 -19.985   2.160  1.00  0.00     0.108 C 
BRANCH  11  12
HETATM   12  C   UNL     1      44.727 -20.117   3.082  1.00  0.00     0.047 C 
BRANCH  12  13
HETATM   13  C   UNL     1      44.408 -20.045   4.559  1.00  0.00    -0.058 A 
HETATM   14  C   UNL     1      44.420 -21.216   5.330  1.00  0.00     0.007 A 
HETATM   15  C   UNL     1      44.073 -21.182   6.684  1.00  0.00     0.001 A 
HETATM   16  C   UNL     1      43.705 -19.980   7.281  1.00  0.00     0.000 A 
HETATM   17  C   UNL     1      43.675 -18.811   6.526  1.00  0.00     0.001 A 
HETATM   18  C   UNL     1      44.014 -18.845   5.171  1.00  0.00     0.007 A 
ENDBRANCH  12  13
ENDBRANCH  11  12
ENDBRANCH   8  11
ENDBRANCH   4   7
BRANCH   2  19
HETATM   19  N   UNL     1      41.706 -14.357  -1.461  1.00  0.00    -0.319 N 
HETATM   20  C   UNL     1      41.082 -13.887  -2.597  1.00  0.00     0.280 C 
HETATM   21  O   UNL     1      41.631 -12.936  -3.163  1.00  0.00    -0.265 OA
HETATM   22  H   UNL     1      42.671 -14.049  -1.427  1.00  0.00     0.169 HD
BRANCH  20  23
HETATM   23  C   UNL     1      39.933 -14.568  -3.157  1.00  0.00     0.142 A 
HETATM   24  O   UNL     1      40.160 -15.730  -3.853  1.00  0.00    -0.317 OA
HETATM   25  C   UNL     1      38.959 -16.214  -4.250  1.00  0.00     0.143 A 
HETATM   26  C   UNL     1      37.943 -15.401  -3.812  1.00  0.00     0.027 A 
HETATM   27  C   UNL     1      38.566 -14.348  -3.096  1.00  0.00     0.045 A 
ENDBRANCH  20  23
ENDBRANCH   2  19
BRANCH   1  28
HETATM   28  O   UNL     1      39.845 -13.194   0.553  1.00  0.00    -0.354 OA
HETATM   29  C   UNL     1      38.428 -13.211   0.369  1.00  0.00     0.210 C 
ENDBRANCH   1  28
TORSDOF 7
ENDMDL
MODEL 3
REMARK VINA RESULT:      -8.2      3.892      6.911
REMARK  7 active torsions:
REMARK  status: ('A' for Active; 'I' for Inactive)
REMARK    1  A    between atoms: O_2  and  C_3 
REMARK    2  A    between atoms: C_4  and  N_5 
REMARK       I    between atoms: N_5  and  C_6 
REMARK    3  A    between atoms: C_6  and  C_7 
REMARK    4  A    between atoms: C_14  and  N_15 
REMARK       I    between atoms: N_15  and  C_16 
REMARK    5  A    between atoms: C_16  and  C_17 
REMARK    6  A    between atoms: C_17  and  C_18 
REMARK    7  A    between atoms: C_18  and  C_19 
ROOT
HETATM    1  C   UNL     1      40.936 -13.652   5.402  1.00  0.00     0.095 A 
HETATM    2  C   UNL     1      42.146 -14.313   5.646  1.00  0.00     0.070 A 
HETATM    3  C   UNL     1      42.427 -15.484   4.919  1.00  0.00     0.062 A 
HETATM    4  C   UNL     1      41.557 -15.956   3.930  1.00  0.00     0.037 A 
HETATM    5  C   UNL     1      40.392 -15.235   3.653  1.00  0.00     0.032 A 
HETATM    6  C   UNL     1      40.087 -14.084   4.380  1.00  0.00     0.041 A 
ENDROOT
BRANCH   4   7
HETATM    7  N   UNL     1      41.758 -17.146   3.201  1.00  0.00    -0.327 N 
HETATM    8  C   UNL     1      42.306 -17.285   1.936  1.00  0.00     0.222 C 
HETATM    9  O   UNL     1      42.649 -16.376   1.188  1.00  0.00    -0.273 OA
HETATM   10  H   UNL     1      41.453 -17.996   3.660  1.00  0.00     0.169 HD
BRANCH   8  11
HETATM   11  C   UNL     1      42.503 -18.737   1.538  1.00  0.00     0.108 C 
BRANCH  11  12
HETATM   12  C   UNL     1      43.966 -19.178   1.648  1.00  0.00     0.047 C 
BRANCH  12  13
HETATM   13  C   UNL     1      44.215 -20.294   2.637  1.00  0.00    -0.058 A 
HETATM   14  C   UNL     1      44.484 -19.987   3.978  1.00  0.00     0.007 A 
HETATM   15  C   UNL     1      44.774 -20.998   4.899  1.00  0.00     0.001 A 
HETATM   16  C   UNL     1      44.804 -22.328   4.489  1.00  0.00     0.000 A 
HETATM   17  C   UNL     1      44.553 -22.649   3.157  1.00  0.00     0.001 A 
HETATM   18  C   UNL     1      44.272 -21.638   2.235  1.00  0.00     0.007 A 
ENDBRANCH  12  13
ENDBRANCH  11  12
ENDBRANCH   8  11
ENDBRANCH   4   7
BRANCH   2  19
HETATM   19  N   UNL     1      43.086 -13.971   6.640  1.00  0.00    -0.319 N 
HETATM   20  C   UNL     1      44.150 -14.651   7.193  1.00  0.00     0.280 C 
HETATM   21  O   UNL     1      45.072 -13.954   7.628  1.00  0.00    -0.265 OA
HETATM   22  H   UNL     1      43.084 -13.003   6.938  1.00  0.00     0.169 HD
BRANCH  20  23
HETATM   23  C   UNL     1      44.110 -16.088   7.373  1.00  0.00     0.142 A 
HETATM   24  O   UNL     1      45.038 -16.839   6.694  1.00  0.00    -0.317 OA
HETATM   25  C   UNL     1      44.846 -18.137   7.034  1.00  0.00     0.143 A 
HETATM   26  C   UNL     1      43.820 -18.250   7.940  1.00  0.00     0.027 A 
HETATM   27  C   UNL     1      43.354 -16.932   8.170  1.00  0.00     0.045 A 
ENDBRANCH  20  23
ENDBRANCH   2  19
BRANCH   1  28
HETATM   28  O   UNL     1      40.493 -12.591   6.142  1.00  0.00    -0.354 OA
HETATM   29  C   UNL     1      39.133 -12.287   5.823  1.00  0.00     0.210 C 
ENDBRANCH   1  28
TORSDOF 7
ENDMDL
MODEL 4
REMARK VINA RESULT:      -8.2      0.845      1.380
REMARK  7 active torsions:
REMARK  status: ('A' for Active; 'I' for Inactive)
REMARK    1  A    between atoms: O_2  and  C_3 
REMARK    2  A    between atoms: C_4  and  N_5 
REMARK       I    between atoms: N_5  and  C_6 
REMARK    3  A    between atoms: C_6  and  C_7 
REMARK    4  A    between atoms: C_14  and  N_15 
REMARK       I    between atoms: N_15  and  C_16 
REMARK    5  A    between atoms: C_16  and  C_17 
REMARK    6  A    between atoms: C_17  and  C_18 
REMARK    7  A    between atoms: C_18  and  C_19 
ROOT
HETATM    1  C   UNL     1      39.215 -13.755   0.237  1.00  0.00     0.095 A 
HETATM    2  C   UNL     1      40.426 -14.281  -0.230  1.00  0.00     0.070 A 
HETATM    3  C   UNL     1      41.071 -15.263   0.545  1.00  0.00     0.062 A 
HETATM    4  C   UNL     1      40.500 -15.755   1.724  1.00  0.00     0.037 A 
HETATM    5  C   UNL     1      39.254 -15.266   2.127  1.00  0.00     0.032 A 
HETATM    6  C   UNL     1      38.611 -14.277   1.383  1.00  0.00     0.041 A 
ENDROOT
BRANCH   4   7
HETATM    7  N   UNL     1      41.118 -16.701   2.567  1.00  0.00    -0.327 N 
HETATM    8  C   UNL     1      42.061 -16.471   3.554  1.00  0.00     0.222 C 
HETATM    9  O   UNL     1      42.585 -15.395   3.823  1.00  0.00    -0.273 OA
HETATM   10  H   UNL     1      40.842 -17.664   2.417  1.00  0.00     0.169 HD
BRANCH   8  11
HETATM   11  C   UNL     1      42.385 -17.718   4.359  1.00  0.00     0.108 C 
BRANCH  11  12
HETATM   12  C   UNL     1      43.835 -18.174   4.167  1.00  0.00     0.047 C 
BRANCH  12  13
HETATM   13  C   UNL     1      43.987 -19.571   3.607  1.00  0.00    -0.058 A 
HETATM   14  C   UNL     1      44.611 -20.563   4.375  1.00  0.00     0.007 A 
HETATM   15  C   UNL     1      44.814 -21.846   3.857  1.00  0.00     0.001 A 
HETATM   16  C   UNL     1      44.400 -22.150   2.563  1.00  0.00     0.000 A 
HETATM   17  C   UNL     1      43.791 -21.171   1.782  1.00  0.00     0.001 A 
HETATM   18  C   UNL     1      43.595 -19.886   2.296  1.00  0.00     0.007 A 
ENDBRANCH  12  13
ENDBRANCH  11  12
ENDBRANCH   8  11
ENDBRANCH   4   7
BRANCH   2  19
HETATM   19  N   UNL     1      41.128 -13.845  -1.371  1.00  0.00    -0.319 N 
HETATM   20  C   UNL     1      40.741 -13.608  -2.673  1.00  0.00     0.280 C 
HETATM   21  O   UNL     1      41.402 -12.767  -3.291  1.00  0.00    -0.265 OA
HETATM   22  H   UNL     1      42.072 -13.514  -1.211  1.00  0.00     0.169 HD
BRANCH  20  23
HETATM   23  C   UNL     1      39.711 -14.407  -3.306  1.00  0.00     0.142 A 
HETATM   24  O   UNL     1      40.083 -15.621  -3.831  1.00  0.00    -0.317 OA
HETATM   25  C   UNL     1      38.971 -16.210  -4.332  1.00  0.00     0.143 A 
HETATM   26  C   UNL     1      37.870 -15.414  -4.129  1.00  0.00     0.027 A 
HETATM   27  C   UNL     1      38.342 -14.259  -3.457  1.00  0.00     0.045 A 
ENDBRANCH  20  23
ENDBRANCH   2  19
BRANCH   1  28
HETATM   28  O   UNL     1      38.572 -12.702  -0.354  1.00  0.00    -0.354 OA
HETATM   29  C   UNL     1      38.926 -11.473   0.284  1.00  0.00     0.210 C 
ENDBRANCH   1  28
TORSDOF 7
ENDMDL
MODEL 5
REMARK VINA RESULT:      -7.9      2.133      8.618
REMARK  7 active torsions:
REMARK  status: ('A' for Active; 'I' for Inactive)
REMARK    1  A    between atoms: O_2  and  C_3 
REMARK    2  A    between atoms: C_4  and  N_5 
REMARK       I    between atoms: N_5  and  C_6 
REMARK    3  A    between atoms: C_6  and  C_7 
REMARK    4  A    between atoms: C_14  and  N_15 
REMARK       I    between atoms: N_15  and  C_16 
REMARK    5  A    between atoms: C_16  and  C_17 
REMARK    6  A    between atoms: C_17  and  C_18 
REMARK    7  A    between atoms: C_18  and  C_19 
ROOT
HETATM    1  C   UNL     1      43.461 -18.782   3.345  1.00  0.00     0.095 A 
HETATM    2  C   UNL     1      42.409 -17.915   3.663  1.00  0.00     0.070 A 
HETATM    3  C   UNL     1      42.077 -16.902   2.744  1.00  0.00     0.062 A 
HETATM    4  C   UNL     1      42.732 -16.788   1.513  1.00  0.00     0.037 A 
HETATM    5  C   UNL     1      43.728 -17.714   1.189  1.00  0.00     0.032 A 
HETATM    6  C   UNL     1      44.085 -18.711   2.097  1.00  0.00     0.041 A 
ENDROOT
BRANCH   4   7
HETATM    7  N   UNL     1      42.478 -15.769   0.573  1.00  0.00    -0.327 N 
HETATM    8  C   UNL     1      41.294 -15.080   0.367  1.00  0.00     0.222 C 
HETATM    9  O   UNL     1      40.223 -15.290   0.926  1.00  0.00    -0.273 OA
HETATM   10  H   UNL     1      43.256 -15.526  -0.028  1.00  0.00     0.169 HD
BRANCH   8  11
HETATM   11  C   UNL     1      41.442 -13.946  -0.633  1.00  0.00     0.108 C 
BRANCH  11  12
HETATM   12  C   UNL     1      41.454 -14.444  -2.081  1.00  0.00     0.047 C 
BRANCH  12  13
HETATM   13  C   UNL     1      40.088 -14.763  -2.649  1.00  0.00    -0.058 A 
HETATM   14  C   UNL     1      39.941 -15.831  -3.545  1.00  0.00     0.007 A 
HETATM   15  C   UNL     1      38.700 -16.109  -4.126  1.00  0.00     0.001 A 
HETATM   16  C   UNL     1      37.594 -15.320  -3.823  1.00  0.00     0.000 A 
HETATM   17  C   UNL     1      37.727 -14.247  -2.945  1.00  0.00     0.001 A 
HETATM   18  C   UNL     1      38.969 -13.963  -2.370  1.00  0.00     0.007 A 
ENDBRANCH  12  13
ENDBRANCH  11  12
ENDBRANCH   8  11
ENDBRANCH   4   7
BRANCH   2  19
HETATM   19  N   UNL     1      41.699 -17.891   4.880  1.00  0.00    -0.319 N 
HETATM   20  C   UNL     1      41.560 -16.934   5.862  1.00  0.00     0.280 C 
HETATM   21  O   UNL     1      40.512 -16.974   6.515  1.00  0.00    -0.265 OA
HETATM   22  H   UNL     1      41.058 -18.661   5.035  1.00  0.00     0.169 HD
BRANCH  20  23
HETATM   23  C   UNL     1      42.647 -16.034   6.191  1.00  0.00     0.142 A 
HETATM   24  O   UNL     1      42.631 -14.785   5.621  1.00  0.00    -0.317 OA
HETATM   25  C   UNL     1      43.705 -14.104   6.091  1.00  0.00     0.143 A 
HETATM   26  C   UNL     1      44.417 -14.879   6.974  1.00  0.00     0.027 A 
HETATM   27  C   UNL     1      43.731 -16.116   7.051  1.00  0.00     0.045 A 
ENDBRANCH  20  23
ENDBRANCH   2  19
BRANCH   1  28
HETATM   28  O   UNL     1      43.964 -19.709   4.215  1.00  0.00    -0.354 OA
HETATM   29  C   UNL     1      44.779 -20.659   3.525  1.00  0.00     0.210 C 
ENDBRANCH   1  28
TORSDOF 7
ENDMDL
MODEL 6
REMARK VINA RESULT:      -7.8      1.715      2.476
REMARK  7 active torsions:
REMARK  status: ('A' for Active; 'I' for Inactive)
REMARK    1  A    between atoms: O_2  and  C_3 
REMARK    2  A    between atoms: C_4  and  N_5 
REMARK       I    between atoms: N_5  and  C_6 
REMARK    3  A    between atoms: C_6  and  C_7 
REMARK    4  A    between atoms: C_14  and  N_15 
REMARK       I    between atoms: N_15  and  C_16 
REMARK    5  A    between atoms: C_16  and  C_17 
REMARK    6  A    between atoms: C_17  and  C_18 
REMARK    7  A    between atoms: C_18  and  C_19 
ROOT
HETATM    1  C   UNL     1      39.440 -13.118  -0.093  1.00  0.00     0.095 A 
HETATM    2  C   UNL     1      39.957 -14.357  -0.490  1.00  0.00     0.070 A 
HETATM    3  C   UNL     1      40.687 -15.108   0.450  1.00  0.00     0.062 A 
HETATM    4  C   UNL     1      40.851 -14.669   1.768  1.00  0.00     0.037 A 
HETATM    5  C   UNL     1      40.260 -13.464   2.158  1.00  0.00     0.032 A 
HETATM    6  C   UNL     1      39.552 -12.696   1.234  1.00  0.00     0.041 A 
ENDROOT
BRANCH   4   7
HETATM    7  N   UNL     1      41.610 -15.352   2.741  1.00  0.00    -0.327 N 
HETATM    8  C   UNL     1      42.855 -15.009   3.241  1.00  0.00     0.222 C 
HETATM    9  O   UNL     1      43.558 -14.077   2.866  1.00  0.00    -0.273 OA
HETATM   10  H   UNL     1      41.192 -16.201   3.104  1.00  0.00     0.169 HD
BRANCH   8  11
HETATM   11  C   UNL     1      43.293 -15.902   4.389  1.00  0.00     0.108 C 
BRANCH  11  12
HETATM   12  C   UNL     1      42.512 -17.220   4.431  1.00  0.00     0.047 C 
BRANCH  12  13
HETATM   13  C   UNL     1      43.239 -18.402   3.829  1.00  0.00    -0.058 A 
HETATM   14  C   UNL     1      42.945 -18.805   2.519  1.00  0.00     0.007 A 
HETATM   15  C   UNL     1      43.562 -19.929   1.962  1.00  0.00     0.001 A 
HETATM   16  C   UNL     1      44.476 -20.667   2.709  1.00  0.00     0.000 A 
HETATM   17  C   UNL     1      44.768 -20.287   4.017  1.00  0.00     0.001 A 
HETATM   18  C   UNL     1      44.146 -19.169   4.578  1.00  0.00     0.007 A 
ENDBRANCH  12  13
ENDBRANCH  11  12
ENDBRANCH   8  11
ENDBRANCH   4   7
BRANCH   2  19
HETATM   19  N   UNL     1      39.903 -14.894  -1.792  1.00  0.00    -0.319 N 
HETATM   20  C   UNL     1      40.684 -14.708  -2.912  1.00  0.00     0.280 C 
HETATM   21  O   UNL     1      40.731 -15.655  -3.704  1.00  0.00    -0.265 OA
HETATM   22  H   UNL     1      39.254 -15.660  -1.929  1.00  0.00     0.169 HD
BRANCH  20  23
HETATM   23  C   UNL     1      41.290 -13.424  -3.198  1.00  0.00     0.142 A 
HETATM   24  O   UNL     1      40.558 -12.526  -3.936  1.00  0.00    -0.317 OA
HETATM   25  C   UNL     1      41.290 -11.392  -4.050  1.00  0.00     0.143 A 
HETATM   26  C   UNL     1      42.484 -11.521  -3.385  1.00  0.00     0.027 A 
HETATM   27  C   UNL     1      42.481 -12.822  -2.824  1.00  0.00     0.045 A 
ENDBRANCH  20  23
ENDBRANCH   2  19
BRANCH   1  28
HETATM   28  O   UNL     1      38.839 -12.240  -0.953  1.00  0.00    -0.354 OA
HETATM   29  C   UNL     1      39.440 -10.947  -0.855  1.00  0.00     0.210 C 
ENDBRANCH   1  28
TORSDOF 7
ENDMDL
MODEL 7
REMARK VINA RESULT:      -7.6      2.586      9.011
REMARK  7 active torsions:
REMARK  status: ('A' for Active; 'I' for Inactive)
REMARK    1  A    between atoms: O_2  and  C_3 
REMARK    2  A    between atoms: C_4  and  N_5 
REMARK       I    between atoms: N_5  and  C_6 
REMARK    3  A    between atoms: C_6  and  C_7 
REMARK    4  A    between atoms: C_14  and  N_15 
REMARK       I    between atoms: N_15  and  C_16 
REMARK    5  A    between atoms: C_16  and  C_17 
REMARK    6  A    between atoms: C_17  and  C_18 
REMARK    7  A    between atoms: C_18  and  C_19 
ROOT
HETATM    1  C   UNL     1      43.566 -18.348   3.402  1.00  0.00     0.095 A 
HETATM    2  C   UNL     1      42.276 -17.828   3.561  1.00  0.00     0.070 A 
HETATM    3  C   UNL     1      41.667 -17.203   2.457  1.00  0.00     0.062 A 
HETATM    4  C   UNL     1      42.298 -17.147   1.209  1.00  0.00     0.037 A 
HETATM    5  C   UNL     1      43.554 -17.742   1.059  1.00  0.00     0.032 A 
HETATM    6  C   UNL     1      44.181 -18.346   2.148  1.00  0.00     0.041 A 
ENDROOT
BRANCH   4   7
HETATM    7  N   UNL     1      41.761 -16.495   0.080  1.00  0.00    -0.327 N 
HETATM    8  C   UNL     1      41.610 -15.133  -0.121  1.00  0.00     0.222 C 
HETATM    9  O   UNL     1      41.853 -14.246   0.690  1.00  0.00    -0.273 OA
HETATM   10  H   UNL     1      41.439 -17.103  -0.663  1.00  0.00     0.169 HD
BRANCH   8  11
HETATM   11  C   UNL     1      41.133 -14.796  -1.523  1.00  0.00     0.108 C 
BRANCH  11  12
HETATM   12  C   UNL     1      40.468 -13.418  -1.597  1.00  0.00     0.047 C 
BRANCH  12  13
HETATM   13  C   UNL     1      41.273 -12.368  -2.329  1.00  0.00    -0.058 A 
HETATM   14  C   UNL     1      41.960 -11.387  -1.602  1.00  0.00     0.007 A 
HETATM   15  C   UNL     1      42.664 -10.373  -2.259  1.00  0.00     0.001 A 
HETATM   16  C   UNL     1      42.685 -10.325  -3.650  1.00  0.00     0.000 A 
HETATM   17  C   UNL     1      41.996 -11.285  -4.387  1.00  0.00     0.001 A 
HETATM   18  C   UNL     1      41.285 -12.294  -3.731  1.00  0.00     0.007 A 
ENDBRANCH  12  13
ENDBRANCH  11  12
ENDBRANCH   8  11
ENDBRANCH   4   7
BRANCH   2  19
HETATM   19  N   UNL     1      41.550 -17.778   4.768  1.00  0.00    -0.319 N 
HETATM   20  C   UNL     1      41.447 -16.823   5.757  1.00  0.00     0.280 C 
HETATM   21  O   UNL     1      40.388 -16.813   6.393  1.00  0.00    -0.265 OA
HETATM   22  H   UNL     1      40.868 -18.514   4.906  1.00  0.00     0.169 HD
BRANCH  20  23
HETATM   23  C   UNL     1      42.575 -15.984   6.111  1.00  0.00     0.142 A 
HETATM   24  O   UNL     1      42.550 -14.677   5.690  1.00  0.00    -0.317 OA
HETATM   25  C   UNL     1      43.669 -14.073   6.158  1.00  0.00     0.143 A 
HETATM   26  C   UNL     1      44.420 -14.955   6.895  1.00  0.00     0.027 A 
HETATM   27  C   UNL     1      43.711 -16.181   6.878  1.00  0.00     0.045 A 
ENDBRANCH  20  23
ENDBRANCH   2  19
BRANCH   1  28
HETATM   28  O   UNL     1      44.310 -18.849   4.435  1.00  0.00    -0.354 OA
HETATM   29  C   UNL     1      44.768 -20.170   4.133  1.00  0.00     0.210 C 
ENDBRANCH   1  28
TORSDOF 7
ENDMDL
MODEL 8
REMARK VINA RESULT:      -7.5      2.879      4.215
REMARK  7 active torsions:
REMARK  status: ('A' for Active; 'I' for Inactive)
REMARK    1  A    between atoms: O_2  and  C_3 
REMARK    2  A    between atoms: C_4  and  N_5 
REMARK       I    between atoms: N_5  and  C_6 
REMARK    3  A    between atoms: C_6  and  C_7 
REMARK    4  A    between atoms: C_14  and  N_15 
REMARK       I    between atoms: N_15  and  C_16 
REMARK    5  A    between atoms: C_16  and  C_17 
REMARK    6  A    between atoms: C_17  and  C_18 
REMARK    7  A    between atoms: C_18  and  C_19 
ROOT
HETATM    1  C   UNL     1      41.102 -13.112   4.867  1.00  0.00     0.095 A 
HETATM    2  C   UNL     1      40.625 -14.320   4.345  1.00  0.00     0.070 A 
HETATM    3  C   UNL     1      41.361 -15.493   4.595  1.00  0.00     0.062 A 
HETATM    4  C   UNL     1      42.511 -15.479   5.393  1.00  0.00     0.037 A 
HETATM    5  C   UNL     1      42.922 -14.271   5.964  1.00  0.00     0.032 A 
HETATM    6  C   UNL     1      42.217 -13.095   5.708  1.00  0.00     0.041 A 
ENDROOT
BRANCH   4   7
HETATM    7  N   UNL     1      43.316 -16.609   5.641  1.00  0.00    -0.327 N 
HETATM    8  C   UNL     1      43.228 -17.498   6.700  1.00  0.00     0.222 C 
HETATM    9  O   UNL     1      42.470 -17.414   7.660  1.00  0.00    -0.273 OA
HETATM   10  H   UNL     1      44.052 -16.778   4.966  1.00  0.00     0.169 HD
BRANCH   8  11
HETATM   11  C   UNL     1      44.169 -18.681   6.552  1.00  0.00     0.108 C 
BRANCH  11  12
HETATM   12  C   UNL     1      44.813 -18.742   5.163  1.00  0.00     0.047 C 
BRANCH  12  13
HETATM   13  C   UNL     1      44.673 -20.075   4.461  1.00  0.00    -0.058 A 
HETATM   14  C   UNL     1      44.741 -21.262   5.204  1.00  0.00     0.007 A 
HETATM   15  C   UNL     1      44.671 -22.506   4.570  1.00  0.00     0.001 A 
HETATM   16  C   UNL     1      44.539 -22.578   3.186  1.00  0.00     0.000 A 
HETATM   17  C   UNL     1      44.484 -21.409   2.433  1.00  0.00     0.001 A 
HETATM   18  C   UNL     1      44.562 -20.165   3.065  1.00  0.00     0.007 A 
ENDBRANCH  12  13
ENDBRANCH  11  12
ENDBRANCH   8  11
ENDBRANCH   4   7
BRANCH   2  19
HETATM   19  N   UNL     1      39.512 -14.468   3.493  1.00  0.00    -0.319 N 
HETATM   20  C   UNL     1      39.396 -14.692   2.138  1.00  0.00     0.280 C 
HETATM   21  O   UNL     1      38.374 -15.281   1.771  1.00  0.00    -0.265 OA
HETATM   22  H   UNL     1      38.612 -14.556   3.951  1.00  0.00     0.169 HD
BRANCH  20  23
HETATM   23  C   UNL     1      40.353 -14.138   1.202  1.00  0.00     0.142 A 
HETATM   24  O   UNL     1      40.572 -12.783   1.245  1.00  0.00    -0.317 OA
HETATM   25  C   UNL     1      41.521 -12.489   0.324  1.00  0.00     0.143 A 
HETATM   26  C   UNL     1      41.943 -13.631  -0.313  1.00  0.00     0.027 A 
HETATM   27  C   UNL     1      41.203 -14.695   0.260  1.00  0.00     0.045 A 
ENDBRANCH  20  23
ENDBRANCH   2  19
BRANCH   1  28
HETATM   28  O   UNL     1      40.553 -11.894   4.574  1.00  0.00    -0.354 OA
HETATM   29  C   UNL     1      39.658 -11.482   5.610  1.00  0.00     0.210 C 
ENDBRANCH   1  28
TORSDOF 7
ENDMDL
MODEL 9
REMARK VINA RESULT:      -7.4      2.221      2.731
REMARK  7 active torsions:
REMARK  status: ('A' for Active; 'I' for Inactive)
REMARK    1  A    between atoms: O_2  and  C_3 
REMARK    2  A    between atoms: C_4  and  N_5 
REMARK       I    between atoms: N_5  and  C_6 
REMARK    3  A    between atoms: C_6  and  C_7 
REMARK    4  A    between atoms: C_14  and  N_15 
REMARK       I    between atoms: N_15  and  C_16 
REMARK    5  A    between atoms: C_16  and  C_17 
REMARK    6  A    between atoms: C_17  and  C_18 
REMARK    7  A    between atoms: C_18  and  C_19 
ROOT
HETATM    1  C   UNL     1      40.652 -12.909   3.456  1.00  0.00     0.095 A 
HETATM    2  C   UNL     1      41.777 -13.337   2.739  1.00  0.00     0.070 A 
HETATM    3  C   UNL     1      42.347 -14.580   3.070  1.00  0.00     0.062 A 
HETATM    4  C   UNL     1      41.782 -15.406   4.048  1.00  0.00     0.037 A 
HETATM    5  C   UNL     1      40.616 -14.988   4.695  1.00  0.00     0.032 A 
HETATM    6  C   UNL     1      40.050 -13.750   4.395  1.00  0.00     0.041 A 
ENDROOT
BRANCH   4   7
HETATM    7  N   UNL     1      42.333 -16.638   4.456  1.00  0.00    -0.327 N 
HETATM    8  C   UNL     1      42.750 -17.002   5.726  1.00  0.00     0.222 C 
HETATM    9  O   UNL     1      42.781 -16.280   6.717  1.00  0.00    -0.273 OA
HETATM   10  H   UNL     1      42.445 -17.330   3.725  1.00  0.00     0.169 HD
BRANCH   8  11
HETATM   11  C   UNL     1      43.149 -18.465   5.816  1.00  0.00     0.108 C 
BRANCH  11  12
HETATM   12  C   UNL     1      44.450 -18.760   5.062  1.00  0.00     0.047 C 
BRANCH  12  13
HETATM   13  C   UNL     1      44.340 -19.851   4.020  1.00  0.00    -0.058 A 
HETATM   14  C   UNL     1      43.734 -19.575   2.786  1.00  0.00     0.007 A 
HETATM   15  C   UNL     1      43.570 -20.582   1.830  1.00  0.00     0.001 A 
HETATM   16  C   UNL     1      44.003 -21.878   2.098  1.00  0.00     0.000 A 
HETATM   17  C   UNL     1      44.595 -22.171   3.324  1.00  0.00     0.001 A 
HETATM   18  C   UNL     1      44.752 -21.167   4.284  1.00  0.00     0.007 A 
ENDBRANCH  12  13
ENDBRANCH  11  12
ENDBRANCH   8  11
ENDBRANCH   4   7
BRANCH   2  19
HETATM   19  N   UNL     1      42.468 -12.587   1.766  1.00  0.00    -0.319 N 
HETATM   20  C   UNL     1      42.135 -12.175   0.494  1.00  0.00     0.280 C 
HETATM   21  O   UNL     1      42.679 -11.138   0.100  1.00  0.00    -0.265 OA
HETATM   22  H   UNL     1      43.326 -12.145   2.075  1.00  0.00     0.169 HD
BRANCH  20  23
HETATM   23  C   UNL     1      41.308 -12.995  -0.367  1.00  0.00     0.142 A 
HETATM   24  O   UNL     1      39.966 -12.707  -0.420  1.00  0.00    -0.317 OA
HETATM   25  C   UNL     1      39.396 -13.560  -1.305  1.00  0.00     0.143 A 
HETATM   26  C   UNL     1      40.343 -14.392  -1.849  1.00  0.00     0.027 A 
HETATM   27  C   UNL     1      41.576 -14.021  -1.258  1.00  0.00     0.045 A 
ENDBRANCH  20  23
ENDBRANCH   2  19
BRANCH   1  28
HETATM   28  O   UNL     1      40.100 -11.666   3.322  1.00  0.00    -0.354 OA
HETATM   29  C   UNL     1      38.698 -11.703   3.604  1.00  0.00     0.210 C 
ENDBRANCH   1  28
TORSDOF 7
ENDMDL
MODEL 10
REMARK VINA RESULT:      -7.4      1.724      2.514
REMARK  7 active torsions:
REMARK  status: ('A' for Active; 'I' for Inactive)
REMARK    1  A    between atoms: O_2  and  C_3 
REMARK    2  A    between atoms: C_4  and  N_5 
REMARK       I    between atoms: N_5  and  C_6 
REMARK    3  A    between atoms: C_6  and  C_7 
REMARK    4  A    between atoms: C_14  and  N_15 
REMARK       I    between atoms: N_15  and  C_16 
REMARK    5  A    between atoms: C_16  and  C_17 
REMARK    6  A    between atoms: C_17  and  C_18 
REMARK    7  A    between atoms: C_18  and  C_19 
ROOT
HETATM    1  C   UNL     1      39.118 -12.843   1.943  1.00  0.00     0.095 A 
HETATM    2  C   UNL     1      38.974 -13.945   1.091  1.00  0.00     0.070 A 
HETATM    3  C   UNL     1      39.534 -15.174   1.486  1.00  0.00     0.062 A 
HETATM    4  C   UNL     1      40.171 -15.323   2.723  1.00  0.00     0.037 A 
HETATM    5  C   UNL     1      40.234 -14.226   3.587  1.00  0.00     0.032 A 
HETATM    6  C   UNL     1      39.704 -12.995   3.202  1.00  0.00     0.041 A 
ENDROOT
BRANCH   4   7
HETATM    7  N   UNL     1      40.792 -16.513   3.155  1.00  0.00    -0.327 N 
HETATM    8  C   UNL     1      42.138 -16.725   3.405  1.00  0.00     0.222 C 
HETATM    9  O   UNL     1      43.047 -15.924   3.221  1.00  0.00    -0.273 OA
HETATM   10  H   UNL     1      40.174 -17.305   3.284  1.00  0.00     0.169 HD
BRANCH   8  11
HETATM   11  C   UNL     1      42.414 -18.094   4.001  1.00  0.00     0.108 C 
BRANCH  11  12
HETATM   12  C   UNL     1      43.911 -18.420   4.042  1.00  0.00     0.047 C 
BRANCH  12  13
HETATM   13  C   UNL     1      44.243 -19.883   3.850  1.00  0.00    -0.058 A 
HETATM   14  C   UNL     1      44.025 -20.488   2.605  1.00  0.00     0.007 A 
HETATM   15  C   UNL     1      44.270 -21.851   2.420  1.00  0.00     0.001 A 
HETATM   16  C   UNL     1      44.731 -22.628   3.480  1.00  0.00     0.000 A 
HETATM   17  C   UNL     1      44.940 -22.045   4.727  1.00  0.00     0.001 A 
HETATM   18  C   UNL     1      44.686 -20.684   4.915  1.00  0.00     0.007 A 
ENDBRANCH  12  13
ENDBRANCH  11  12
ENDBRANCH   8  11
ENDBRANCH   4   7
BRANCH   2  19
HETATM   19  N   UNL     1      38.398 -13.922  -0.195  1.00  0.00    -0.319 N 
HETATM   20  C   UNL     1      38.935 -14.015  -1.461  1.00  0.00     0.280 C 
HETATM   21  O   UNL     1      38.193 -14.481  -2.333  1.00  0.00    -0.265 OA
HETATM   22  H   UNL     1      37.386 -13.972  -0.229  1.00  0.00     0.169 HD
BRANCH  20  23
HETATM   23  C   UNL     1      40.240 -13.465  -1.764  1.00  0.00     0.142 A 
HETATM   24  O   UNL     1      40.456 -12.142  -1.466  1.00  0.00    -0.317 OA
HETATM   25  C   UNL     1      41.739 -11.850  -1.791  1.00  0.00     0.143 A 
HETATM   26  C   UNL     1      42.377 -12.964  -2.280  1.00  0.00     0.027 A 
HETATM   27  C   UNL     1      41.419 -14.008  -2.251  1.00  0.00     0.045 A 
ENDBRANCH  20  23
ENDBRANCH   2  19
BRANCH   1  28
HETATM   28  O   UNL     1      38.742 -11.573   1.605  1.00  0.00    -0.354 OA
HETATM   29  C   UNL     1      39.496 -10.610   2.346  1.00  0.00     0.210 C 
ENDBRANCH   1  28
TORSDOF 7
ENDMDL
