MODEL 1
REMARK VINA RESULT:      -8.8      0.000      0.000
REMARK  5 active torsions:
REMARK  status: ('A' for Active; 'I' for Inactive)
REMARK    1  A    between atoms: C_5  and  C_6 
REMARK    2  A    between atoms: C_6  and  O_7 
REMARK    3  A    between atoms: O_7  and  C_8 
REMARK    4  A    between atoms: C_12  and  C_13 
REMARK    5  A    between atoms: C_30  and  O_31 
ROOT
HETATM    1  C   UNL     1      40.803 -15.800   3.642  1.00  0.00     0.130 A 
HETATM    2  C   UNL     1      40.274 -14.584   4.091  1.00  0.00     0.048 A 
HETATM    3 BR   UNL     1      40.642 -13.894   5.823  1.00  0.00    -0.048 Br
HETATM    4  C   UNL     1      39.396 -13.858   3.283  1.00  0.00     0.033 A 
HETATM    5  C   UNL     1      38.985 -14.348   2.031  1.00  0.00    -0.012 A 
HETATM    6  C   UNL     1      39.542 -15.566   1.595  1.00  0.00     0.050 A 
HETATM    7  C   UNL     1      40.420 -16.309   2.398  1.00  0.00     0.104 A 
ENDROOT
BRANCH   5   8
HETATM    8  C   UNL     1      37.917 -13.666   1.177  1.00  0.00     0.219 C 
HETATM    9  N   UNL     1      38.109 -12.232   1.175  1.00  0.00    -0.332 N 
HETATM   10  C   UNL     1      39.057 -11.626   0.391  1.00  0.00     0.256 C 
HETATM   11  H   UNL     1      37.864 -11.717   2.007  1.00  0.00     0.165 HD
HETATM   12  O   UNL     1      39.492 -10.507   0.638  1.00  0.00    -0.267 OA
HETATM   13  C   UNL     1      39.490 -12.403  -0.759  1.00  0.00     0.073 A 
HETATM   14  C   UNL     1      38.845 -13.588  -1.033  1.00  0.00     0.088 A 
HETATM   15  C   UNL     1      40.554 -12.154  -1.680  1.00  0.00    -0.023 A 
HETATM   16  S   UNL     1      39.426 -14.341  -2.442  1.00  0.00    -0.074 SA
HETATM   17  N   UNL     1      37.901 -14.107  -0.212  1.00  0.00    -0.358 N 
HETATM   18  C   UNL     1      40.633 -13.154  -2.634  1.00  0.00     0.018 A 
HETATM   19  C   UNL     1      41.676 -13.251  -3.691  1.00  0.00     0.281 C 
HETATM   20  N   UNL     1      42.461 -11.950  -3.830  1.00  0.00    -0.070 N 
HETATM   21  C   UNL     1      42.784 -11.332  -2.471  1.00  0.00     0.239 C 
HETATM   22  H   UNL     1      43.361 -12.208  -4.254  1.00  0.00     0.279 HD
HETATM   23  C   UNL     1      41.813 -10.986  -4.781  1.00  0.00     0.270 C 
HETATM   24  C   UNL     1      41.516 -11.006  -1.664  1.00  0.00     0.068 C 
HETATM   25  H   UNL     1      37.596 -15.068  -0.343  1.00  0.00     0.162 HD
ENDBRANCH   5   8
BRANCH   7  26
HETATM   26  O   UNL     1      40.838 -17.482   1.835  1.00  0.00    -0.353 OA
HETATM   27  C   UNL     1      41.671 -17.357   0.688  1.00  0.00     0.210 C 
ENDBRANCH   7  26
BRANCH   1  28
HETATM   28  O   UNL     1      41.660 -16.523   4.474  1.00  0.00    -0.271 OA
BRANCH  28  29
HETATM   29  C   UNL     1      42.975 -16.496   4.044  1.00  0.00     0.298 C 
HETATM   30  O   UNL     1      43.603 -15.524   3.655  1.00  0.00    -0.259 OA
BRANCH  29  31
HETATM   31  C   UNL     1      43.570 -17.844   4.245  1.00  0.00     0.040 A 
HETATM   32  C   UNL     1      43.780 -18.281   5.559  1.00  0.00     0.018 A 
HETATM   33  C   UNL     1      44.270 -19.566   5.802  1.00  0.00     0.007 A 
HETATM   34  C   UNL     1      44.555 -20.430   4.738  1.00  0.00    -0.062 A 
HETATM   35  C   UNL     1      45.093 -21.807   4.996  1.00  0.00     0.048 C 
HETATM   36  C   UNL     1      44.377 -19.979   3.425  1.00  0.00     0.007 A 
HETATM   37  C   UNL     1      43.884 -18.695   3.177  1.00  0.00     0.018 A 
ENDBRANCH  29  31
ENDBRANCH  28  29
ENDBRANCH   1  28
TORSDOF 5
ENDMDL
MODEL 2
REMARK VINA RESULT:      -8.6      1.097      1.204
REMARK  5 active torsions:
REMARK  status: ('A' for Active; 'I' for Inactive)
REMARK    1  A    between atoms: C_5  and  C_6 
REMARK    2  A    between atoms: C_6  and  O_7 
REMARK    3  A    between atoms: O_7  and  C_8 
REMARK    4  A    between atoms: C_12  and  C_13 
REMARK    5  A    between atoms: C_30  and  O_31 
ROOT
HETATM    1  C   UNL     1      41.559 -15.646   3.755  1.00  0.00     0.130 A 
HETATM    2  C   UNL     1      41.708 -14.343   4.245  1.00  0.00     0.048 A 
HETATM    3 BR   UNL     1      42.949 -13.910   5.618  1.00  0.00    -0.048 Br
HETATM    4  C   UNL     1      40.891 -13.315   3.769  1.00  0.00     0.033 A 
HETATM    5  C   UNL     1      39.875 -13.567   2.833  1.00  0.00    -0.012 A 
HETATM    6  C   UNL     1      39.753 -14.883   2.344  1.00  0.00     0.050 A 
HETATM    7  C   UNL     1      40.563 -15.926   2.817  1.00  0.00     0.104 A 
ENDROOT
BRANCH   5   8
HETATM    8  C   UNL     1      38.862 -12.510   2.393  1.00  0.00     0.219 C 
HETATM    9  N   UNL     1      39.510 -11.227   2.225  1.00  0.00    -0.332 N 
HETATM   10  C   UNL     1      40.244 -10.923   1.107  1.00  0.00     0.256 C 
HETATM   11  H   UNL     1      39.780 -10.717   3.052  1.00  0.00     0.165 HD
HETATM   12  O   UNL     1      41.088 -10.035   1.101  1.00  0.00    -0.267 OA
HETATM   13  C   UNL     1      39.931 -11.721  -0.068  1.00  0.00     0.073 A 
HETATM   14  C   UNL     1      38.873 -12.599  -0.004  1.00  0.00     0.088 A 
HETATM   15  C   UNL     1      40.594 -11.782  -1.332  1.00  0.00    -0.023 A 
HETATM   16  S   UNL     1      38.599 -13.406  -1.474  1.00  0.00    -0.074 SA
HETATM   17  N   UNL     1      38.185 -12.825   1.142  1.00  0.00    -0.358 N 
HETATM   18  C   UNL     1      39.972 -12.684  -2.178  1.00  0.00     0.018 A 
HETATM   19  C   UNL     1      40.451 -13.053  -3.539  1.00  0.00     0.281 C 
HETATM   20  N   UNL     1      41.516 -12.085  -4.045  1.00  0.00    -0.070 N 
HETATM   21  C   UNL     1      42.508 -11.706  -2.947  1.00  0.00     0.239 C 
HETATM   22  H   UNL     1      42.051 -12.602  -4.754  1.00  0.00     0.279 HD
HETATM   23  C   UNL     1      40.927 -10.899  -4.749  1.00  0.00     0.270 C 
HETATM   24  C   UNL     1      41.819 -11.028  -1.750  1.00  0.00     0.068 C 
HETATM   25  H   UNL     1      37.549 -13.616   1.196  1.00  0.00     0.162 HD
ENDBRANCH   5   8
BRANCH   7  26
HETATM   26  O   UNL     1      40.288 -17.144   2.261  1.00  0.00    -0.353 OA
HETATM   27  C   UNL     1      40.880 -17.394   0.991  1.00  0.00     0.210 C 
ENDBRANCH   7  26
BRANCH   1  28
HETATM   28  O   UNL     1      42.369 -16.665   4.260  1.00  0.00    -0.271 OA
BRANCH  28  29
HETATM   29  C   UNL     1      43.408 -16.996   3.410  1.00  0.00     0.298 C 
HETATM   30  O   UNL     1      43.920 -16.284   2.560  1.00  0.00    -0.259 OA
BRANCH  29  31
HETATM   31  C   UNL     1      43.910 -18.348   3.774  1.00  0.00     0.040 A 
HETATM   32  C   UNL     1      44.178 -18.609   5.123  1.00  0.00     0.018 A 
HETATM   33  C   UNL     1      44.582 -19.883   5.526  1.00  0.00     0.007 A 
HETATM   34  C   UNL     1      44.723 -20.913   4.588  1.00  0.00    -0.062 A 
HETATM   35  C   UNL     1      45.169 -22.280   5.015  1.00  0.00     0.048 C 
HETATM   36  C   UNL     1      44.488 -20.640   3.235  1.00  0.00     0.007 A 
HETATM   37  C   UNL     1      44.080 -19.367   2.828  1.00  0.00     0.018 A 
ENDBRANCH  29  31
ENDBRANCH  28  29
ENDBRANCH   1  28
TORSDOF 5
ENDMDL
MODEL 3
REMARK VINA RESULT:      -8.6      1.601      2.209
REMARK  5 active torsions:
REMARK  status: ('A' for Active; 'I' for Inactive)
REMARK    1  A    between atoms: C_5  and  C_6 
REMARK    2  A    between atoms: C_6  and  O_7 
REMARK    3  A    between atoms: O_7  and  C_8 
REMARK    4  A    between atoms: C_12  and  C_13 
REMARK    5  A    between atoms: C_30  and  O_31 
ROOT
HETATM    1  C   UNL     1      41.233 -15.982   3.678  1.00  0.00     0.130 A 
HETATM    2  C   UNL     1      40.477 -16.104   2.506  1.00  0.00     0.048 A 
HETATM    3 BR   UNL     1      40.599 -17.625   1.372  1.00  0.00    -0.048 Br
HETATM    4  C   UNL     1      39.640 -15.064   2.098  1.00  0.00     0.033 A 
HETATM    5  C   UNL     1      39.571 -13.859   2.818  1.00  0.00    -0.012 A 
HETATM    6  C   UNL     1      40.329 -13.766   4.002  1.00  0.00     0.050 A 
HETATM    7  C   UNL     1      41.179 -14.800   4.421  1.00  0.00     0.104 A 
ENDROOT
BRANCH   5   8
HETATM    8  C   UNL     1      38.785 -12.640   2.336  1.00  0.00     0.219 C 
HETATM    9  N   UNL     1      39.651 -11.485   2.239  1.00  0.00    -0.332 N 
HETATM   10  C   UNL     1      40.501 -11.299   1.180  1.00  0.00     0.256 C 
HETATM   11  H   UNL     1      39.946 -11.037   3.094  1.00  0.00     0.165 HD
HETATM   12  O   UNL     1      41.483 -10.568   1.249  1.00  0.00    -0.267 OA
HETATM   13  C   UNL     1      40.140 -12.020  -0.031  1.00  0.00     0.073 A 
HETATM   14  C   UNL     1      38.946 -12.704  -0.056  1.00  0.00     0.088 A 
HETATM   15  C   UNL     1      40.868 -12.180  -1.249  1.00  0.00    -0.023 A 
HETATM   16  S   UNL     1      38.641 -13.437  -1.559  1.00  0.00    -0.074 SA
HETATM   17  N   UNL     1      38.152 -12.821   1.036  1.00  0.00    -0.358 N 
HETATM   18  C   UNL     1      40.162 -12.953  -2.155  1.00  0.00     0.018 A 
HETATM   19  C   UNL     1      40.664 -13.384  -3.489  1.00  0.00     0.281 C 
HETATM   20  N   UNL     1      41.910 -12.607  -3.901  1.00  0.00    -0.070 N 
HETATM   21  C   UNL     1      42.874 -12.414  -2.732  1.00  0.00     0.239 C 
HETATM   22  H   UNL     1      42.397 -13.200  -4.585  1.00  0.00     0.279 HD
HETATM   23  C   UNL     1      41.581 -11.330  -4.616  1.00  0.00     0.270 C 
HETATM   24  C   UNL     1      42.230 -11.641  -1.568  1.00  0.00     0.068 C 
HETATM   25  H   UNL     1      37.389 -13.493   1.031  1.00  0.00     0.162 HD
ENDBRANCH   5   8
BRANCH   7  26
HETATM   26  O   UNL     1      41.866 -14.529   5.571  1.00  0.00    -0.353 OA
HETATM   27  C   UNL     1      43.109 -13.856   5.406  1.00  0.00     0.210 C 
ENDBRANCH   7  26
BRANCH   1  28
HETATM   28  O   UNL     1      42.083 -17.023   4.057  1.00  0.00    -0.271 OA
BRANCH  28  29
HETATM   29  C   UNL     1      43.221 -17.098   3.275  1.00  0.00     0.298 C 
HETATM   30  O   UNL     1      43.823 -16.170   2.759  1.00  0.00    -0.259 OA
BRANCH  29  31
HETATM   31  C   UNL     1      43.693 -18.509   3.254  1.00  0.00     0.040 A 
HETATM   32  C   UNL     1      44.194 -19.052   4.443  1.00  0.00     0.018 A 
HETATM   33  C   UNL     1      44.583 -20.393   4.494  1.00  0.00     0.007 A 
HETATM   34  C   UNL     1      44.474 -21.207   3.360  1.00  0.00    -0.062 A 
HETATM   35  C   UNL     1      44.902 -22.644   3.407  1.00  0.00     0.048 C 
HETATM   36  C   UNL     1      44.005 -20.652   2.163  1.00  0.00     0.007 A 
HETATM   37  C   UNL     1      43.612 -19.312   2.108  1.00  0.00     0.018 A 
ENDBRANCH  29  31
ENDBRANCH  28  29
ENDBRANCH   1  28
TORSDOF 5
ENDMDL
MODEL 4
REMARK VINA RESULT:      -8.3      2.127      3.010
REMARK  5 active torsions:
REMARK  status: ('A' for Active; 'I' for Inactive)
REMARK    1  A    between atoms: C_5  and  C_6 
REMARK    2  A    between atoms: C_6  and  O_7 
REMARK    3  A    between atoms: O_7  and  C_8 
REMARK    4  A    between atoms: C_12  and  C_13 
REMARK    5  A    between atoms: C_30  and  O_31 
ROOT
HETATM    1  C   UNL     1      42.491 -15.153   3.193  1.00  0.00     0.130 A 
HETATM    2  C   UNL     1      41.213 -15.281   2.638  1.00  0.00     0.048 A 
HETATM    3 BR   UNL     1      40.650 -16.858   1.736  1.00  0.00    -0.048 Br
HETATM    4  C   UNL     1      40.317 -14.211   2.680  1.00  0.00     0.033 A 
HETATM    5  C   UNL     1      40.687 -12.972   3.231  1.00  0.00    -0.012 A 
HETATM    6  C   UNL     1      41.974 -12.872   3.797  1.00  0.00     0.050 A 
HETATM    7  C   UNL     1      42.886 -13.937   3.757  1.00  0.00     0.104 A 
ENDROOT
BRANCH   5   8
HETATM    8  C   UNL     1      39.799 -11.730   3.169  1.00  0.00     0.219 C 
HETATM    9  N   UNL     1      40.477 -10.657   2.475  1.00  0.00    -0.332 N 
HETATM   10  C   UNL     1      40.558 -10.611   1.107  1.00  0.00     0.256 C 
HETATM   11  H   UNL     1      41.225 -10.177   2.953  1.00  0.00     0.165 HD
HETATM   12  O   UNL     1      41.415  -9.957   0.524  1.00  0.00    -0.267 OA
HETATM   13  C   UNL     1      39.541 -11.380   0.407  1.00  0.00     0.073 A 
HETATM   14  C   UNL     1      38.538 -11.968   1.143  1.00  0.00     0.088 A 
HETATM   15  C   UNL     1      39.421 -11.680  -0.985  1.00  0.00    -0.023 A 
HETATM   16  S   UNL     1      37.398 -12.774   0.174  1.00  0.00    -0.074 SA
HETATM   17  N   UNL     1      38.524 -11.948   2.498  1.00  0.00    -0.358 N 
HETATM   18  C   UNL     1      38.302 -12.454  -1.235  1.00  0.00     0.018 A 
HETATM   19  C   UNL     1      37.923 -13.012  -2.562  1.00  0.00     0.281 C 
HETATM   20  N   UNL     1      38.717 -12.366  -3.693  1.00  0.00    -0.070 N 
HETATM   21  C   UNL     1      40.186 -12.172  -3.320  1.00  0.00     0.239 C 
HETATM   22  H   UNL     1      38.701 -13.040  -4.469  1.00  0.00     0.279 HD
HETATM   23  C   UNL     1      38.066 -11.118  -4.212  1.00  0.00     0.270 C 
HETATM   24  C   UNL     1      40.357 -11.274  -2.083  1.00  0.00     0.068 C 
HETATM   25  H   UNL     1      37.884 -12.556   3.001  1.00  0.00     0.162 HD
ENDBRANCH   5   8
BRANCH   7  26
HETATM   26  O   UNL     1      44.099 -13.657   4.321  1.00  0.00    -0.353 OA
HETATM   27  C   UNL     1      44.196 -13.881   5.724  1.00  0.00     0.210 C 
ENDBRANCH   7  26
BRANCH   1  28
HETATM   28  O   UNL     1      43.381 -16.226   3.121  1.00  0.00    -0.271 OA
BRANCH  28  29
HETATM   29  C   UNL     1      43.187 -17.154   4.128  1.00  0.00     0.298 C 
HETATM   30  O   UNL     1      42.661 -16.964   5.213  1.00  0.00    -0.259 OA
BRANCH  29  31
HETATM   31  C   UNL     1      43.615 -18.490   3.634  1.00  0.00     0.040 A 
HETATM   32  C   UNL     1      44.339 -19.312   4.506  1.00  0.00     0.018 A 
HETATM   33  C   UNL     1      44.703 -20.603   4.116  1.00  0.00     0.007 A 
HETATM   34  C   UNL     1      44.347 -21.089   2.852  1.00  0.00    -0.062 A 
HETATM   35  C   UNL     1      44.746 -22.471   2.425  1.00  0.00     0.048 C 
HETATM   36  C   UNL     1      43.653 -20.253   1.969  1.00  0.00     0.007 A 
HETATM   37  C   UNL     1      43.285 -18.962   2.357  1.00  0.00     0.018 A 
ENDBRANCH  29  31
ENDBRANCH  28  29
ENDBRANCH   1  28
TORSDOF 5
ENDMDL
MODEL 5
REMARK VINA RESULT:      -8.2      2.198      3.416
REMARK  5 active torsions:
REMARK  status: ('A' for Active; 'I' for Inactive)
REMARK    1  A    between atoms: C_5  and  C_6 
REMARK    2  A    between atoms: C_6  and  O_7 
REMARK    3  A    between atoms: O_7  and  C_8 
REMARK    4  A    between atoms: C_12  and  C_13 
REMARK    5  A    between atoms: C_30  and  O_31 
ROOT
HETATM    1  C   UNL     1      42.809 -15.295   4.399  1.00  0.00     0.130 A 
HETATM    2  C   UNL     1      41.592 -15.383   3.714  1.00  0.00     0.048 A 
HETATM    3 BR   UNL     1      40.974 -17.008   2.946  1.00  0.00    -0.048 Br
HETATM    4  C   UNL     1      40.809 -14.243   3.521  1.00  0.00     0.033 A 
HETATM    5  C   UNL     1      41.242 -12.980   3.961  1.00  0.00    -0.012 A 
HETATM    6  C   UNL     1      42.463 -12.919   4.661  1.00  0.00     0.050 A 
HETATM    7  C   UNL     1      43.261 -14.055   4.857  1.00  0.00     0.104 A 
ENDROOT
BRANCH   5   8
HETATM    8  C   UNL     1      40.495 -11.684   3.645  1.00  0.00     0.219 C 
HETATM    9  N   UNL     1      41.243 -10.886   2.699  1.00  0.00    -0.332 N 
HETATM   10  C   UNL     1      41.242 -11.160   1.355  1.00  0.00     0.256 C 
HETATM   11  H   UNL     1      42.069 -10.407   3.026  1.00  0.00     0.165 HD
HETATM   12  O   UNL     1      42.129 -10.764   0.606  1.00  0.00    -0.267 OA
HETATM   13  C   UNL     1      40.104 -11.936   0.888  1.00  0.00     0.073 A 
HETATM   14  C   UNL     1      39.090 -12.215   1.776  1.00  0.00     0.088 A 
HETATM   15  C   UNL     1      39.864 -12.524  -0.391  1.00  0.00    -0.023 A 
HETATM   16  S   UNL     1      37.809 -13.072   1.060  1.00  0.00    -0.074 SA
HETATM   17  N   UNL     1      39.164 -11.889   3.089  1.00  0.00    -0.358 N 
HETATM   18  C   UNL     1      38.652 -13.190  -0.415  1.00  0.00     0.018 A 
HETATM   19  C   UNL     1      38.130 -13.982  -1.563  1.00  0.00     0.281 C 
HETATM   20  N   UNL     1      38.918 -13.710  -2.841  1.00  0.00    -0.070 N 
HETATM   21  C   UNL     1      40.420 -13.619  -2.575  1.00  0.00     0.239 C 
HETATM   22  H   UNL     1      38.778 -14.534  -3.439  1.00  0.00     0.279 HD
HETATM   23  C   UNL     1      38.379 -12.540  -3.610  1.00  0.00     0.270 C 
HETATM   24  C   UNL     1      40.768 -12.494  -1.586  1.00  0.00     0.068 C 
HETATM   25  H   UNL     1      38.493 -12.284   3.742  1.00  0.00     0.162 HD
ENDBRANCH   5   8
BRANCH   7  26
HETATM   26  O   UNL     1      44.429 -13.811   5.526  1.00  0.00    -0.353 OA
HETATM   27  C   UNL     1      44.315 -13.660   6.937  1.00  0.00     0.210 C 
ENDBRANCH   7  26
BRANCH   1  28
HETATM   28  O   UNL     1      43.589 -16.442   4.562  1.00  0.00    -0.271 OA
BRANCH  28  29
HETATM   29  C   UNL     1      43.281 -17.141   5.715  1.00  0.00     0.298 C 
HETATM   30  O   UNL     1      42.688 -16.720   6.696  1.00  0.00    -0.259 OA
BRANCH  29  31
HETATM   31  C   UNL     1      43.683 -18.561   5.533  1.00  0.00     0.040 A 
HETATM   32  C   UNL     1      44.233 -18.936   4.301  1.00  0.00     0.018 A 
HETATM   33  C   UNL     1      44.692 -20.241   4.105  1.00  0.00     0.007 A 
HETATM   34  C   UNL     1      44.608 -21.186   5.134  1.00  0.00    -0.062 A 
HETATM   35  C   UNL     1      45.089 -22.591   4.922  1.00  0.00     0.048 C 
HETATM   36  C   UNL     1      44.026 -20.817   6.353  1.00  0.00     0.007 A 
HETATM   37  C   UNL     1      43.568 -19.513   6.556  1.00  0.00     0.018 A 
ENDBRANCH  29  31
ENDBRANCH  28  29
ENDBRANCH   1  28
TORSDOF 5
ENDMDL
MODEL 6
REMARK VINA RESULT:      -8.2      3.120      4.002
REMARK  5 active torsions:
REMARK  status: ('A' for Active; 'I' for Inactive)
REMARK    1  A    between atoms: C_5  and  C_6 
REMARK    2  A    between atoms: C_6  and  O_7 
REMARK    3  A    between atoms: O_7  and  C_8 
REMARK    4  A    between atoms: C_12  and  C_13 
REMARK    5  A    between atoms: C_30  and  O_31 
ROOT
HETATM    1  C   UNL     1      42.681 -15.172   4.695  1.00  0.00     0.130 A 
HETATM    2  C   UNL     1      43.005 -14.187   5.636  1.00  0.00     0.048 A 
HETATM    3 BR   UNL     1      44.636 -14.211   6.611  1.00  0.00    -0.048 Br
HETATM    4  C   UNL     1      42.093 -13.171   5.932  1.00  0.00     0.033 A 
HETATM    5  C   UNL     1      40.820 -13.138   5.338  1.00  0.00    -0.012 A 
HETATM    6  C   UNL     1      40.523 -14.131   4.384  1.00  0.00     0.050 A 
HETATM    7  C   UNL     1      41.426 -15.161   4.080  1.00  0.00     0.104 A 
ENDROOT
BRANCH   5   8
HETATM    8  C   UNL     1      39.737 -12.137   5.737  1.00  0.00     0.219 C 
HETATM    9  N   UNL     1      40.316 -10.835   5.982  1.00  0.00    -0.332 N 
HETATM   10  C   UNL     1      40.660  -9.987   4.961  1.00  0.00     0.256 C 
HETATM   11  H   UNL     1      40.844 -10.699   6.831  1.00  0.00     0.165 HD
HETATM   12  O   UNL     1      41.471  -9.080   5.108  1.00  0.00    -0.267 OA
HETATM   13  C   UNL     1      39.976 -10.235   3.702  1.00  0.00     0.073 A 
HETATM   14  C   UNL     1      38.980 -11.184   3.670  1.00  0.00     0.088 A 
HETATM   15  C   UNL     1      40.199  -9.659   2.413  1.00  0.00    -0.023 A 
HETATM   16  S   UNL     1      38.239 -11.308   2.146  1.00  0.00    -0.074 SA
HETATM   17  N   UNL     1      38.691 -11.969   4.736  1.00  0.00    -0.358 N 
HETATM   18  C   UNL     1      39.326 -10.181   1.475  1.00  0.00     0.018 A 
HETATM   19  C   UNL     1      39.339  -9.863   0.020  1.00  0.00     0.281 C 
HETATM   20  N   UNL     1      40.202  -8.642  -0.283  1.00  0.00    -0.070 N 
HETATM   21  C   UNL     1      41.498  -8.646   0.526  1.00  0.00     0.239 C 
HETATM   22  H   UNL     1      40.475  -8.728  -1.270  1.00  0.00     0.279 HD
HETATM   23  C   UNL     1      39.437  -7.356  -0.172  1.00  0.00     0.270 C 
HETATM   24  C   UNL     1      41.239  -8.645   2.042  1.00  0.00     0.068 C 
HETATM   25  H   UNL     1      38.094 -12.782   4.613  1.00  0.00     0.162 HD
ENDBRANCH   5   8
BRANCH   7  26
HETATM   26  O   UNL     1      40.964 -16.058   3.158  1.00  0.00    -0.353 OA
HETATM   27  C   UNL     1      40.116 -15.526   2.146  1.00  0.00     0.210 C 
ENDBRANCH   7  26
BRANCH   1  28
HETATM   28  O   UNL     1      43.595 -16.193   4.429  1.00  0.00    -0.271 OA
BRANCH  28  29
HETATM   29  C   UNL     1      43.284 -17.374   5.077  1.00  0.00     0.298 C 
HETATM   30  O   UNL     1      42.752 -17.497   6.169  1.00  0.00    -0.259 OA
BRANCH  29  31
HETATM   31  C   UNL     1      43.591 -18.512   4.169  1.00  0.00     0.040 A 
HETATM   32  C   UNL     1      44.458 -19.509   4.634  1.00  0.00     0.018 A 
HETATM   33  C   UNL     1      44.721 -20.633   3.847  1.00  0.00     0.007 A 
HETATM   34  C   UNL     1      44.122 -20.776   2.590  1.00  0.00    -0.062 A 
HETATM   35  C   UNL     1      44.413 -21.976   1.738  1.00  0.00     0.048 C 
HETATM   36  C   UNL     1      43.283 -19.761   2.114  1.00  0.00     0.007 A 
HETATM   37  C   UNL     1      43.015 -18.636   2.898  1.00  0.00     0.018 A 
ENDBRANCH  29  31
ENDBRANCH  28  29
ENDBRANCH   1  28
TORSDOF 5
ENDMDL
MODEL 7
REMARK VINA RESULT:      -8.1      4.627      6.970
REMARK  5 active torsions:
REMARK  status: ('A' for Active; 'I' for Inactive)
REMARK    1  A    between atoms: C_5  and  C_6 
REMARK    2  A    between atoms: C_6  and  O_7 
REMARK    3  A    between atoms: O_7  and  C_8 
REMARK    4  A    between atoms: C_12  and  C_13 
REMARK    5  A    between atoms: C_30  and  O_31 
ROOT
HETATM    1  C   UNL     1      43.696 -15.304   5.530  1.00  0.00     0.130 A 
HETATM    2  C   UNL     1      43.677 -14.014   6.073  1.00  0.00     0.048 A 
HETATM    3 BR   UNL     1      44.684 -13.547   7.616  1.00  0.00    -0.048 Br
HETATM    4  C   UNL     1      42.855 -13.030   5.520  1.00  0.00     0.033 A 
HETATM    5  C   UNL     1      41.996 -13.318   4.446  1.00  0.00    -0.012 A 
HETATM    6  C   UNL     1      42.044 -14.619   3.907  1.00  0.00     0.050 A 
HETATM    7  C   UNL     1      42.860 -15.618   4.455  1.00  0.00     0.104 A 
ENDROOT
BRANCH   5   8
HETATM    8  C   UNL     1      40.973 -12.320   3.902  1.00  0.00     0.219 C 
HETATM    9  N   UNL     1      39.652 -12.623   4.407  1.00  0.00    -0.332 N 
HETATM   10  C   UNL     1      39.258 -12.268   5.672  1.00  0.00     0.256 C 
HETATM   11  H   UNL     1      39.168 -13.423   4.029  1.00  0.00     0.165 HD
HETATM   12  O   UNL     1      38.327 -12.822   6.247  1.00  0.00    -0.267 OA
HETATM   13  C   UNL     1      40.014 -11.178   6.267  1.00  0.00     0.073 A 
HETATM   14  C   UNL     1      40.948 -10.527   5.493  1.00  0.00     0.088 A 
HETATM   15  C   UNL     1      39.981 -10.665   7.600  1.00  0.00    -0.023 A 
HETATM   16  S   UNL     1      41.698  -9.240   6.313  1.00  0.00    -0.074 SA
HETATM   17  N   UNL     1      41.264 -10.933   4.240  1.00  0.00    -0.358 N 
HETATM   18  C   UNL     1      40.872  -9.618   7.755  1.00  0.00     0.018 A 
HETATM   19  C   UNL     1      41.151  -8.911   9.035  1.00  0.00     0.281 C 
HETATM   20  N   UNL     1      40.106  -9.235  10.098  1.00  0.00    -0.070 N 
HETATM   21  C   UNL     1      39.728 -10.715  10.092  1.00  0.00     0.239 C 
HETATM   22  H   UNL     1      40.559  -9.054  11.003  1.00  0.00     0.279 HD
HETATM   23  C   UNL     1      38.920  -8.318  10.036  1.00  0.00     0.270 C 
HETATM   24  C   UNL     1      39.144 -11.161   8.741  1.00  0.00     0.068 C 
HETATM   25  H   UNL     1      42.089 -10.554   3.783  1.00  0.00     0.162 HD
ENDBRANCH   5   8
BRANCH   7  26
HETATM   26  O   UNL     1      42.758 -16.830   3.831  1.00  0.00    -0.353 OA
HETATM   27  C   UNL     1      41.451 -17.392   3.780  1.00  0.00     0.210 C 
ENDBRANCH   7  26
BRANCH   1  28
HETATM   28  O   UNL     1      44.507 -16.281   6.111  1.00  0.00    -0.271 OA
BRANCH  28  29
HETATM   29  C   UNL     1      43.793 -17.186   6.875  1.00  0.00     0.298 C 
HETATM   30  O   UNL     1      42.957 -16.932   7.728  1.00  0.00    -0.259 OA
BRANCH  29  31
HETATM   31  C   UNL     1      44.111 -18.561   6.406  1.00  0.00     0.040 A 
HETATM   32  C   UNL     1      43.632 -19.640   7.159  1.00  0.00     0.018 A 
HETATM   33  C   UNL     1      43.843 -20.950   6.723  1.00  0.00     0.007 A 
HETATM   34  C   UNL     1      44.532 -21.199   5.530  1.00  0.00    -0.062 A 
HETATM   35  C   UNL     1      44.771 -22.605   5.065  1.00  0.00     0.048 C 
HETATM   36  C   UNL     1      45.041 -20.119   4.797  1.00  0.00     0.007 A 
HETATM   37  C   UNL     1      44.830 -18.807   5.228  1.00  0.00     0.018 A 
ENDBRANCH  29  31
ENDBRANCH  28  29
ENDBRANCH   1  28
TORSDOF 5
ENDMDL
MODEL 8
REMARK VINA RESULT:      -8.1      3.074      4.305
REMARK  5 active torsions:
REMARK  status: ('A' for Active; 'I' for Inactive)
REMARK    1  A    between atoms: C_5  and  C_6 
REMARK    2  A    between atoms: C_6  and  O_7 
REMARK    3  A    between atoms: O_7  and  C_8 
REMARK    4  A    between atoms: C_12  and  C_13 
REMARK    5  A    between atoms: C_30  and  O_31 
ROOT
HETATM    1  C   UNL     1      41.578 -14.650   1.225  1.00  0.00     0.130 A 
HETATM    2  C   UNL     1      41.016 -15.759   0.583  1.00  0.00     0.048 A 
HETATM    3 BR   UNL     1      40.597 -17.365   1.510  1.00  0.00    -0.048 Br
HETATM    4  C   UNL     1      40.797 -15.737  -0.796  1.00  0.00     0.033 A 
HETATM    5  C   UNL     1      41.177 -14.631  -1.576  1.00  0.00    -0.012 A 
HETATM    6  C   UNL     1      41.727 -13.521  -0.905  1.00  0.00     0.050 A 
HETATM    7  C   UNL     1      41.958 -13.532   0.478  1.00  0.00     0.104 A 
ENDROOT
BRANCH   5   8
HETATM    8  C   UNL     1      41.094 -14.617  -3.102  1.00  0.00     0.219 C 
HETATM    9  N   UNL     1      39.818 -15.133  -3.546  1.00  0.00    -0.332 N 
HETATM   10  C   UNL     1      38.677 -14.372  -3.522  1.00  0.00     0.256 C 
HETATM   11  H   UNL     1      39.656 -16.127  -3.482  1.00  0.00     0.165 HD
HETATM   12  O   UNL     1      37.557 -14.870  -3.524  1.00  0.00    -0.267 OA
HETATM   13  C   UNL     1      38.899 -12.934  -3.514  1.00  0.00     0.073 A 
HETATM   14  C   UNL     1      40.186 -12.467  -3.655  1.00  0.00     0.088 A 
HETATM   15  C   UNL     1      37.966 -11.868  -3.336  1.00  0.00    -0.023 A 
HETATM   16  S   UNL     1      40.268 -10.770  -3.690  1.00  0.00    -0.074 SA
HETATM   17  N   UNL     1      41.259 -13.294  -3.690  1.00  0.00    -0.358 N 
HETATM   18  C   UNL     1      38.597 -10.637  -3.390  1.00  0.00     0.018 A 
HETATM   19  C   UNL     1      37.935  -9.323  -3.161  1.00  0.00     0.281 C 
HETATM   20  N   UNL     1      36.415  -9.444  -3.190  1.00  0.00    -0.070 N 
HETATM   21  C   UNL     1      35.929 -10.697  -2.464  1.00  0.00     0.239 C 
HETATM   22  H   UNL     1      36.059  -8.642  -2.655  1.00  0.00     0.279 HD
HETATM   23  C   UNL     1      35.853  -9.304  -4.574  1.00  0.00     0.270 C 
HETATM   24  C   UNL     1      36.492 -11.986  -3.088  1.00  0.00     0.068 C 
HETATM   25  H   UNL     1      42.194 -12.906  -3.595  1.00  0.00     0.162 HD
ENDBRANCH   5   8
BRANCH   7  26
HETATM   26  O   UNL     1      42.530 -12.387   0.959  1.00  0.00    -0.353 OA
HETATM   27  C   UNL     1      42.151 -11.182   0.303  1.00  0.00     0.210 C 
ENDBRANCH   7  26
BRANCH   1  28
HETATM   28  O   UNL     1      41.812 -14.699   2.601  1.00  0.00    -0.271 OA
BRANCH  28  29
HETATM   29  C   UNL     1      43.154 -14.818   2.913  1.00  0.00     0.298 C 
HETATM   30  O   UNL     1      43.916 -13.922   3.240  1.00  0.00    -0.259 OA
BRANCH  29  31
HETATM   31  C   UNL     1      43.518 -16.260   2.913  1.00  0.00     0.040 A 
HETATM   32  C   UNL     1      43.233 -17.010   4.060  1.00  0.00     0.018 A 
HETATM   33  C   UNL     1      43.490 -18.383   4.084  1.00  0.00     0.007 A 
HETATM   34  C   UNL     1      44.032 -19.023   2.963  1.00  0.00    -0.062 A 
HETATM   35  C   UNL     1      44.321 -20.495   2.989  1.00  0.00     0.048 C 
HETATM   36  C   UNL     1      44.348 -18.264   1.830  1.00  0.00     0.007 A 
HETATM   37  C   UNL     1      44.091 -16.891   1.801  1.00  0.00     0.018 A 
ENDBRANCH  29  31
ENDBRANCH  28  29
ENDBRANCH   1  28
TORSDOF 5
ENDMDL
MODEL 9
REMARK VINA RESULT:      -8.1      6.120      8.892
REMARK  5 active torsions:
REMARK  status: ('A' for Active; 'I' for Inactive)
REMARK    1  A    between atoms: C_5  and  C_6 
REMARK    2  A    between atoms: C_6  and  O_7 
REMARK    3  A    between atoms: O_7  and  C_8 
REMARK    4  A    between atoms: C_12  and  C_13 
REMARK    5  A    between atoms: C_30  and  O_31 
ROOT
HETATM    1  C   UNL     1      43.320 -14.967   6.159  1.00  0.00     0.130 A 
HETATM    2  C   UNL     1      42.040 -14.898   5.598  1.00  0.00     0.048 A 
HETATM    3 BR   UNL     1      41.274 -16.347   4.633  1.00  0.00    -0.048 Br
HETATM    4  C   UNL     1      41.297 -13.719   5.682  1.00  0.00     0.033 A 
HETATM    5  C   UNL     1      41.829 -12.565   6.283  1.00  0.00    -0.012 A 
HETATM    6  C   UNL     1      43.113 -12.663   6.854  1.00  0.00     0.050 A 
HETATM    7  C   UNL     1      43.872 -13.839   6.772  1.00  0.00     0.104 A 
ENDROOT
BRANCH   5   8
HETATM    8  C   UNL     1      41.118 -11.212   6.271  1.00  0.00     0.219 C 
HETATM    9  N   UNL     1      39.783 -11.336   6.816  1.00  0.00    -0.332 N 
HETATM   10  C   UNL     1      39.552 -11.394   8.166  1.00  0.00     0.256 C 
HETATM   11  H   UNL     1      39.077 -11.785   6.252  1.00  0.00     0.165 HD
HETATM   12  O   UNL     1      38.521 -11.867   8.633  1.00  0.00    -0.267 OA
HETATM   13  C   UNL     1      40.609 -10.838   8.994  1.00  0.00     0.073 A 
HETATM   14  C   UNL     1      41.663 -10.204   8.377  1.00  0.00     0.088 A 
HETATM   15  C   UNL     1      40.770 -10.872  10.413  1.00  0.00    -0.023 A 
HETATM   16  S   UNL     1      42.779  -9.555   9.483  1.00  0.00    -0.074 SA
HETATM   17  N   UNL     1      41.806 -10.176   7.030  1.00  0.00    -0.358 N 
HETATM   18  C   UNL     1      41.930 -10.223  10.801  1.00  0.00     0.018 A 
HETATM   19  C   UNL     1      42.444 -10.144  12.195  1.00  0.00     0.281 C 
HETATM   20  N   UNL     1      41.387 -10.567  13.212  1.00  0.00    -0.070 N 
HETATM   21  C   UNL     1      40.600 -11.788  12.740  1.00  0.00     0.239 C 
HETATM   22  H   UNL     1      41.904 -10.860  14.050  1.00  0.00     0.279 HD
HETATM   23  C   UNL     1      40.512  -9.425  13.639  1.00  0.00     0.270 C 
HETATM   24  C   UNL     1      39.867 -11.530  11.412  1.00  0.00     0.068 C 
HETATM   25  H   UNL     1      42.689  -9.876   6.625  1.00  0.00     0.162 HD
ENDBRANCH   5   8
BRANCH   7  26
HETATM   26  O   UNL     1      45.109 -13.750   7.348  1.00  0.00    -0.353 OA
HETATM   27  C   UNL     1      45.244 -12.775   8.377  1.00  0.00     0.210 C 
ENDBRANCH   7  26
BRANCH   1  28
HETATM   28  O   UNL     1      44.057 -16.148   6.044  1.00  0.00    -0.271 OA
BRANCH  28  29
HETATM   29  C   UNL     1      43.735 -17.078   7.016  1.00  0.00     0.298 C 
HETATM   30  O   UNL     1      43.183 -16.867   8.084  1.00  0.00    -0.259 OA
BRANCH  29  31
HETATM   31  C   UNL     1      44.059 -18.436   6.501  1.00  0.00     0.040 A 
HETATM   32  C   UNL     1      43.676 -19.540   7.273  1.00  0.00     0.018 A 
HETATM   33  C   UNL     1      43.894 -20.836   6.801  1.00  0.00     0.007 A 
HETATM   34  C   UNL     1      44.494 -21.046   5.553  1.00  0.00    -0.062 A 
HETATM   35  C   UNL     1      44.741 -22.437   5.049  1.00  0.00     0.048 C 
HETATM   36  C   UNL     1      44.907 -19.940   4.800  1.00  0.00     0.007 A 
HETATM   37  C   UNL     1      44.689 -18.642   5.267  1.00  0.00     0.018 A 
ENDBRANCH  29  31
ENDBRANCH  28  29
ENDBRANCH   1  28
TORSDOF 5
ENDMDL
MODEL 10
REMARK VINA RESULT:      -7.6      2.901      4.322
REMARK  5 active torsions:
REMARK  status: ('A' for Active; 'I' for Inactive)
REMARK    1  A    between atoms: C_5  and  C_6 
REMARK    2  A    between atoms: C_6  and  O_7 
REMARK    3  A    between atoms: O_7  and  C_8 
REMARK    4  A    between atoms: C_12  and  C_13 
REMARK    5  A    between atoms: C_30  and  O_31 
ROOT
HETATM    1  C   UNL     1      40.500 -14.712   2.234  1.00  0.00     0.130 A 
HETATM    2  C   UNL     1      40.807 -15.610   1.205  1.00  0.00     0.048 A 
HETATM    3 BR   UNL     1      40.821 -17.492   1.470  1.00  0.00    -0.048 Br
HETATM    4  C   UNL     1      41.175 -15.135  -0.056  1.00  0.00     0.033 A 
HETATM    5  C   UNL     1      41.296 -13.758  -0.309  1.00  0.00    -0.012 A 
HETATM    6  C   UNL     1      40.968 -12.875   0.738  1.00  0.00     0.050 A 
HETATM    7  C   UNL     1      40.602 -13.337   2.011  1.00  0.00     0.104 A 
ENDROOT
BRANCH   5   8
HETATM    8  C   UNL     1      41.836 -13.194  -1.622  1.00  0.00     0.219 C 
HETATM    9  N   UNL     1      41.775 -14.193  -2.666  1.00  0.00    -0.332 N 
HETATM   10  C   UNL     1      40.609 -14.487  -3.325  1.00  0.00     0.256 C 
HETATM   11  H   UNL     1      42.443 -14.949  -2.642  1.00  0.00     0.165 HD
HETATM   12  O   UNL     1      40.442 -15.548  -3.917  1.00  0.00    -0.267 OA
HETATM   13  C   UNL     1      39.600 -13.441  -3.283  1.00  0.00     0.073 A 
HETATM   14  C   UNL     1      39.930 -12.232  -2.715  1.00  0.00     0.088 A 
HETATM   15  C   UNL     1      38.239 -13.468  -3.718  1.00  0.00    -0.023 A 
HETATM   16  S   UNL     1      38.666 -11.099  -2.802  1.00  0.00    -0.074 SA
HETATM   17  N   UNL     1      41.118 -12.019  -2.099  1.00  0.00    -0.358 N 
HETATM   18  C   UNL     1      37.617 -12.253  -3.488  1.00  0.00     0.018 A 
HETATM   19  C   UNL     1      36.180 -11.963  -3.744  1.00  0.00     0.281 C 
HETATM   20  N   UNL     1      35.530 -13.044  -4.603  1.00  0.00    -0.070 N 
HETATM   21  C   UNL     1      35.981 -14.445  -4.193  1.00  0.00     0.239 C 
HETATM   22  H   UNL     1      34.523 -12.993  -4.405  1.00  0.00     0.279 HD
HETATM   23  C   UNL     1      35.681 -12.778  -6.072  1.00  0.00     0.270 C 
HETATM   24  C   UNL     1      37.503 -14.626  -4.321  1.00  0.00     0.068 C 
HETATM   25  H   UNL     1      41.243 -11.189  -1.526  1.00  0.00     0.162 HD
ENDBRANCH   5   8
BRANCH   7  26
HETATM   26  O   UNL     1      40.352 -12.344   2.917  1.00  0.00    -0.353 OA
HETATM   27  C   UNL     1      39.814 -11.139   2.383  1.00  0.00     0.210 C 
ENDBRANCH   7  26
BRANCH   1  28
HETATM   28  O   UNL     1      40.157 -15.205   3.495  1.00  0.00    -0.271 OA
BRANCH  28  29
HETATM   29  C   UNL     1      41.142 -14.991   4.441  1.00  0.00     0.298 C 
HETATM   30  O   UNL     1      41.246 -14.036   5.194  1.00  0.00    -0.259 OA
BRANCH  29  31
HETATM   31  C   UNL     1      42.019 -16.192   4.497  1.00  0.00     0.040 A 
HETATM   32  C   UNL     1      41.554 -17.314   5.194  1.00  0.00     0.018 A 
HETATM   33  C   UNL     1      42.308 -18.490   5.215  1.00  0.00     0.007 A 
HETATM   34  C   UNL     1      43.532 -18.560   4.540  1.00  0.00    -0.062 A 
HETATM   35  C   UNL     1      44.350 -19.817   4.571  1.00  0.00     0.048 C 
HETATM   36  C   UNL     1      44.011 -17.426   3.872  1.00  0.00     0.007 A 
HETATM   37  C   UNL     1      43.259 -16.248   3.846  1.00  0.00     0.018 A 
ENDBRANCH  29  31
ENDBRANCH  28  29
ENDBRANCH   1  28
TORSDOF 5
ENDMDL
