MODEL 1
REMARK VINA RESULT:      -6.9      0.000      0.000
REMARK  5 active torsions:
REMARK  status: ('A' for Active; 'I' for Inactive)
REMARK    1  A    between atoms: C_2  and  C_3 
REMARK    2  A    between atoms: C_3  and  N_4 
REMARK    3  A    between atoms: C_3  and  C_14 
REMARK       I    between atoms: N_4  and  C_5 
REMARK    4  A    between atoms: C_5  and  C_6 
REMARK    5  A    between atoms: C_17  and  O_18 
ROOT
HETATM    1  C   UNL     1      43.541 -16.769   2.367  1.00  0.00     0.117 C 
ENDROOT
BRANCH   1   2
HETATM    2  C   UNL     1      42.925 -17.083   0.987  1.00  0.00     0.025 C 
HETATM    3  C   UNL     1      41.403 -17.152   1.007  1.00  0.00     0.007 C 
ENDBRANCH   1   2
BRANCH   1   4
HETATM    4  N   UNL     1      42.629 -15.997   3.203  1.00  0.00    -0.348 N 
HETATM    5  C   UNL     1      42.853 -14.673   3.508  1.00  0.00     0.253 C 
HETATM    6  O   UNL     1      43.816 -14.036   3.101  1.00  0.00    -0.268 OA
HETATM    7  H   UNL     1      41.914 -16.514   3.691  1.00  0.00     0.163 HD
BRANCH   5   8
HETATM    8  C   UNL     1      41.867 -14.021   4.404  1.00  0.00     0.050 A 
HETATM    9  C   UNL     1      40.665 -14.675   4.658  1.00  0.00     0.133 A 
HETATM   10  N   UNL     1      39.685 -14.179   5.456  1.00  0.00    -0.271 NA
HETATM   11  C   UNL     1      39.927 -12.981   6.037  1.00  0.00     0.135 A 
HETATM   12  C   UNL     1      41.102 -12.266   5.858  1.00  0.00     0.029 A 
HETATM   13 BR   UNL     1      41.361 -10.609   6.721  1.00  0.00    -0.050 Br
HETATM   14  C   UNL     1      42.092 -12.792   5.032  1.00  0.00     0.039 A 
ENDBRANCH   5   8
ENDBRANCH   1   4
BRANCH   1  15
HETATM   15  C   UNL     1      43.927 -18.038   3.115  1.00  0.00    -0.035 A 
HETATM   16  C   UNL     1      44.186 -19.214   2.399  1.00  0.00     0.012 A 
HETATM   17  C   UNL     1      44.573 -20.381   3.064  1.00  0.00     0.037 A 
HETATM   18  C   UNL     1      44.721 -20.395   4.452  1.00  0.00     0.068 A 
HETATM   19  C   UNL     1      44.468 -19.230   5.174  1.00  0.00     0.037 A 
HETATM   20  C   UNL     1      44.077 -18.061   4.511  1.00  0.00     0.012 A 
BRANCH  18  21
HETATM   21  O   UNL     1      45.112 -21.597   4.974  1.00  0.00    -0.356 OA
HETATM   22  C   UNL     1      44.665 -22.767   4.300  1.00  0.00     0.210 C 
ENDBRANCH  18  21
ENDBRANCH   1  15
TORSDOF 5
ENDMDL
MODEL 2
REMARK VINA RESULT:      -6.8      3.628      4.594
REMARK  5 active torsions:
REMARK  status: ('A' for Active; 'I' for Inactive)
REMARK    1  A    between atoms: C_2  and  C_3 
REMARK    2  A    between atoms: C_3  and  N_4 
REMARK    3  A    between atoms: C_3  and  C_14 
REMARK       I    between atoms: N_4  and  C_5 
REMARK    4  A    between atoms: C_5  and  C_6 
REMARK    5  A    between atoms: C_17  and  O_18 
ROOT
HETATM    1  C   UNL     1      41.923 -16.149   3.606  1.00  0.00     0.117 C 
ENDROOT
BRANCH   1   2
HETATM    2  C   UNL     1      42.800 -15.080   4.289  1.00  0.00     0.025 C 
HETATM    3  C   UNL     1      43.608 -14.244   3.304  1.00  0.00     0.007 C 
ENDBRANCH   1   2
BRANCH   1   4
HETATM    4  N   UNL     1      41.417 -15.692   2.317  1.00  0.00    -0.348 N 
HETATM    5  C   UNL     1      40.223 -15.019   2.192  1.00  0.00     0.253 C 
HETATM    6  O   UNL     1      39.498 -14.739   3.139  1.00  0.00    -0.268 OA
HETATM    7  H   UNL     1      41.892 -16.036   1.496  1.00  0.00     0.163 HD
BRANCH   5   8
HETATM    8  C   UNL     1      39.808 -14.649   0.817  1.00  0.00     0.050 A 
HETATM    9  C   UNL     1      38.550 -14.083   0.632  1.00  0.00     0.133 A 
HETATM   10  N   UNL     1      38.058 -13.707  -0.576  1.00  0.00    -0.271 NA
HETATM   11  C   UNL     1      38.868 -13.894  -1.644  1.00  0.00     0.135 A 
HETATM   12  C   UNL     1      40.143 -14.433  -1.554  1.00  0.00     0.029 A 
HETATM   13 BR   UNL     1      41.211 -14.642  -3.094  1.00  0.00    -0.050 Br
HETATM   14  C   UNL     1      40.626 -14.814  -0.304  1.00  0.00     0.039 A 
ENDBRANCH   5   8
ENDBRANCH   1   4
BRANCH   1  15
HETATM   15  C   UNL     1      42.682 -17.452   3.394  1.00  0.00    -0.035 A 
HETATM   16  C   UNL     1      42.597 -18.113   2.162  1.00  0.00     0.012 A 
HETATM   17  C   UNL     1      43.311 -19.293   1.935  1.00  0.00     0.037 A 
HETATM   18  C   UNL     1      44.133 -19.829   2.927  1.00  0.00     0.068 A 
HETATM   19  C   UNL     1      44.229 -19.179   4.156  1.00  0.00     0.037 A 
HETATM   20  C   UNL     1      43.512 -17.999   4.387  1.00  0.00     0.012 A 
BRANCH  18  21
HETATM   21  O   UNL     1      44.782 -20.980   2.572  1.00  0.00    -0.356 OA
HETATM   22  C   UNL     1      44.085 -21.871   1.710  1.00  0.00     0.210 C 
ENDBRANCH  18  21
ENDBRANCH   1  15
TORSDOF 5
ENDMDL
MODEL 3
REMARK VINA RESULT:      -6.8      3.768      4.840
REMARK  5 active torsions:
REMARK  status: ('A' for Active; 'I' for Inactive)
REMARK    1  A    between atoms: C_2  and  C_3 
REMARK    2  A    between atoms: C_3  and  N_4 
REMARK    3  A    between atoms: C_3  and  C_14 
REMARK       I    between atoms: N_4  and  C_5 
REMARK    4  A    between atoms: C_5  and  C_6 
REMARK    5  A    between atoms: C_17  and  O_18 
ROOT
HETATM    1  C   UNL     1      43.528 -19.361   2.237  1.00  0.00     0.117 C 
ENDROOT
BRANCH   1   2
HETATM    2  C   UNL     1      43.077 -20.794   1.887  1.00  0.00     0.025 C 
HETATM    3  C   UNL     1      44.239 -21.756   1.670  1.00  0.00     0.007 C 
ENDBRANCH   1   2
BRANCH   1   4
HETATM    4  N   UNL     1      42.662 -18.358   1.628  1.00  0.00    -0.348 N 
HETATM    5  C   UNL     1      43.138 -17.144   1.188  1.00  0.00     0.253 C 
HETATM    6  O   UNL     1      44.315 -16.809   1.259  1.00  0.00    -0.268 OA
HETATM    7  H   UNL     1      41.668 -18.517   1.693  1.00  0.00     0.163 HD
BRANCH   5   8
HETATM    8  C   UNL     1      42.141 -16.201   0.627  1.00  0.00     0.050 A 
HETATM    9  C   UNL     1      41.561 -15.263   1.477  1.00  0.00     0.133 A 
HETATM   10  N   UNL     1      40.635 -14.353   1.083  1.00  0.00    -0.271 NA
HETATM   11  C   UNL     1      40.286 -14.371  -0.224  1.00  0.00     0.135 A 
HETATM   12  C   UNL     1      40.824 -15.255  -1.148  1.00  0.00     0.029 A 
HETATM   13 BR   UNL     1      40.290 -15.201  -2.956  1.00  0.00    -0.050 Br
HETATM   14  C   UNL     1      41.769 -16.184  -0.721  1.00  0.00     0.039 A 
ENDBRANCH   5   8
ENDBRANCH   1   4
BRANCH   1  15
HETATM   15  C   UNL     1      43.554 -19.128   3.741  1.00  0.00    -0.035 A 
HETATM   16  C   UNL     1      44.627 -19.615   4.500  1.00  0.00     0.012 A 
HETATM   17  C   UNL     1      44.686 -19.385   5.878  1.00  0.00     0.037 A 
HETATM   18  C   UNL     1      43.686 -18.655   6.522  1.00  0.00     0.068 A 
HETATM   19  C   UNL     1      42.617 -18.163   5.777  1.00  0.00     0.037 A 
HETATM   20  C   UNL     1      42.552 -18.396   4.398  1.00  0.00     0.012 A 
BRANCH  18  21
HETATM   21  O   UNL     1      43.872 -18.496   7.868  1.00  0.00    -0.356 OA
HETATM   22  C   UNL     1      43.427 -17.271   8.438  1.00  0.00     0.210 C 
ENDBRANCH  18  21
ENDBRANCH   1  15
TORSDOF 5
ENDMDL
MODEL 4
REMARK VINA RESULT:      -6.8      3.520      4.460
REMARK  5 active torsions:
REMARK  status: ('A' for Active; 'I' for Inactive)
REMARK    1  A    between atoms: C_2  and  C_3 
REMARK    2  A    between atoms: C_3  and  N_4 
REMARK    3  A    between atoms: C_3  and  C_14 
REMARK       I    between atoms: N_4  and  C_5 
REMARK    4  A    between atoms: C_5  and  C_6 
REMARK    5  A    between atoms: C_17  and  O_18 
ROOT
HETATM    1  C   UNL     1      41.652 -16.571   3.849  1.00  0.00     0.117 C 
ENDROOT
BRANCH   1   2
HETATM    2  C   UNL     1      41.872 -16.038   5.280  1.00  0.00     0.025 C 
HETATM    3  C   UNL     1      40.701 -16.317   6.215  1.00  0.00     0.007 C 
ENDBRANCH   1   2
BRANCH   1   4
HETATM    4  N   UNL     1      41.942 -15.555   2.843  1.00  0.00    -0.348 N 
HETATM    5  C   UNL     1      41.004 -15.141   1.925  1.00  0.00     0.253 C 
HETATM    6  O   UNL     1      39.859 -15.575   1.880  1.00  0.00    -0.268 OA
HETATM    7  H   UNL     1      42.908 -15.287   2.735  1.00  0.00     0.163 HD
BRANCH   5   8
HETATM    8  C   UNL     1      41.445 -14.133   0.932  1.00  0.00     0.050 A 
HETATM    9  C   UNL     1      42.020 -12.952   1.393  1.00  0.00     0.133 A 
HETATM   10  N   UNL     1      42.459 -11.955   0.584  1.00  0.00    -0.271 NA
HETATM   11  C   UNL     1      42.330 -12.156  -0.748  1.00  0.00     0.135 A 
HETATM   12  C   UNL     1      41.788 -13.307  -1.300  1.00  0.00     0.029 A 
HETATM   13 BR   UNL     1      41.662 -13.510  -3.171  1.00  0.00    -0.050 Br
HETATM   14  C   UNL     1      41.341 -14.316  -0.451  1.00  0.00     0.039 A 
ENDBRANCH   5   8
ENDBRANCH   1   4
BRANCH   1  15
HETATM   15  C   UNL     1      42.512 -17.794   3.564  1.00  0.00    -0.035 A 
HETATM   16  C   UNL     1      42.460 -18.401   2.302  1.00  0.00     0.012 A 
HETATM   17  C   UNL     1      43.265 -19.506   2.010  1.00  0.00     0.037 A 
HETATM   18  C   UNL     1      44.146 -20.019   2.963  1.00  0.00     0.068 A 
HETATM   19  C   UNL     1      44.209 -19.421   4.220  1.00  0.00     0.037 A 
HETATM   20  C   UNL     1      43.401 -18.317   4.518  1.00  0.00     0.012 A 
BRANCH  18  21
HETATM   21  O   UNL     1      44.880 -21.094   2.544  1.00  0.00    -0.356 OA
HETATM   22  C   UNL     1      44.257 -21.978   1.621  1.00  0.00     0.210 C 
ENDBRANCH  18  21
ENDBRANCH   1  15
TORSDOF 5
ENDMDL
MODEL 5
REMARK VINA RESULT:      -6.8      2.653      3.616
REMARK  5 active torsions:
REMARK  status: ('A' for Active; 'I' for Inactive)
REMARK    1  A    between atoms: C_2  and  C_3 
REMARK    2  A    between atoms: C_3  and  N_4 
REMARK    3  A    between atoms: C_3  and  C_14 
REMARK       I    between atoms: N_4  and  C_5 
REMARK    4  A    between atoms: C_5  and  C_6 
REMARK    5  A    between atoms: C_17  and  O_18 
ROOT
HETATM    1  C   UNL     1      43.246 -16.925   5.859  1.00  0.00     0.117 C 
ENDROOT
BRANCH   1   2
HETATM    2  C   UNL     1      44.434 -16.358   6.665  1.00  0.00     0.025 C 
HETATM    3  C   UNL     1      44.273 -14.886   7.022  1.00  0.00     0.007 C 
ENDBRANCH   1   2
BRANCH   1   4
HETATM    4  N   UNL     1      42.582 -15.892   5.074  1.00  0.00    -0.348 N 
HETATM    5  C   UNL     1      41.262 -15.553   5.270  1.00  0.00     0.253 C 
HETATM    6  O   UNL     1      40.545 -16.074   6.115  1.00  0.00    -0.268 OA
HETATM    7  H   UNL     1      43.078 -15.549   4.265  1.00  0.00     0.163 HD
BRANCH   5   8
HETATM    8  C   UNL     1      40.702 -14.514   4.372  1.00  0.00     0.050 A 
HETATM    9  C   UNL     1      41.039 -13.183   4.603  1.00  0.00     0.133 A 
HETATM   10  N   UNL     1      40.588 -12.145   3.855  1.00  0.00    -0.271 NA
HETATM   11  C   UNL     1      39.774 -12.455   2.818  1.00  0.00     0.135 A 
HETATM   12  C   UNL     1      39.399 -13.753   2.501  1.00  0.00     0.029 A 
HETATM   13 BR   UNL     1      38.273 -14.095   1.027  1.00  0.00    -0.050 Br
HETATM   14  C   UNL     1      39.872 -14.802   3.285  1.00  0.00     0.039 A 
ENDBRANCH   5   8
ENDBRANCH   1   4
BRANCH   1  15
HETATM   15  C   UNL     1      43.683 -18.042   4.920  1.00  0.00    -0.035 A 
HETATM   16  C   UNL     1      44.491 -19.079   5.403  1.00  0.00     0.012 A 
HETATM   17  C   UNL     1      44.877 -20.130   4.565  1.00  0.00     0.037 A 
HETATM   18  C   UNL     1      44.454 -20.173   3.236  1.00  0.00     0.068 A 
HETATM   19  C   UNL     1      43.647 -19.149   2.746  1.00  0.00     0.037 A 
HETATM   20  C   UNL     1      43.262 -18.093   3.581  1.00  0.00     0.012 A 
BRANCH  18  21
HETATM   21  O   UNL     1      44.895 -21.259   2.531  1.00  0.00    -0.356 OA
HETATM   22  C   UNL     1      43.975 -21.852   1.622  1.00  0.00     0.210 C 
ENDBRANCH  18  21
ENDBRANCH   1  15
TORSDOF 5
ENDMDL
MODEL 6
REMARK VINA RESULT:      -6.6      0.544      1.183
REMARK  5 active torsions:
REMARK  status: ('A' for Active; 'I' for Inactive)
REMARK    1  A    between atoms: C_2  and  C_3 
REMARK    2  A    between atoms: C_3  and  N_4 
REMARK    3  A    between atoms: C_3  and  C_14 
REMARK       I    between atoms: N_4  and  C_5 
REMARK    4  A    between atoms: C_5  and  C_6 
REMARK    5  A    between atoms: C_17  and  O_18 
ROOT
HETATM    1  C   UNL     1      43.150 -16.555   2.045  1.00  0.00     0.117 C 
ENDROOT
BRANCH   1   2
HETATM    2  C   UNL     1      42.370 -16.914   0.763  1.00  0.00     0.025 C 
HETATM    3  C   UNL     1      41.636 -15.727   0.151  1.00  0.00     0.007 C 
ENDBRANCH   1   2
BRANCH   1   4
HETATM    4  N   UNL     1      42.327 -15.806   2.988  1.00  0.00    -0.348 N 
HETATM    5  C   UNL     1      42.633 -14.519   3.371  1.00  0.00     0.253 C 
HETATM    6  O   UNL     1      43.602 -13.898   2.952  1.00  0.00    -0.268 OA
HETATM    7  H   UNL     1      41.615 -16.325   3.480  1.00  0.00     0.163 HD
BRANCH   5   8
HETATM    8  C   UNL     1      41.733 -13.891   4.368  1.00  0.00     0.050 A 
HETATM    9  C   UNL     1      40.466 -14.435   4.557  1.00  0.00     0.133 A 
HETATM   10  N   UNL     1      39.554 -13.946   5.436  1.00  0.00    -0.271 NA
HETATM   11  C   UNL     1      39.935 -12.875   6.170  1.00  0.00     0.135 A 
HETATM   12  C   UNL     1      41.182 -12.278   6.064  1.00  0.00     0.029 A 
HETATM   13 BR   UNL     1      41.634 -10.795   7.138  1.00  0.00    -0.050 Br
HETATM   14  C   UNL     1      42.101 -12.793   5.153  1.00  0.00     0.039 A 
ENDBRANCH   5   8
ENDBRANCH   1   4
BRANCH   1  15
HETATM   15  C   UNL     1      43.682 -17.796   2.748  1.00  0.00    -0.035 A 
HETATM   16  C   UNL     1      43.812 -17.802   4.143  1.00  0.00     0.012 A 
HETATM   17  C   UNL     1      44.269 -18.943   4.811  1.00  0.00     0.037 A 
HETATM   18  C   UNL     1      44.593 -20.101   4.103  1.00  0.00     0.068 A 
HETATM   19  C   UNL     1      44.465 -20.107   2.715  1.00  0.00     0.037 A 
HETATM   20  C   UNL     1      44.012 -18.966   2.044  1.00  0.00     0.012 A 
BRANCH  18  21
HETATM   21  O   UNL     1      45.018 -21.145   4.878  1.00  0.00    -0.356 OA
HETATM   22  C   UNL     1      44.749 -22.455   4.395  1.00  0.00     0.210 C 
ENDBRANCH  18  21
ENDBRANCH   1  15
TORSDOF 5
ENDMDL
MODEL 7
REMARK VINA RESULT:      -6.5      5.552      9.018
REMARK  5 active torsions:
REMARK  status: ('A' for Active; 'I' for Inactive)
REMARK    1  A    between atoms: C_2  and  C_3 
REMARK    2  A    between atoms: C_3  and  N_4 
REMARK    3  A    between atoms: C_3  and  C_14 
REMARK       I    between atoms: N_4  and  C_5 
REMARK    4  A    between atoms: C_5  and  C_6 
REMARK    5  A    between atoms: C_17  and  O_18 
ROOT
HETATM    1  C   UNL     1      44.756 -12.330   8.601  1.00  0.00     0.117 C 
ENDROOT
BRANCH   1   2
HETATM    2  C   UNL     1      46.249 -12.314   8.987  1.00  0.00     0.025 C 
HETATM    3  C   UNL     1      47.138 -11.662   7.934  1.00  0.00     0.007 C 
ENDBRANCH   1   2
BRANCH   1   4
HETATM    4  N   UNL     1      44.298 -13.673   8.262  1.00  0.00    -0.348 N 
HETATM    5  C   UNL     1      44.418 -14.193   6.993  1.00  0.00     0.253 C 
HETATM    6  O   UNL     1      44.921 -13.586   6.055  1.00  0.00    -0.268 OA
HETATM    7  H   UNL     1      43.736 -14.147   8.952  1.00  0.00     0.163 HD
BRANCH   5   8
HETATM    8  C   UNL     1      43.873 -15.554   6.778  1.00  0.00     0.050 A 
HETATM    9  C   UNL     1      43.577 -16.336   7.891  1.00  0.00     0.133 A 
HETATM   10  N   UNL     1      43.079 -17.596   7.823  1.00  0.00    -0.271 NA
HETATM   11  C   UNL     1      42.851 -18.091   6.583  1.00  0.00     0.135 A 
HETATM   12  C   UNL     1      43.097 -17.379   5.418  1.00  0.00     0.029 A 
HETATM   13 BR   UNL     1      42.735 -18.141   3.731  1.00  0.00    -0.050 Br
HETATM   14  C   UNL     1      43.612 -16.089   5.512  1.00  0.00     0.039 A 
ENDBRANCH   5   8
ENDBRANCH   1   4
BRANCH   1  15
HETATM   15  C   UNL     1      43.878 -11.788   9.720  1.00  0.00    -0.035 A 
HETATM   16  C   UNL     1      44.102 -12.200  11.040  1.00  0.00     0.012 A 
HETATM   17  C   UNL     1      43.327 -11.690  12.087  1.00  0.00     0.037 A 
HETATM   18  C   UNL     1      42.325 -10.751  11.839  1.00  0.00     0.068 A 
HETATM   19  C   UNL     1      42.095 -10.331  10.531  1.00  0.00     0.037 A 
HETATM   20  C   UNL     1      42.866 -10.843   9.480  1.00  0.00     0.012 A 
BRANCH  18  21
HETATM   21  O   UNL     1      41.650 -10.328  12.951  1.00  0.00    -0.356 OA
HETATM   22  C   UNL     1      42.387 -10.264  14.165  1.00  0.00     0.210 C 
ENDBRANCH  18  21
ENDBRANCH   1  15
TORSDOF 5
ENDMDL
MODEL 8
REMARK VINA RESULT:      -6.5      5.124      6.873
REMARK  5 active torsions:
REMARK  status: ('A' for Active; 'I' for Inactive)
REMARK    1  A    between atoms: C_2  and  C_3 
REMARK    2  A    between atoms: C_3  and  N_4 
REMARK    3  A    between atoms: C_3  and  C_14 
REMARK       I    between atoms: N_4  and  C_5 
REMARK    4  A    between atoms: C_5  and  C_6 
REMARK    5  A    between atoms: C_17  and  O_18 
ROOT
HETATM    1  C   UNL     1      45.081 -13.434   7.945  1.00  0.00     0.117 C 
ENDROOT
BRANCH   1   2
HETATM    2  C   UNL     1      46.315 -12.878   7.204  1.00  0.00     0.025 C 
HETATM    3  C   UNL     1      47.053 -11.799   7.985  1.00  0.00     0.007 C 
ENDBRANCH   1   2
BRANCH   1   4
HETATM    4  N   UNL     1      44.341 -12.380   8.630  1.00  0.00    -0.348 N 
HETATM    5  C   UNL     1      44.371 -12.229   9.998  1.00  0.00     0.253 C 
HETATM    6  O   UNL     1      45.020 -12.950  10.747  1.00  0.00    -0.268 OA
HETATM    7  H   UNL     1      43.670 -11.866   8.079  1.00  0.00     0.163 HD
BRANCH   5   8
HETATM    8  C   UNL     1      43.538 -11.142  10.566  1.00  0.00     0.050 A 
HETATM    9  C   UNL     1      42.596 -10.528   9.745  1.00  0.00     0.133 A 
HETATM   10  N   UNL     1      41.780  -9.521  10.149  1.00  0.00    -0.271 NA
HETATM   11  C   UNL     1      41.902  -9.122  11.436  1.00  0.00     0.135 A 
HETATM   12  C   UNL     1      42.799  -9.687  12.331  1.00  0.00     0.029 A 
HETATM   13 BR   UNL     1      42.891  -9.078  14.114  1.00  0.00    -0.050 Br
HETATM   14  C   UNL     1      43.629 -10.717  11.895  1.00  0.00     0.039 A 
ENDBRANCH   5   8
ENDBRANCH   1   4
BRANCH   1  15
HETATM   15  C   UNL     1      44.131 -14.155   6.999  1.00  0.00    -0.035 A 
HETATM   16  C   UNL     1      44.138 -15.555   6.943  1.00  0.00     0.012 A 
HETATM   17  C   UNL     1      43.252 -16.239   6.105  1.00  0.00     0.037 A 
HETATM   18  C   UNL     1      42.336 -15.541   5.316  1.00  0.00     0.068 A 
HETATM   19  C   UNL     1      42.318 -14.149   5.366  1.00  0.00     0.037 A 
HETATM   20  C   UNL     1      43.206 -13.462   6.201  1.00  0.00     0.012 A 
BRANCH  18  21
HETATM   21  O   UNL     1      41.522 -16.331   4.551  1.00  0.00    -0.356 OA
HETATM   22  C   UNL     1      41.259 -17.642   5.034  1.00  0.00     0.210 C 
ENDBRANCH  18  21
ENDBRANCH   1  15
TORSDOF 5
ENDMDL
MODEL 9
REMARK VINA RESULT:      -6.4      6.294      9.793
REMARK  5 active torsions:
REMARK  status: ('A' for Active; 'I' for Inactive)
REMARK    1  A    between atoms: C_2  and  C_3 
REMARK    2  A    between atoms: C_3  and  N_4 
REMARK    3  A    between atoms: C_3  and  C_14 
REMARK       I    between atoms: N_4  and  C_5 
REMARK    4  A    between atoms: C_5  and  C_6 
REMARK    5  A    between atoms: C_17  and  O_18 
ROOT
HETATM    1  C   UNL     1      43.805 -10.650   9.772  1.00  0.00     0.117 C 
ENDROOT
BRANCH   1   2
HETATM    2  C   UNL     1      45.198 -11.310   9.834  1.00  0.00     0.025 C 
HETATM    3  C   UNL     1      45.402 -12.388   8.776  1.00  0.00     0.007 C 
ENDBRANCH   1   2
BRANCH   1   4
HETATM    4  N   UNL     1      42.914 -11.348   8.853  1.00  0.00    -0.348 N 
HETATM    5  C   UNL     1      42.161 -10.685   7.911  1.00  0.00     0.253 C 
HETATM    6  O   UNL     1      42.180  -9.469   7.759  1.00  0.00    -0.268 OA
HETATM    7  H   UNL     1      42.742 -12.324   9.043  1.00  0.00     0.163 HD
BRANCH   5   8
HETATM    8  C   UNL     1      41.266 -11.515   7.070  1.00  0.00     0.050 A 
HETATM    9  C   UNL     1      39.892 -11.429   7.275  1.00  0.00     0.133 A 
HETATM   10  N   UNL     1      38.974 -12.141   6.571  1.00  0.00    -0.271 NA
HETATM   11  C   UNL     1      39.454 -12.963   5.609  1.00  0.00     0.135 A 
HETATM   12  C   UNL     1      40.804 -13.099   5.321  1.00  0.00     0.029 A 
HETATM   13 BR   UNL     1      41.383 -14.258   3.951  1.00  0.00    -0.050 Br
HETATM   14  C   UNL     1      41.728 -12.362   6.058  1.00  0.00     0.039 A 
ENDBRANCH   5   8
ENDBRANCH   1   4
BRANCH   1  15
HETATM   15  C   UNL     1      43.143 -10.599  11.143  1.00  0.00    -0.035 A 
HETATM   16  C   UNL     1      43.750  -9.880  12.181  1.00  0.00     0.012 A 
HETATM   17  C   UNL     1      43.143  -9.795  13.437  1.00  0.00     0.037 A 
HETATM   18  C   UNL     1      41.916 -10.413  13.679  1.00  0.00     0.068 A 
HETATM   19  C   UNL     1      41.301 -11.128  12.653  1.00  0.00     0.037 A 
HETATM   20  C   UNL     1      41.908 -11.219  11.395  1.00  0.00     0.012 A 
BRANCH  18  21
HETATM   21  O   UNL     1      41.429 -10.243  14.946  1.00  0.00    -0.356 OA
HETATM   22  C   UNL     1      42.098  -9.297  15.771  1.00  0.00     0.210 C 
ENDBRANCH  18  21
ENDBRANCH   1  15
TORSDOF 5
ENDMDL
MODEL 10
REMARK VINA RESULT:      -6.3      3.840      7.182
REMARK  5 active torsions:
REMARK  status: ('A' for Active; 'I' for Inactive)
REMARK    1  A    between atoms: C_2  and  C_3 
REMARK    2  A    between atoms: C_3  and  N_4 
REMARK    3  A    between atoms: C_3  and  C_14 
REMARK       I    between atoms: N_4  and  C_5 
REMARK    4  A    between atoms: C_5  and  C_6 
REMARK    5  A    between atoms: C_17  and  O_18 
ROOT
HETATM    1  C   UNL     1      41.268 -14.958   3.032  1.00  0.00     0.117 C 
ENDROOT
BRANCH   1   2
HETATM    2  C   UNL     1      39.993 -14.818   3.888  1.00  0.00     0.025 C 
HETATM    3  C   UNL     1      40.276 -14.416   5.331  1.00  0.00     0.007 C 
ENDBRANCH   1   2
BRANCH   1   4
HETATM    4  N   UNL     1      41.913 -16.252   3.227  1.00  0.00    -0.348 N 
HETATM    5  C   UNL     1      43.041 -16.402   4.002  1.00  0.00     0.253 C 
HETATM    6  O   UNL     1      43.587 -15.479   4.594  1.00  0.00    -0.268 OA
HETATM    7  H   UNL     1      41.600 -17.007   2.637  1.00  0.00     0.163 HD
BRANCH   5   8
HETATM    8  C   UNL     1      43.616 -17.766   4.081  1.00  0.00     0.050 A 
HETATM    9  C   UNL     1      44.294 -18.136   5.239  1.00  0.00     0.133 A 
HETATM   10  N   UNL     1      44.866 -19.353   5.427  1.00  0.00    -0.271 NA
HETATM   11  C   UNL     1      44.740 -20.244   4.416  1.00  0.00     0.135 A 
HETATM   12  C   UNL     1      44.067 -19.971   3.234  1.00  0.00     0.029 A 
HETATM   13 BR   UNL     1      43.927 -21.279   1.883  1.00  0.00    -0.050 Br
HETATM   14  C   UNL     1      43.491 -18.715   3.061  1.00  0.00     0.039 A 
ENDBRANCH   5   8
ENDBRANCH   1   4
BRANCH   1  15
HETATM   15  C   UNL     1      40.974 -14.783   1.548  1.00  0.00    -0.035 A 
HETATM   16  C   UNL     1      41.506 -15.691   0.623  1.00  0.00     0.012 A 
HETATM   17  C   UNL     1      41.222 -15.567  -0.740  1.00  0.00     0.037 A 
HETATM   18  C   UNL     1      40.394 -14.545  -1.206  1.00  0.00     0.068 A 
HETATM   19  C   UNL     1      39.856 -13.638  -0.295  1.00  0.00     0.037 A 
HETATM   20  C   UNL     1      40.142 -13.757   1.071  1.00  0.00     0.012 A 
BRANCH  18  21
HETATM   21  O   UNL     1      40.191 -14.544  -2.558  1.00  0.00    -0.356 OA
HETATM   22  C   UNL     1      41.288 -14.151  -3.373  1.00  0.00     0.210 C 
ENDBRANCH  18  21
ENDBRANCH   1  15
TORSDOF 5
ENDMDL
