MODEL 1
REMARK VINA RESULT:      -8.8      0.000      0.000
REMARK  7 active torsions:
REMARK  status: ('A' for Active; 'I' for Inactive)
REMARK       I    between atoms: N_2  and  C_3 
REMARK    1  A    between atoms: N_2  and  C_24 
REMARK    2  A    between atoms: C_3  and  C_4 
REMARK    3  A    between atoms: C_7  and  N_8 
REMARK    4  A    between atoms: C_11  and  N_12 
REMARK       I    between atoms: N_12  and  C_13 
REMARK    5  A    between atoms: C_13  and  C_14 
REMARK    6  A    between atoms: C_24  and  C_25 
REMARK    7  A    between atoms: C_27  and  O_28 
ROOT
HETATM    1  C   UNL     1      42.635 -16.694   5.627  1.00  0.00     0.032 A 
HETATM    2  C   UNL     1      41.520 -17.078   4.871  1.00  0.00     0.019 A 
HETATM    3  C   UNL     1      41.190 -16.399   3.699  1.00  0.00     0.032 A 
HETATM    4  C   UNL     1      41.984 -15.332   3.253  1.00  0.00     0.058 A 
HETATM    5  C   UNL     1      43.067 -14.907   4.037  1.00  0.00     0.032 A 
HETATM    6  C   UNL     1      43.373 -15.573   5.236  1.00  0.00     0.019 A 
ENDROOT
BRANCH   4   7
HETATM    7  N   UNL     1      41.686 -14.741   1.992  1.00  0.00    -0.243 N 
HETATM    8  N   UNL     1      42.148 -13.502   1.690  1.00  0.00    -0.178 NA
HETATM    9  C   UNL     1      41.570 -13.195   0.528  1.00  0.00     0.170 A 
HETATM   10  C   UNL     1      40.734 -14.224   0.057  1.00  0.00     0.071 A 
HETATM   11  C   UNL     1      40.878 -15.234   0.983  1.00  0.00     0.149 A 
BRANCH  10  12
HETATM   12  N   UNL     1      39.897 -14.283  -1.045  1.00  0.00    -0.324 N 
HETATM   13  C   UNL     1      40.312 -14.726  -2.291  1.00  0.00     0.228 C 
HETATM   14  O   UNL     1      41.420 -15.190  -2.542  1.00  0.00    -0.273 OA
HETATM   15  H   UNL     1      38.972 -13.889  -0.938  1.00  0.00     0.169 HD
BRANCH  13  16
HETATM   16  C   UNL     1      39.274 -14.502  -3.372  1.00  0.00     0.104 C 
HETATM   17  C   UNL     1      38.960 -15.764  -4.158  1.00  0.00     0.181 C 
HETATM   18  O   UNL     1      37.625 -15.614  -4.667  1.00  0.00    -0.390 OA
HETATM   19  C   UNL     1      37.007 -14.505  -4.008  1.00  0.00     0.168 C 
HETATM   20  C   UNL     1      37.906 -14.121  -2.853  1.00  0.00     0.042 C 
ENDBRANCH  13  16
ENDBRANCH  10  12
ENDBRANCH   4   7
BRANCH   1  21
HETATM   21  C   UNL     1      42.917 -17.508   6.836  1.00  0.00     0.253 C 
HETATM   22  N   UNL     1      43.924 -18.477   6.835  1.00  0.00    -0.348 N 
HETATM   23  C   UNL     1      43.955 -19.431   7.938  1.00  0.00     0.153 C 
HETATM   24  O   UNL     1      42.155 -17.351   7.790  1.00  0.00    -0.267 OA
BRANCH  22  25
HETATM   25  C   UNL     1      45.015 -18.586   5.865  1.00  0.00     0.164 C 
BRANCH  25  26
HETATM   26  C   UNL     1      44.667 -19.389   4.623  1.00  0.00    -0.038 A 
HETATM   27  C   UNL     1      44.190 -18.798   3.437  1.00  0.00     0.045 A 
HETATM   28  C   UNL     1      43.915 -19.565   2.303  1.00  0.00     0.068 A 
HETATM   29  C   UNL     1      44.078 -20.948   2.362  1.00  0.00     0.037 A 
HETATM   30  C   UNL     1      44.531 -21.558   3.531  1.00  0.00     0.003 A 
HETATM   31  C   UNL     1      44.828 -20.783   4.653  1.00  0.00     0.009 A 
BRANCH  28  32
HETATM   32  O   UNL     1      43.480 -19.083   1.099  1.00  0.00    -0.356 OA
HETATM   33  C   UNL     1      43.642 -17.686   0.874  1.00  0.00     0.210 C 
ENDBRANCH  28  32
ENDBRANCH  25  26
ENDBRANCH  22  25
ENDBRANCH   1  21
TORSDOF 7
ENDMDL
MODEL 2
REMARK VINA RESULT:      -8.6      4.822      9.184
REMARK  7 active torsions:
REMARK  status: ('A' for Active; 'I' for Inactive)
REMARK       I    between atoms: N_2  and  C_3 
REMARK    1  A    between atoms: N_2  and  C_24 
REMARK    2  A    between atoms: C_3  and  C_4 
REMARK    3  A    between atoms: C_7  and  N_8 
REMARK    4  A    between atoms: C_11  and  N_12 
REMARK       I    between atoms: N_12  and  C_13 
REMARK    5  A    between atoms: C_13  and  C_14 
REMARK    6  A    between atoms: C_24  and  C_25 
REMARK    7  A    between atoms: C_27  and  O_28 
ROOT
HETATM    1  C   UNL     1      42.289 -15.599   3.920  1.00  0.00     0.032 A 
HETATM    2  C   UNL     1      42.268 -15.992   5.264  1.00  0.00     0.019 A 
HETATM    3  C   UNL     1      42.974 -15.270   6.225  1.00  0.00     0.032 A 
HETATM    4  C   UNL     1      43.701 -14.128   5.858  1.00  0.00     0.058 A 
HETATM    5  C   UNL     1      43.774 -13.765   4.505  1.00  0.00     0.032 A 
HETATM    6  C   UNL     1      43.089 -14.518   3.536  1.00  0.00     0.019 A 
ENDROOT
BRANCH   4   7
HETATM    7  N   UNL     1      44.311 -13.349   6.883  1.00  0.00    -0.243 N 
HETATM    8  N   UNL     1      45.620 -13.524   7.190  1.00  0.00    -0.178 NA
HETATM    9  C   UNL     1      45.823 -12.769   8.269  1.00  0.00     0.170 A 
HETATM   10  C   UNL     1      44.659 -12.092   8.676  1.00  0.00     0.071 A 
HETATM   11  C   UNL     1      43.718 -12.429   7.729  1.00  0.00     0.149 A 
BRANCH  10  12
HETATM   12  N   UNL     1      44.414 -11.286   9.776  1.00  0.00    -0.324 N 
HETATM   13  C   UNL     1      44.224 -11.785  11.055  1.00  0.00     0.228 C 
HETATM   14  O   UNL     1      44.333 -12.964  11.376  1.00  0.00    -0.273 OA
HETATM   15  H   UNL     1      44.275 -10.301   9.598  1.00  0.00     0.169 HD
BRANCH  13  16
HETATM   16  C   UNL     1      43.771 -10.725  12.040  1.00  0.00     0.104 C 
HETATM   17  C   UNL     1      43.058  -9.564  11.368  1.00  0.00     0.181 C 
HETATM   18  O   UNL     1      42.178  -8.994  12.351  1.00  0.00    -0.390 OA
HETATM   19  C   UNL     1      42.085  -9.895  13.458  1.00  0.00     0.168 C 
HETATM   20  C   UNL     1      42.724 -11.196  13.023  1.00  0.00     0.042 C 
ENDBRANCH  13  16
ENDBRANCH  10  12
ENDBRANCH   4   7
BRANCH   1  21
HETATM   21  C   UNL     1      41.473 -16.416   2.987  1.00  0.00     0.253 C 
HETATM   22  N   UNL     1      42.069 -17.143   1.954  1.00  0.00    -0.348 N 
HETATM   23  C   UNL     1      41.204 -17.678   0.908  1.00  0.00     0.153 C 
HETATM   24  O   UNL     1      40.251 -16.333   3.114  1.00  0.00    -0.267 OA
BRANCH  22  25
HETATM   25  C   UNL     1      43.487 -17.494   1.852  1.00  0.00     0.164 C 
BRANCH  25  26
HETATM   26  C   UNL     1      43.861 -18.786   2.559  1.00  0.00    -0.038 A 
HETATM   27  C   UNL     1      44.098 -18.861   3.945  1.00  0.00     0.045 A 
HETATM   28  C   UNL     1      44.406 -20.075   4.565  1.00  0.00     0.068 A 
HETATM   29  C   UNL     1      44.519 -21.226   3.787  1.00  0.00     0.037 A 
HETATM   30  C   UNL     1      44.307 -21.173   2.410  1.00  0.00     0.003 A 
HETATM   31  C   UNL     1      43.976 -19.962   1.800  1.00  0.00     0.009 A 
BRANCH  28  32
HETATM   32  O   UNL     1      44.621 -20.255   5.903  1.00  0.00    -0.356 OA
HETATM   33  C   UNL     1      43.864 -19.437   6.789  1.00  0.00     0.210 C 
ENDBRANCH  28  32
ENDBRANCH  25  26
ENDBRANCH  22  25
ENDBRANCH   1  21
TORSDOF 7
ENDMDL
MODEL 3
REMARK VINA RESULT:      -8.4      4.265      7.321
REMARK  7 active torsions:
REMARK  status: ('A' for Active; 'I' for Inactive)
REMARK       I    between atoms: N_2  and  C_3 
REMARK    1  A    between atoms: N_2  and  C_24 
REMARK    2  A    between atoms: C_3  and  C_4 
REMARK    3  A    between atoms: C_7  and  N_8 
REMARK    4  A    between atoms: C_11  and  N_12 
REMARK       I    between atoms: N_12  and  C_13 
REMARK    5  A    between atoms: C_13  and  C_14 
REMARK    6  A    between atoms: C_24  and  C_25 
REMARK    7  A    between atoms: C_27  and  O_28 
ROOT
HETATM    1  C   UNL     1      43.062 -18.287   2.940  1.00  0.00     0.032 A 
HETATM    2  C   UNL     1      42.096 -18.100   3.936  1.00  0.00     0.019 A 
HETATM    3  C   UNL     1      41.819 -16.823   4.422  1.00  0.00     0.032 A 
HETATM    4  C   UNL     1      42.493 -15.707   3.905  1.00  0.00     0.058 A 
HETATM    5  C   UNL     1      43.503 -15.897   2.950  1.00  0.00     0.032 A 
HETATM    6  C   UNL     1      43.803 -17.190   2.489  1.00  0.00     0.019 A 
ENDROOT
BRANCH   4   7
HETATM    7  N   UNL     1      42.099 -14.409   4.341  1.00  0.00    -0.243 N 
HETATM    8  N   UNL     1      42.165 -13.353   3.492  1.00  0.00    -0.178 NA
HETATM    9  C   UNL     1      41.881 -12.291   4.246  1.00  0.00     0.170 A 
HETATM   10  C   UNL     1      41.623 -12.637   5.585  1.00  0.00     0.071 A 
HETATM   11  C   UNL     1      41.704 -14.012   5.605  1.00  0.00     0.149 A 
BRANCH  10  12
HETATM   12  N   UNL     1      41.375 -11.849   6.697  1.00  0.00    -0.324 N 
HETATM   13  C   UNL     1      40.105 -11.431   7.063  1.00  0.00     0.228 C 
HETATM   14  O   UNL     1      39.063 -11.770   6.510  1.00  0.00    -0.273 OA
HETATM   15  H   UNL     1      42.180 -11.494   7.194  1.00  0.00     0.169 HD
BRANCH  13  16
HETATM   16  C   UNL     1      40.121 -10.416   8.189  1.00  0.00     0.104 C 
HETATM   17  C   UNL     1      38.929 -10.553   9.122  1.00  0.00     0.181 C 
HETATM   18  O   UNL     1      39.339 -10.033  10.397  1.00  0.00    -0.390 OA
HETATM   19  C   UNL     1      40.760  -9.870  10.388  1.00  0.00     0.168 C 
HETATM   20  C   UNL     1      41.277 -10.570   9.151  1.00  0.00     0.042 C 
ENDBRANCH  13  16
ENDBRANCH  10  12
ENDBRANCH   4   7
BRANCH   1  21
HETATM   21  C   UNL     1      43.252 -19.682   2.467  1.00  0.00     0.253 C 
HETATM   22  N   UNL     1      44.403 -20.403   2.790  1.00  0.00    -0.348 N 
HETATM   23  C   UNL     1      44.661 -21.641   2.063  1.00  0.00     0.153 C 
HETATM   24  O   UNL     1      42.394 -20.121   1.701  1.00  0.00    -0.267 OA
BRANCH  22  25
HETATM   25  C   UNL     1      45.354 -20.079   3.855  1.00  0.00     0.164 C 
BRANCH  25  26
HETATM   26  C   UNL     1      44.763 -20.124   5.254  1.00  0.00    -0.038 A 
HETATM   27  C   UNL     1      44.693 -18.995   6.094  1.00  0.00     0.045 A 
HETATM   28  C   UNL     1      44.110 -19.067   7.361  1.00  0.00     0.068 A 
HETATM   29  C   UNL     1      43.624 -20.291   7.817  1.00  0.00     0.037 A 
HETATM   30  C   UNL     1      43.700 -21.427   7.011  1.00  0.00     0.003 A 
HETATM   31  C   UNL     1      44.262 -21.343   5.736  1.00  0.00     0.009 A 
BRANCH  28  32
HETATM   32  O   UNL     1      43.965 -18.024   8.234  1.00  0.00    -0.356 OA
HETATM   33  C   UNL     1      43.216 -16.905   7.774  1.00  0.00     0.210 C 
ENDBRANCH  28  32
ENDBRANCH  25  26
ENDBRANCH  22  25
ENDBRANCH   1  21
TORSDOF 7
ENDMDL
MODEL 4
REMARK VINA RESULT:      -8.3      5.246      9.088
REMARK  7 active torsions:
REMARK  status: ('A' for Active; 'I' for Inactive)
REMARK       I    between atoms: N_2  and  C_3 
REMARK    1  A    between atoms: N_2  and  C_24 
REMARK    2  A    between atoms: C_3  and  C_4 
REMARK    3  A    between atoms: C_7  and  N_8 
REMARK    4  A    between atoms: C_11  and  N_12 
REMARK       I    between atoms: N_12  and  C_13 
REMARK    5  A    between atoms: C_13  and  C_14 
REMARK    6  A    between atoms: C_24  and  C_25 
REMARK    7  A    between atoms: C_27  and  O_28 
ROOT
HETATM    1  C   UNL     1      40.876 -11.603   6.403  1.00  0.00     0.032 A 
HETATM    2  C   UNL     1      39.725 -12.379   6.215  1.00  0.00     0.019 A 
HETATM    3  C   UNL     1      39.826 -13.712   5.816  1.00  0.00     0.032 A 
HETATM    4  C   UNL     1      41.086 -14.296   5.615  1.00  0.00     0.058 A 
HETATM    5  C   UNL     1      42.238 -13.506   5.745  1.00  0.00     0.032 A 
HETATM    6  C   UNL     1      42.128 -12.154   6.113  1.00  0.00     0.019 A 
ENDROOT
BRANCH   4   7
HETATM    7  N   UNL     1      41.153 -15.689   5.325  1.00  0.00    -0.243 N 
HETATM    8  N   UNL     1      40.540 -16.587   6.135  1.00  0.00    -0.178 NA
HETATM    9  C   UNL     1      40.923 -17.779   5.676  1.00  0.00     0.170 A 
HETATM   10  C   UNL     1      41.780 -17.675   4.565  1.00  0.00     0.071 A 
HETATM   11  C   UNL     1      41.859 -16.322   4.318  1.00  0.00     0.149 A 
BRANCH  10  12
HETATM   12  N   UNL     1      42.461 -18.645   3.849  1.00  0.00    -0.324 N 
HETATM   13  C   UNL     1      43.729 -19.090   4.189  1.00  0.00     0.228 C 
HETATM   14  O   UNL     1      44.351 -18.750   5.190  1.00  0.00    -0.273 OA
HETATM   15  H   UNL     1      42.036 -18.960   2.987  1.00  0.00     0.169 HD
BRANCH  13  16
HETATM   16  C   UNL     1      44.337 -19.998   3.138  1.00  0.00     0.104 C 
HETATM   17  C   UNL     1      44.711 -21.365   3.687  1.00  0.00     0.181 C 
HETATM   18  O   UNL     1      44.672 -22.280   2.580  1.00  0.00    -0.390 OA
HETATM   19  C   UNL     1      44.020 -21.639   1.479  1.00  0.00     0.168 C 
HETATM   20  C   UNL     1      43.394 -20.370   2.016  1.00  0.00     0.042 C 
ENDBRANCH  13  16
ENDBRANCH  10  12
ENDBRANCH   4   7
BRANCH   1  21
HETATM   21  C   UNL     1      40.656 -10.209   6.865  1.00  0.00     0.253 C 
HETATM   22  N   UNL     1      40.332  -9.932   8.195  1.00  0.00    -0.348 N 
HETATM   23  C   UNL     1      39.846  -8.595   8.515  1.00  0.00     0.153 C 
HETATM   24  O   UNL     1      40.676  -9.337   5.996  1.00  0.00    -0.267 OA
BRANCH  22  25
HETATM   25  C   UNL     1      40.506 -10.838   9.332  1.00  0.00     0.164 C 
BRANCH  25  26
HETATM   26  C   UNL     1      41.837 -10.689  10.050  1.00  0.00    -0.038 A 
HETATM   27  C   UNL     1      43.077 -10.720   9.381  1.00  0.00     0.045 A 
HETATM   28  C   UNL     1      44.278 -10.544  10.071  1.00  0.00     0.068 A 
HETATM   29  C   UNL     1      44.250 -10.374  11.453  1.00  0.00     0.037 A 
HETATM   30  C   UNL     1      43.036 -10.358  12.140  1.00  0.00     0.003 A 
HETATM   31  C   UNL     1      41.837 -10.510  11.442  1.00  0.00     0.009 A 
BRANCH  28  32
HETATM   32  O   UNL     1      45.526 -10.527   9.509  1.00  0.00    -0.356 OA
HETATM   33  C   UNL     1      45.965 -11.731   8.889  1.00  0.00     0.210 C 
ENDBRANCH  28  32
ENDBRANCH  25  26
ENDBRANCH  22  25
ENDBRANCH   1  21
TORSDOF 7
ENDMDL
MODEL 5
REMARK VINA RESULT:      -8.2      6.041     10.336
REMARK  7 active torsions:
REMARK  status: ('A' for Active; 'I' for Inactive)
REMARK       I    between atoms: N_2  and  C_3 
REMARK    1  A    between atoms: N_2  and  C_24 
REMARK    2  A    between atoms: C_3  and  C_4 
REMARK    3  A    between atoms: C_7  and  N_8 
REMARK    4  A    between atoms: C_11  and  N_12 
REMARK       I    between atoms: N_12  and  C_13 
REMARK    5  A    between atoms: C_13  and  C_14 
REMARK    6  A    between atoms: C_24  and  C_25 
REMARK    7  A    between atoms: C_27  and  O_28 
ROOT
HETATM    1  C   UNL     1      43.256 -14.111   5.117  1.00  0.00     0.032 A 
HETATM    2  C   UNL     1      42.459 -13.129   5.716  1.00  0.00     0.019 A 
HETATM    3  C   UNL     1      42.847 -12.537   6.919  1.00  0.00     0.032 A 
HETATM    4  C   UNL     1      44.052 -12.909   7.532  1.00  0.00     0.058 A 
HETATM    5  C   UNL     1      44.823 -13.934   6.966  1.00  0.00     0.032 A 
HETATM    6  C   UNL     1      44.409 -14.552   5.774  1.00  0.00     0.019 A 
ENDROOT
BRANCH   4   7
HETATM    7  N   UNL     1      44.472 -12.199   8.694  1.00  0.00    -0.243 N 
HETATM    8  N   UNL     1      45.639 -12.521   9.307  1.00  0.00    -0.178 NA
HETATM    9  C   UNL     1      45.651 -11.789  10.421  1.00  0.00     0.170 A 
HETATM   10  C   UNL     1      44.506 -10.983  10.547  1.00  0.00     0.071 A 
HETATM   11  C   UNL     1      43.795 -11.215   9.390  1.00  0.00     0.149 A 
BRANCH  10  12
HETATM   12  N   UNL     1      44.087 -10.150  11.572  1.00  0.00    -0.324 N 
HETATM   13  C   UNL     1      43.311 -10.585  12.635  1.00  0.00     0.228 C 
HETATM   14  O   UNL     1      42.981 -11.750  12.837  1.00  0.00    -0.273 OA
HETATM   15  H   UNL     1      44.287  -9.165  11.470  1.00  0.00     0.169 HD
BRANCH  13  16
HETATM   16  C   UNL     1      42.818  -9.449  13.508  1.00  0.00     0.104 C 
HETATM   17  C   UNL     1      41.739  -8.616  12.837  1.00  0.00     0.181 C 
HETATM   18  O   UNL     1      40.953  -8.032  13.888  1.00  0.00    -0.390 OA
HETATM   19  C   UNL     1      41.284  -8.679  15.120  1.00  0.00     0.168 C 
HETATM   20  C   UNL     1      42.115  -9.894  14.771  1.00  0.00     0.042 C 
ENDBRANCH  13  16
ENDBRANCH  10  12
ENDBRANCH   4   7
BRANCH   1  21
HETATM   21  C   UNL     1      42.769 -14.648   3.821  1.00  0.00     0.253 C 
HETATM   22  N   UNL     1      42.002 -15.814   3.765  1.00  0.00    -0.348 N 
HETATM   23  C   UNL     1      41.808 -16.442   2.463  1.00  0.00     0.153 C 
HETATM   24  O   UNL     1      43.162 -14.069   2.808  1.00  0.00    -0.267 OA
BRANCH  22  25
HETATM   25  C   UNL     1      41.297 -16.438   4.886  1.00  0.00     0.164 C 
BRANCH  25  26
HETATM   26  C   UNL     1      42.169 -17.337   5.747  1.00  0.00    -0.038 A 
HETATM   27  C   UNL     1      42.819 -18.482   5.247  1.00  0.00     0.045 A 
HETATM   28  C   UNL     1      43.641 -19.264   6.062  1.00  0.00     0.068 A 
HETATM   29  C   UNL     1      43.787 -18.925   7.406  1.00  0.00     0.037 A 
HETATM   30  C   UNL     1      43.138 -17.806   7.928  1.00  0.00     0.003 A 
HETATM   31  C   UNL     1      42.338 -17.015   7.103  1.00  0.00     0.009 A 
BRANCH  28  32
HETATM   32  O   UNL     1      44.338 -20.372   5.664  1.00  0.00    -0.356 OA
HETATM   33  C   UNL     1      45.043 -20.274   4.430  1.00  0.00     0.210 C 
ENDBRANCH  28  32
ENDBRANCH  25  26
ENDBRANCH  22  25
ENDBRANCH   1  21
TORSDOF 7
ENDMDL
MODEL 6
REMARK VINA RESULT:      -8.2      2.805      3.085
REMARK  7 active torsions:
REMARK  status: ('A' for Active; 'I' for Inactive)
REMARK       I    between atoms: N_2  and  C_3 
REMARK    1  A    between atoms: N_2  and  C_24 
REMARK    2  A    between atoms: C_3  and  C_4 
REMARK    3  A    between atoms: C_7  and  N_8 
REMARK    4  A    between atoms: C_11  and  N_12 
REMARK       I    between atoms: N_12  and  C_13 
REMARK    5  A    between atoms: C_13  and  C_14 
REMARK    6  A    between atoms: C_24  and  C_25 
REMARK    7  A    between atoms: C_27  and  O_28 
ROOT
HETATM    1  C   UNL     1      42.855 -16.215   6.086  1.00  0.00     0.032 A 
HETATM    2  C   UNL     1      41.634 -16.187   5.401  1.00  0.00     0.019 A 
HETATM    3  C   UNL     1      41.347 -15.156   4.507  1.00  0.00     0.032 A 
HETATM    4  C   UNL     1      42.288 -14.144   4.270  1.00  0.00     0.058 A 
HETATM    5  C   UNL     1      43.487 -14.136   4.997  1.00  0.00     0.032 A 
HETATM    6  C   UNL     1      43.755 -15.158   5.924  1.00  0.00     0.019 A 
ENDROOT
BRANCH   4   7
HETATM    7  N   UNL     1      42.009 -13.175   3.263  1.00  0.00    -0.243 N 
HETATM    8  N   UNL     1      41.369 -12.022   3.580  1.00  0.00    -0.178 NA
HETATM    9  C   UNL     1      41.134 -11.429   2.410  1.00  0.00     0.170 A 
HETATM   10  C   UNL     1      41.616 -12.178   1.321  1.00  0.00     0.071 A 
HETATM   11  C   UNL     1      42.234 -13.265   1.901  1.00  0.00     0.149 A 
BRANCH  10  12
HETATM   12  N   UNL     1      41.509 -11.972  -0.044  1.00  0.00    -0.324 N 
HETATM   13  C   UNL     1      42.442 -11.258  -0.779  1.00  0.00     0.228 C 
HETATM   14  O   UNL     1      43.494 -10.806  -0.337  1.00  0.00    -0.273 OA
HETATM   15  H   UNL     1      40.655 -12.282  -0.487  1.00  0.00     0.169 HD
BRANCH  13  16
HETATM   16  C   UNL     1      41.996 -10.999  -2.205  1.00  0.00     0.104 C 
HETATM   17  C   UNL     1      42.571  -9.715  -2.778  1.00  0.00     0.181 C 
HETATM   18  O   UNL     1      42.616  -9.882  -4.205  1.00  0.00    -0.390 OA
HETATM   19  C   UNL     1      42.396 -11.263  -4.510  1.00  0.00     0.168 C 
HETATM   20  C   UNL     1      42.484 -12.023  -3.205  1.00  0.00     0.042 C 
ENDBRANCH  13  16
ENDBRANCH  10  12
ENDBRANCH   4   7
BRANCH   1  21
HETATM   21  C   UNL     1      43.073 -17.377   6.985  1.00  0.00     0.253 C 
HETATM   22  N   UNL     1      43.872 -18.453   6.593  1.00  0.00    -0.348 N 
HETATM   23  C   UNL     1      43.809 -19.676   7.386  1.00  0.00     0.153 C 
HETATM   24  O   UNL     1      42.436 -17.379   8.038  1.00  0.00    -0.267 OA
BRANCH  22  25
HETATM   25  C   UNL     1      44.839 -18.454   5.494  1.00  0.00     0.164 C 
BRANCH  25  26
HETATM   26  C   UNL     1      44.338 -19.118   4.222  1.00  0.00    -0.038 A 
HETATM   27  C   UNL     1      43.421 -18.503   3.347  1.00  0.00     0.045 A 
HETATM   28  C   UNL     1      43.010 -19.130   2.168  1.00  0.00     0.068 A 
HETATM   29  C   UNL     1      43.488 -20.406   1.875  1.00  0.00     0.037 A 
HETATM   30  C   UNL     1      44.382 -21.042   2.736  1.00  0.00     0.003 A 
HETATM   31  C   UNL     1      44.808 -20.401   3.900  1.00  0.00     0.009 A 
BRANCH  28  32
HETATM   32  O   UNL     1      42.152 -18.605   1.242  1.00  0.00    -0.356 OA
HETATM   33  C   UNL     1      41.397 -17.466   1.643  1.00  0.00     0.210 C 
ENDBRANCH  28  32
ENDBRANCH  25  26
ENDBRANCH  22  25
ENDBRANCH   1  21
TORSDOF 7
ENDMDL
MODEL 7
REMARK VINA RESULT:      -8.1      1.907      3.635
REMARK  7 active torsions:
REMARK  status: ('A' for Active; 'I' for Inactive)
REMARK       I    between atoms: N_2  and  C_3 
REMARK    1  A    between atoms: N_2  and  C_24 
REMARK    2  A    between atoms: C_3  and  C_4 
REMARK    3  A    between atoms: C_7  and  N_8 
REMARK    4  A    between atoms: C_11  and  N_12 
REMARK       I    between atoms: N_12  and  C_13 
REMARK    5  A    between atoms: C_13  and  C_14 
REMARK    6  A    between atoms: C_24  and  C_25 
REMARK    7  A    between atoms: C_27  and  O_28 
ROOT
HETATM    1  C   UNL     1      43.137 -18.391   4.921  1.00  0.00     0.032 A 
HETATM    2  C   UNL     1      44.095 -17.816   4.078  1.00  0.00     0.019 A 
HETATM    3  C   UNL     1      43.705 -17.116   2.936  1.00  0.00     0.032 A 
HETATM    4  C   UNL     1      42.345 -16.966   2.629  1.00  0.00     0.058 A 
HETATM    5  C   UNL     1      41.385 -17.590   3.438  1.00  0.00     0.032 A 
HETATM    6  C   UNL     1      41.785 -18.324   4.568  1.00  0.00     0.019 A 
ENDROOT
BRANCH   4   7
HETATM    7  N   UNL     1      41.982 -16.145   1.523  1.00  0.00    -0.243 N 
HETATM    8  N   UNL     1      42.219 -14.810   1.554  1.00  0.00    -0.178 NA
HETATM    9  C   UNL     1      41.630 -14.332   0.457  1.00  0.00     0.170 A 
HETATM   10  C   UNL     1      41.011 -15.342  -0.302  1.00  0.00     0.071 A 
HETATM   11  C   UNL     1      41.309 -16.507   0.370  1.00  0.00     0.149 A 
BRANCH  10  12
HETATM   12  N   UNL     1      40.232 -15.272  -1.445  1.00  0.00    -0.324 N 
HETATM   13  C   UNL     1      40.645 -14.638  -2.607  1.00  0.00     0.228 C 
HETATM   14  O   UNL     1      41.755 -14.148  -2.787  1.00  0.00    -0.273 OA
HETATM   15  H   UNL     1      39.286 -15.621  -1.376  1.00  0.00     0.169 HD
BRANCH  13  16
HETATM   16  C   UNL     1      39.540 -14.521  -3.638  1.00  0.00     0.104 C 
HETATM   17  C   UNL     1      39.062 -15.871  -4.145  1.00  0.00     0.181 C 
HETATM   18  O   UNL     1      37.705 -15.693  -4.582  1.00  0.00    -0.390 OA
HETATM   19  C   UNL     1      37.235 -14.428  -4.107  1.00  0.00     0.168 C 
HETATM   20  C   UNL     1      38.255 -13.923  -3.111  1.00  0.00     0.042 C 
ENDBRANCH  13  16
ENDBRANCH  10  12
ENDBRANCH   4   7
BRANCH   1  21
HETATM   21  C   UNL     1      43.658 -19.081   6.128  1.00  0.00     0.253 C 
HETATM   22  N   UNL     1      43.609 -18.473   7.385  1.00  0.00    -0.348 N 
HETATM   23  C   UNL     1      44.391 -19.067   8.463  1.00  0.00     0.153 C 
HETATM   24  O   UNL     1      44.220 -20.160   5.941  1.00  0.00    -0.267 OA
BRANCH  22  25
HETATM   25  C   UNL     1      42.777 -17.326   7.756  1.00  0.00     0.164 C 
BRANCH  25  26
HETATM   26  C   UNL     1      43.079 -16.058   6.976  1.00  0.00    -0.038 A 
HETATM   27  C   UNL     1      42.124 -15.407   6.170  1.00  0.00     0.045 A 
HETATM   28  C   UNL     1      42.429 -14.223   5.495  1.00  0.00     0.068 A 
HETATM   29  C   UNL     1      43.716 -13.698   5.591  1.00  0.00     0.037 A 
HETATM   30  C   UNL     1      44.684 -14.335   6.367  1.00  0.00     0.003 A 
HETATM   31  C   UNL     1      44.367 -15.504   7.059  1.00  0.00     0.009 A 
BRANCH  28  32
HETATM   32  O   UNL     1      41.564 -13.502   4.718  1.00  0.00    -0.356 OA
HETATM   33  C   UNL     1      41.785 -12.098   4.649  1.00  0.00     0.210 C 
ENDBRANCH  28  32
ENDBRANCH  25  26
ENDBRANCH  22  25
ENDBRANCH   1  21
TORSDOF 7
ENDMDL
MODEL 8
REMARK VINA RESULT:      -8.0      5.621      9.429
REMARK  7 active torsions:
REMARK  status: ('A' for Active; 'I' for Inactive)
REMARK       I    between atoms: N_2  and  C_3 
REMARK    1  A    between atoms: N_2  and  C_24 
REMARK    2  A    between atoms: C_3  and  C_4 
REMARK    3  A    between atoms: C_7  and  N_8 
REMARK    4  A    between atoms: C_11  and  N_12 
REMARK       I    between atoms: N_12  and  C_13 
REMARK    5  A    between atoms: C_13  and  C_14 
REMARK    6  A    between atoms: C_24  and  C_25 
REMARK    7  A    between atoms: C_27  and  O_28 
ROOT
HETATM    1  C   UNL     1      40.411 -11.480   6.570  1.00  0.00     0.032 A 
HETATM    2  C   UNL     1      41.708 -11.692   6.087  1.00  0.00     0.019 A 
HETATM    3  C   UNL     1      42.039 -12.885   5.445  1.00  0.00     0.032 A 
HETATM    4  C   UNL     1      41.069 -13.880   5.259  1.00  0.00     0.058 A 
HETATM    5  C   UNL     1      39.785 -13.696   5.793  1.00  0.00     0.032 A 
HETATM    6  C   UNL     1      39.468 -12.507   6.471  1.00  0.00     0.019 A 
ENDROOT
BRANCH   4   7
HETATM    7  N   UNL     1      41.412 -15.032   4.494  1.00  0.00    -0.243 N 
HETATM    8  N   UNL     1      40.553 -15.516   3.562  1.00  0.00    -0.178 NA
HETATM    9  C   UNL     1      41.101 -16.660   3.154  1.00  0.00     0.170 A 
HETATM   10  C   UNL     1      42.317 -16.936   3.806  1.00  0.00     0.071 A 
HETATM   11  C   UNL     1      42.528 -15.841   4.614  1.00  0.00     0.149 A 
BRANCH  10  12
HETATM   12  N   UNL     1      43.154 -18.038   3.742  1.00  0.00    -0.324 N 
HETATM   13  C   UNL     1      43.880 -18.375   2.611  1.00  0.00     0.228 C 
HETATM   14  O   UNL     1      43.935 -17.708   1.582  1.00  0.00    -0.273 OA
HETATM   15  H   UNL     1      43.145 -18.664   4.536  1.00  0.00     0.169 HD
BRANCH  13  16
HETATM   16  C   UNL     1      44.555 -19.728   2.726  1.00  0.00     0.104 C 
HETATM   17  C   UNL     1      44.580 -20.255   4.151  1.00  0.00     0.181 C 
HETATM   18  O   UNL     1      44.643 -21.687   4.061  1.00  0.00    -0.390 OA
HETATM   19  C   UNL     1      44.359 -22.074   2.714  1.00  0.00     0.168 C 
HETATM   20  C   UNL     1      43.837 -20.845   2.002  1.00  0.00     0.042 C 
ENDBRANCH  13  16
ENDBRANCH  10  12
ENDBRANCH   4   7
BRANCH   1  21
HETATM   21  C   UNL     1      40.157 -10.161   7.203  1.00  0.00     0.253 C 
HETATM   22  N   UNL     1      39.994 -10.044   8.586  1.00  0.00    -0.348 N 
HETATM   23  C   UNL     1      39.461  -8.790   9.107  1.00  0.00     0.153 C 
HETATM   24  O   UNL     1      39.999  -9.209   6.439  1.00  0.00    -0.267 OA
BRANCH  22  25
HETATM   25  C   UNL     1      40.381 -11.039   9.588  1.00  0.00     0.164 C 
BRANCH  25  26
HETATM   26  C   UNL     1      41.695 -10.738  10.290  1.00  0.00    -0.038 A 
HETATM   27  C   UNL     1      41.765 -10.255  11.611  1.00  0.00     0.045 A 
HETATM   28  C   UNL     1      42.993 -10.023  12.235  1.00  0.00     0.068 A 
HETATM   29  C   UNL     1      44.170 -10.238  11.521  1.00  0.00     0.037 A 
HETATM   30  C   UNL     1      44.125 -10.698  10.206  1.00  0.00     0.003 A 
HETATM   31  C   UNL     1      42.896 -10.951   9.595  1.00  0.00     0.009 A 
BRANCH  28  32
HETATM   32  O   UNL     1      43.165  -9.587  13.520  1.00  0.00    -0.356 OA
HETATM   33  C   UNL     1      42.375 -10.219  14.522  1.00  0.00     0.210 C 
ENDBRANCH  28  32
ENDBRANCH  25  26
ENDBRANCH  22  25
ENDBRANCH   1  21
TORSDOF 7
ENDMDL
MODEL 9
REMARK VINA RESULT:      -7.8      2.910      5.170
REMARK  7 active torsions:
REMARK  status: ('A' for Active; 'I' for Inactive)
REMARK       I    between atoms: N_2  and  C_3 
REMARK    1  A    between atoms: N_2  and  C_24 
REMARK    2  A    between atoms: C_3  and  C_4 
REMARK    3  A    between atoms: C_7  and  N_8 
REMARK    4  A    between atoms: C_11  and  N_12 
REMARK       I    between atoms: N_12  and  C_13 
REMARK    5  A    between atoms: C_13  and  C_14 
REMARK    6  A    between atoms: C_24  and  C_25 
REMARK    7  A    between atoms: C_27  and  O_28 
ROOT
HETATM    1  C   UNL     1      43.216 -18.206   2.603  1.00  0.00     0.032 A 
HETATM    2  C   UNL     1      43.940 -17.023   2.410  1.00  0.00     0.019 A 
HETATM    3  C   UNL     1      43.429 -16.002   1.609  1.00  0.00     0.032 A 
HETATM    4  C   UNL     1      42.173 -16.142   1.001  1.00  0.00     0.058 A 
HETATM    5  C   UNL     1      41.471 -17.348   1.144  1.00  0.00     0.032 A 
HETATM    6  C   UNL     1      42.007 -18.387   1.923  1.00  0.00     0.019 A 
ENDROOT
BRANCH   4   7
HETATM    7  N   UNL     1      41.632 -15.032   0.289  1.00  0.00    -0.243 N 
HETATM    8  N   UNL     1      40.541 -15.191  -0.500  1.00  0.00    -0.178 NA
HETATM    9  C   UNL     1      40.398 -14.022  -1.124  1.00  0.00     0.170 A 
HETATM   10  C   UNL     1      41.383 -13.090  -0.751  1.00  0.00     0.071 A 
HETATM   11  C   UNL     1      42.125 -13.742   0.209  1.00  0.00     0.149 A 
BRANCH  10  12
HETATM   12  N   UNL     1      41.647 -11.812  -1.213  1.00  0.00    -0.324 N 
HETATM   13  C   UNL     1      42.422 -11.554  -2.333  1.00  0.00     0.228 C 
HETATM   14  O   UNL     1      42.887 -12.408  -3.081  1.00  0.00    -0.273 OA
HETATM   15  H   UNL     1      41.330 -11.044  -0.638  1.00  0.00     0.169 HD
BRANCH  13  16
HETATM   16  C   UNL     1      42.730 -10.080  -2.510  1.00  0.00     0.104 C 
HETATM   17  C   UNL     1      41.516  -9.194  -2.285  1.00  0.00     0.181 C 
HETATM   18  O   UNL     1      42.011  -7.911  -1.870  1.00  0.00    -0.390 OA
HETATM   19  C   UNL     1      43.398  -8.040  -1.543  1.00  0.00     0.168 C 
HETATM   20  C   UNL     1      43.705  -9.521  -1.499  1.00  0.00     0.042 C 
ENDBRANCH  13  16
ENDBRANCH  10  12
ENDBRANCH   4   7
BRANCH   1  21
HETATM   21  C   UNL     1      43.834 -19.212   3.503  1.00  0.00     0.253 C 
HETATM   22  N   UNL     1      43.585 -19.199   4.878  1.00  0.00    -0.348 N 
HETATM   23  C   UNL     1      44.439 -20.014   5.734  1.00  0.00     0.153 C 
HETATM   24  O   UNL     1      44.646 -19.980   2.988  1.00  0.00    -0.267 OA
BRANCH  22  25
HETATM   25  C   UNL     1      42.487 -18.501   5.550  1.00  0.00     0.164 C 
BRANCH  25  26
HETATM   26  C   UNL     1      42.699 -17.004   5.700  1.00  0.00    -0.038 A 
HETATM   27  C   UNL     1      43.847 -16.449   6.299  1.00  0.00     0.045 A 
HETATM   28  C   UNL     1      44.023 -15.066   6.387  1.00  0.00     0.068 A 
HETATM   29  C   UNL     1      43.024 -14.221   5.906  1.00  0.00     0.037 A 
HETATM   30  C   UNL     1      41.871 -14.748   5.326  1.00  0.00     0.003 A 
HETATM   31  C   UNL     1      41.711 -16.130   5.219  1.00  0.00     0.009 A 
BRANCH  28  32
HETATM   32  O   UNL     1      45.112 -14.432   6.919  1.00  0.00    -0.356 OA
HETATM   33  C   UNL     1      44.852 -13.378   7.840  1.00  0.00     0.210 C 
ENDBRANCH  28  32
ENDBRANCH  25  26
ENDBRANCH  22  25
ENDBRANCH   1  21
TORSDOF 7
ENDMDL
MODEL 10
REMARK VINA RESULT:      -7.8      2.601      9.009
REMARK  7 active torsions:
REMARK  status: ('A' for Active; 'I' for Inactive)
REMARK       I    between atoms: N_2  and  C_3 
REMARK    1  A    between atoms: N_2  and  C_24 
REMARK    2  A    between atoms: C_3  and  C_4 
REMARK    3  A    between atoms: C_7  and  N_8 
REMARK    4  A    between atoms: C_11  and  N_12 
REMARK       I    between atoms: N_12  and  C_13 
REMARK    5  A    between atoms: C_13  and  C_14 
REMARK    6  A    between atoms: C_24  and  C_25 
REMARK    7  A    between atoms: C_27  and  O_28 
ROOT
HETATM    1  C   UNL     1      38.247 -12.752   0.067  1.00  0.00     0.032 A 
HETATM    2  C   UNL     1      37.595 -13.854   0.633  1.00  0.00     0.019 A 
HETATM    3  C   UNL     1      38.312 -14.807   1.357  1.00  0.00     0.032 A 
HETATM    4  C   UNL     1      39.694 -14.661   1.542  1.00  0.00     0.058 A 
HETATM    5  C   UNL     1      40.360 -13.590   0.927  1.00  0.00     0.032 A 
HETATM    6  C   UNL     1      39.638 -12.654   0.169  1.00  0.00     0.019 A 
ENDROOT
BRANCH   4   7
HETATM    7  N   UNL     1      40.371 -15.587   2.386  1.00  0.00    -0.243 N 
HETATM    8  N   UNL     1      40.530 -15.321   3.707  1.00  0.00    -0.178 NA
HETATM    9  C   UNL     1      41.321 -16.294   4.159  1.00  0.00     0.170 A 
HETATM   10  C   UNL     1      41.682 -17.204   3.149  1.00  0.00     0.071 A 
HETATM   11  C   UNL     1      41.004 -16.765   2.034  1.00  0.00     0.149 A 
BRANCH  10  12
HETATM   12  N   UNL     1      42.541 -18.291   3.169  1.00  0.00    -0.324 N 
HETATM   13  C   UNL     1      43.782 -18.290   2.553  1.00  0.00     0.228 C 
HETATM   14  O   UNL     1      44.295 -17.321   2.001  1.00  0.00    -0.273 OA
HETATM   15  H   UNL     1      42.186 -19.146   3.575  1.00  0.00     0.169 HD
BRANCH  13  16
HETATM   16  C   UNL     1      44.437 -19.657   2.543  1.00  0.00     0.104 C 
HETATM   17  C   UNL     1      44.627 -20.229   3.938  1.00  0.00     0.181 C 
HETATM   18  O   UNL     1      44.648 -21.659   3.799  1.00  0.00    -0.390 OA
HETATM   19  C   UNL     1      44.191 -21.998   2.487  1.00  0.00     0.168 C 
HETATM   20  C   UNL     1      43.611 -20.738   1.882  1.00  0.00     0.042 C 
ENDBRANCH  13  16
ENDBRANCH  10  12
ENDBRANCH   4   7
BRANCH   1  21
HETATM   21  C   UNL     1      37.384 -11.780  -0.651  1.00  0.00     0.253 C 
HETATM   22  N   UNL     1      37.162 -11.891  -2.026  1.00  0.00    -0.348 N 
HETATM   23  C   UNL     1      36.557 -10.755  -2.714  1.00  0.00     0.153 C 
HETATM   24  O   UNL     1      36.968 -10.828   0.009  1.00  0.00    -0.267 OA
BRANCH  22  25
HETATM   25  C   UNL     1      37.406 -13.078  -2.847  1.00  0.00     0.164 C 
BRANCH  25  26
HETATM   26  C   UNL     1      38.876 -13.393  -3.066  1.00  0.00    -0.038 A 
HETATM   27  C   UNL     1      39.816 -12.423  -3.468  1.00  0.00     0.045 A 
HETATM   28  C   UNL     1      41.166 -12.743  -3.625  1.00  0.00     0.068 A 
HETATM   29  C   UNL     1      41.583 -14.057  -3.419  1.00  0.00     0.037 A 
HETATM   30  C   UNL     1      40.667 -15.038  -3.039  1.00  0.00     0.003 A 
HETATM   31  C   UNL     1      39.323 -14.707  -2.860  1.00  0.00     0.009 A 
BRANCH  28  32
HETATM   32  O   UNL     1      42.157 -11.869  -3.979  1.00  0.00    -0.356 OA
HETATM   33  C   UNL     1      42.547 -10.913  -2.999  1.00  0.00     0.210 C 
ENDBRANCH  28  32
ENDBRANCH  25  26
ENDBRANCH  22  25
ENDBRANCH   1  21
TORSDOF 7
ENDMDL
