MODEL 1
REMARK VINA RESULT:      -8.5      0.000      0.000
REMARK  3 active torsions:
REMARK  status: ('A' for Active; 'I' for Inactive)
REMARK    1  A    between atoms: C_4  and  N_5 
REMARK       I    between atoms: N_5  and  C_6 
REMARK    2  A    between atoms: C_6  and  C_8 
REMARK    3  A    between atoms: C_21  and  C_22 
ROOT
HETATM    1  F   UNL     1      38.795 -13.121   0.322  1.00  0.00    -0.205 F 
HETATM    2  C   UNL     1      39.648 -14.065  -0.106  1.00  0.00     0.132 A 
HETATM    3  C   UNL     1      40.125 -14.977   0.843  1.00  0.00     0.072 A 
HETATM    4  C   UNL     1      41.005 -15.991   0.469  1.00  0.00     0.040 A 
HETATM    5  C   UNL     1      41.392 -16.074  -0.870  1.00  0.00     0.072 A 
HETATM    6  C   UNL     1      40.900 -15.163  -1.809  1.00  0.00     0.132 A 
HETATM    7  F   UNL     1      41.311 -15.302  -3.079  1.00  0.00    -0.205 F 
HETATM    8  C   UNL     1      40.022 -14.136  -1.450  1.00  0.00     0.054 A 
ENDROOT
BRANCH   4   9
HETATM    9  N   UNL     1      41.535 -16.953   1.356  1.00  0.00    -0.327 N 
HETATM   10  C   UNL     1      42.700 -16.856   2.103  1.00  0.00     0.228 C 
HETATM   11  O   UNL     1      43.474 -15.905   2.094  1.00  0.00    -0.273 OA
HETATM   12  H   UNL     1      41.002 -17.811   1.448  1.00  0.00     0.169 HD
BRANCH  10  13
HETATM   13  C   UNL     1      42.952 -18.081   2.969  1.00  0.00     0.107 C 
HETATM   14  C   UNL     1      43.937 -17.774   4.090  1.00  0.00     0.190 C 
HETATM   15  O   UNL     1      44.030 -18.862   5.016  1.00  0.00    -0.350 OA
HETATM   16  C   UNL     1      44.245 -20.081   4.427  1.00  0.00     0.075 A 
HETATM   17  C   UNL     1      44.681 -21.103   5.268  1.00  0.00     0.037 A 
HETATM   18  C   UNL     1      44.016 -20.331   3.068  1.00  0.00    -0.024 A 
HETATM   19  C   UNL     1      44.929 -22.375   4.753  1.00  0.00     0.003 A 
HETATM   20  C   UNL     1      44.735 -22.626   3.396  1.00  0.00     0.001 A 
HETATM   21  C   UNL     1      44.281 -21.608   2.556  1.00  0.00     0.010 A 
HETATM   22  C   UNL     1      43.527 -19.241   2.156  1.00  0.00     0.057 C 
ENDBRANCH  10  13
ENDBRANCH   4   9
BRANCH   8  23
HETATM   23  C   UNL     1      39.523 -13.202  -2.446  1.00  0.00     0.016 A 
HETATM   24  C   UNL     1      40.046 -11.966  -2.901  1.00  0.00     0.152 A 
HETATM   25  N   UNL     1      39.283 -11.391  -3.835  1.00  0.00    -0.187 NA
HETATM   26  N   UNL     1      38.264 -12.252  -3.980  1.00  0.00    -0.289 N 
HETATM   27  H   UNL     1      37.537 -12.028  -4.651  1.00  0.00     0.188 HD
HETATM   28  C   UNL     1      38.356 -13.344  -3.167  1.00  0.00     0.123 A 
ENDBRANCH   8  23
TORSDOF 3
ENDMDL
MODEL 2
REMARK VINA RESULT:      -8.4      7.243      9.959
REMARK  3 active torsions:
REMARK  status: ('A' for Active; 'I' for Inactive)
REMARK    1  A    between atoms: C_4  and  N_5 
REMARK       I    between atoms: N_5  and  C_6 
REMARK    2  A    between atoms: C_6  and  C_8 
REMARK    3  A    between atoms: C_21  and  C_22 
ROOT
HETATM    1  F   UNL     1      44.423 -18.061   6.026  1.00  0.00    -0.205 F 
HETATM    2  C   UNL     1      44.037 -16.795   5.798  1.00  0.00     0.132 A 
HETATM    3  C   UNL     1      44.181 -15.882   6.849  1.00  0.00     0.072 A 
HETATM    4  C   UNL     1      43.811 -14.548   6.681  1.00  0.00     0.040 A 
HETATM    5  C   UNL     1      43.301 -14.150   5.444  1.00  0.00     0.072 A 
HETATM    6  C   UNL     1      43.172 -15.072   4.400  1.00  0.00     0.132 A 
HETATM    7  F   UNL     1      42.677 -14.621   3.236  1.00  0.00    -0.205 F 
HETATM    8  C   UNL     1      43.532 -16.414   4.552  1.00  0.00     0.054 A 
ENDROOT
BRANCH   4   9
HETATM    9  N   UNL     1      43.921 -13.559   7.683  1.00  0.00    -0.327 N 
HETATM   10  C   UNL     1      45.058 -12.847   8.039  1.00  0.00     0.228 C 
HETATM   11  O   UNL     1      46.169 -12.983   7.539  1.00  0.00    -0.273 OA
HETATM   12  H   UNL     1      43.073 -13.357   8.199  1.00  0.00     0.169 HD
BRANCH  10  13
HETATM   13  C   UNL     1      44.802 -11.843   9.154  1.00  0.00     0.107 C 
HETATM   14  C   UNL     1      44.849 -12.511  10.522  1.00  0.00     0.190 C 
HETATM   15  O   UNL     1      44.801 -11.543  11.576  1.00  0.00    -0.350 OA
HETATM   16  C   UNL     1      43.783 -10.633  11.454  1.00  0.00     0.075 A 
HETATM   17  C   UNL     1      43.473  -9.898  12.597  1.00  0.00     0.037 A 
HETATM   18  C   UNL     1      43.095 -10.403  10.256  1.00  0.00    -0.024 A 
HETATM   19  C   UNL     1      42.449  -8.953  12.564  1.00  0.00     0.003 A 
HETATM   20  C   UNL     1      41.736  -8.739  11.385  1.00  0.00     0.001 A 
HETATM   21  C   UNL     1      42.057  -9.462  10.235  1.00  0.00     0.010 A 
HETATM   22  C   UNL     1      43.433 -11.177   9.013  1.00  0.00     0.057 C 
ENDBRANCH  10  13
ENDBRANCH   4   9
BRANCH   8  23
HETATM   23  C   UNL     1      43.390 -17.352   3.451  1.00  0.00     0.016 A 
HETATM   24  C   UNL     1      44.001 -17.378   2.172  1.00  0.00     0.152 A 
HETATM   25  N   UNL     1      43.603 -18.414   1.428  1.00  0.00    -0.187 NA
HETATM   26  N   UNL     1      42.731 -19.054   2.222  1.00  0.00    -0.289 N 
HETATM   27  H   UNL     1      42.285 -19.894   1.869  1.00  0.00     0.188 HD
HETATM   28  C   UNL     1      42.562 -18.455   3.437  1.00  0.00     0.123 A 
ENDBRANCH   8  23
TORSDOF 3
ENDMDL
MODEL 3
REMARK VINA RESULT:      -8.4      1.584      2.250
REMARK  3 active torsions:
REMARK  status: ('A' for Active; 'I' for Inactive)
REMARK    1  A    between atoms: C_4  and  N_5 
REMARK       I    between atoms: N_5  and  C_6 
REMARK    2  A    between atoms: C_6  and  C_8 
REMARK    3  A    between atoms: C_21  and  C_22 
ROOT
HETATM    1  F   UNL     1      40.146 -15.064  -3.872  1.00  0.00    -0.205 F 
HETATM    2  C   UNL     1      40.632 -14.607  -2.707  1.00  0.00     0.132 A 
HETATM    3  C   UNL     1      40.945 -15.556  -1.726  1.00  0.00     0.072 A 
HETATM    4  C   UNL     1      41.464 -15.155  -0.496  1.00  0.00     0.040 A 
HETATM    5  C   UNL     1      41.665 -13.792  -0.272  1.00  0.00     0.072 A 
HETATM    6  C   UNL     1      41.358 -12.857  -1.264  1.00  0.00     0.132 A 
HETATM    7  F   UNL     1      41.580 -11.563  -0.983  1.00  0.00    -0.205 F 
HETATM    8  C   UNL     1      40.831 -13.239  -2.500  1.00  0.00     0.054 A 
ENDROOT
BRANCH   4   9
HETATM    9  N   UNL     1      41.808 -16.041   0.549  1.00  0.00    -0.327 N 
HETATM   10  C   UNL     1      41.035 -16.382   1.650  1.00  0.00     0.228 C 
HETATM   11  O   UNL     1      39.916 -15.945   1.897  1.00  0.00    -0.273 OA
HETATM   12  H   UNL     1      42.726 -16.465   0.484  1.00  0.00     0.169 HD
BRANCH  10  13
HETATM   13  C   UNL     1      41.721 -17.384   2.566  1.00  0.00     0.107 C 
HETATM   14  C   UNL     1      42.739 -16.701   3.471  1.00  0.00     0.190 C 
HETATM   15  O   UNL     1      43.245 -17.603   4.461  1.00  0.00    -0.350 OA
HETATM   16  C   UNL     1      43.687 -18.798   3.956  1.00  0.00     0.075 A 
HETATM   17  C   UNL     1      44.492 -19.563   4.798  1.00  0.00     0.037 A 
HETATM   18  C   UNL     1      43.342 -19.272   2.684  1.00  0.00    -0.024 A 
HETATM   19  C   UNL     1      44.990 -20.791   4.365  1.00  0.00     0.003 A 
HETATM   20  C   UNL     1      44.678 -21.257   3.088  1.00  0.00     0.001 A 
HETATM   21  C   UNL     1      43.857 -20.500   2.250  1.00  0.00     0.010 A 
HETATM   22  C   UNL     1      42.459 -18.464   1.774  1.00  0.00     0.057 C 
ENDBRANCH  10  13
ENDBRANCH   4   9
BRANCH   8  23
HETATM   23  C   UNL     1      40.521 -12.247  -3.517  1.00  0.00     0.016 A 
HETATM   24  C   UNL     1      41.371 -11.435  -4.308  1.00  0.00     0.152 A 
HETATM   25  N   UNL     1      40.698 -10.632  -5.137  1.00  0.00    -0.187 NA
HETATM   26  N   UNL     1      39.414 -10.920  -4.878  1.00  0.00    -0.289 N 
HETATM   27  H   UNL     1      38.696 -10.426  -5.397  1.00  0.00     0.188 HD
HETATM   28  C   UNL     1      39.255 -11.871  -3.913  1.00  0.00     0.123 A 
ENDBRANCH   8  23
TORSDOF 3
ENDMDL
MODEL 4
REMARK VINA RESULT:      -8.2      4.172      4.954
REMARK  3 active torsions:
REMARK  status: ('A' for Active; 'I' for Inactive)
REMARK    1  A    between atoms: C_4  and  N_5 
REMARK       I    between atoms: N_5  and  C_6 
REMARK    2  A    between atoms: C_6  and  C_8 
REMARK    3  A    between atoms: C_21  and  C_22 
ROOT
HETATM    1  F   UNL     1      39.078 -12.672   6.813  1.00  0.00    -0.205 F 
HETATM    2  C   UNL     1      39.674 -13.105   5.690  1.00  0.00     0.132 A 
HETATM    3  C   UNL     1      40.246 -14.382   5.718  1.00  0.00     0.072 A 
HETATM    4  C   UNL     1      40.871 -14.901   4.585  1.00  0.00     0.040 A 
HETATM    5  C   UNL     1      40.909 -14.119   3.429  1.00  0.00     0.072 A 
HETATM    6  C   UNL     1      40.324 -12.849   3.413  1.00  0.00     0.132 A 
HETATM    7  F   UNL     1      40.393 -12.153   2.268  1.00  0.00    -0.205 F 
HETATM    8  C   UNL     1      39.699 -12.310   4.540  1.00  0.00     0.054 A 
ENDROOT
BRANCH   4   9
HETATM    9  N   UNL     1      41.473 -16.178   4.522  1.00  0.00    -0.327 N 
HETATM   10  C   UNL     1      42.781 -16.506   4.847  1.00  0.00     0.228 C 
HETATM   11  O   UNL     1      43.639 -15.719   5.231  1.00  0.00    -0.273 OA
HETATM   12  H   UNL     1      40.878 -16.931   4.197  1.00  0.00     0.169 HD
BRANCH  10  13
HETATM   13  C   UNL     1      43.078 -17.989   4.676  1.00  0.00     0.107 C 
HETATM   14  C   UNL     1      44.428 -18.357   5.281  1.00  0.00     0.190 C 
HETATM   15  O   UNL     1      44.624 -19.774   5.293  1.00  0.00    -0.350 OA
HETATM   16  C   UNL     1      44.389 -20.383   4.088  1.00  0.00     0.075 A 
HETATM   17  C   UNL     1      44.886 -21.677   3.943  1.00  0.00     0.037 A 
HETATM   18  C   UNL     1      43.665 -19.782   3.050  1.00  0.00    -0.024 A 
HETATM   19  C   UNL     1      44.696 -22.370   2.748  1.00  0.00     0.003 A 
HETATM   20  C   UNL     1      44.005 -21.769   1.698  1.00  0.00     0.001 A 
HETATM   21  C   UNL     1      43.491 -20.479   1.847  1.00  0.00     0.010 A 
HETATM   22  C   UNL     1      43.108 -18.394   3.202  1.00  0.00     0.057 C 
ENDBRANCH  10  13
ENDBRANCH   4   9
BRANCH   8  23
HETATM   23  C   UNL     1      39.097 -10.988   4.497  1.00  0.00     0.016 A 
HETATM   24  C   UNL     1      39.394  -9.811   5.228  1.00  0.00     0.152 A 
HETATM   25  N   UNL     1      38.602  -8.785   4.905  1.00  0.00    -0.187 NA
HETATM   26  N   UNL     1      37.789  -9.299   3.970  1.00  0.00    -0.289 N 
HETATM   27  H   UNL     1      37.083  -8.696   3.561  1.00  0.00     0.188 HD
HETATM   28  C   UNL     1      38.037 -10.613   3.698  1.00  0.00     0.123 A 
ENDBRANCH   8  23
TORSDOF 3
ENDMDL
MODEL 5
REMARK VINA RESULT:      -8.2      3.480      9.557
REMARK  3 active torsions:
REMARK  status: ('A' for Active; 'I' for Inactive)
REMARK    1  A    between atoms: C_4  and  N_5 
REMARK       I    between atoms: N_5  and  C_6 
REMARK    2  A    between atoms: C_6  and  C_8 
REMARK    3  A    between atoms: C_21  and  C_22 
ROOT
HETATM    1  F   UNL     1      42.877 -19.878   1.779  1.00  0.00    -0.205 F 
HETATM    2  C   UNL     1      42.946 -18.563   2.042  1.00  0.00     0.132 A 
HETATM    3  C   UNL     1      42.581 -17.684   1.015  1.00  0.00     0.072 A 
HETATM    4  C   UNL     1      42.618 -16.306   1.220  1.00  0.00     0.040 A 
HETATM    5  C   UNL     1      43.021 -15.829   2.469  1.00  0.00     0.072 A 
HETATM    6  C   UNL     1      43.372 -16.719   3.488  1.00  0.00     0.132 A 
HETATM    7  F   UNL     1      43.747 -16.193   4.665  1.00  0.00    -0.205 F 
HETATM    8  C   UNL     1      43.348 -18.103   3.299  1.00  0.00     0.054 A 
ENDROOT
BRANCH   4   9
HETATM    9  N   UNL     1      42.267 -15.346   0.244  1.00  0.00    -0.327 N 
HETATM   10  C   UNL     1      41.017 -14.785   0.029  1.00  0.00     0.228 C 
HETATM   11  O   UNL     1      39.998 -15.054   0.656  1.00  0.00    -0.273 OA
HETATM   12  H   UNL     1      43.017 -15.044  -0.367  1.00  0.00     0.169 HD
BRANCH  10  13
HETATM   13  C   UNL     1      41.013 -13.766  -1.102  1.00  0.00     0.107 C 
HETATM   14  C   UNL     1      41.435 -14.400  -2.421  1.00  0.00     0.190 C 
HETATM   15  O   UNL     1      41.248 -13.499  -3.516  1.00  0.00    -0.350 OA
HETATM   16  C   UNL     1      41.791 -12.256  -3.317  1.00  0.00     0.075 A 
HETATM   17  C   UNL     1      41.946 -11.461  -4.452  1.00  0.00     0.037 A 
HETATM   18  C   UNL     1      42.148 -11.765  -2.055  1.00  0.00    -0.024 A 
HETATM   19  C   UNL     1      42.494 -10.184  -4.342  1.00  0.00     0.003 A 
HETATM   20  C   UNL     1      42.883  -9.699  -3.095  1.00  0.00     0.001 A 
HETATM   21  C   UNL     1      42.712 -10.486  -1.955  1.00  0.00     0.010 A 
HETATM   22  C   UNL     1      41.968 -12.605  -0.822  1.00  0.00     0.057 C 
ENDBRANCH  10  13
ENDBRANCH   4   9
BRANCH   8  23
HETATM   23  C   UNL     1      43.716 -19.008   4.375  1.00  0.00     0.016 A 
HETATM   24  C   UNL     1      43.266 -19.084   5.717  1.00  0.00     0.152 A 
HETATM   25  N   UNL     1      43.856 -20.063   6.408  1.00  0.00    -0.187 NA
HETATM   26  N   UNL     1      44.692 -20.617   5.517  1.00  0.00    -0.289 N 
HETATM   27  H   UNL     1      45.264 -21.400   5.815  1.00  0.00     0.188 HD
HETATM   28  C   UNL     1      44.653 -20.017   4.291  1.00  0.00     0.123 A 
ENDBRANCH   8  23
TORSDOF 3
ENDMDL
MODEL 6
REMARK VINA RESULT:      -7.9      5.331      6.469
REMARK  3 active torsions:
REMARK  status: ('A' for Active; 'I' for Inactive)
REMARK    1  A    between atoms: C_4  and  N_5 
REMARK       I    between atoms: N_5  and  C_6 
REMARK    2  A    between atoms: C_6  and  C_8 
REMARK    3  A    between atoms: C_21  and  C_22 
ROOT
HETATM    1  F   UNL     1      38.843 -12.700   7.313  1.00  0.00    -0.205 F 
HETATM    2  C   UNL     1      39.811 -12.583   6.389  1.00  0.00     0.132 A 
HETATM    3  C   UNL     1      40.331 -13.766   5.851  1.00  0.00     0.072 A 
HETATM    4  C   UNL     1      41.331 -13.720   4.880  1.00  0.00     0.040 A 
HETATM    5  C   UNL     1      41.793 -12.472   4.460  1.00  0.00     0.072 A 
HETATM    6  C   UNL     1      41.257 -11.299   4.999  1.00  0.00     0.132 A 
HETATM    7  F   UNL     1      41.745 -10.133   4.548  1.00  0.00    -0.205 F 
HETATM    8  C   UNL     1      40.260 -11.325   5.977  1.00  0.00     0.054 A 
ENDROOT
BRANCH   4   9
HETATM    9  N   UNL     1      41.912 -14.860   4.282  1.00  0.00    -0.327 N 
HETATM   10  C   UNL     1      42.961 -15.624   4.773  1.00  0.00     0.228 C 
HETATM   11  O   UNL     1      43.569 -15.411   5.817  1.00  0.00    -0.273 OA
HETATM   12  H   UNL     1      41.518 -15.142   3.392  1.00  0.00     0.169 HD
BRANCH  10  13
HETATM   13  C   UNL     1      43.314 -16.796   3.869  1.00  0.00     0.107 C 
HETATM   14  C   UNL     1      42.102 -17.270   3.077  1.00  0.00     0.190 C 
HETATM   15  O   UNL     1      42.470 -18.239   2.091  1.00  0.00    -0.350 OA
HETATM   16  C   UNL     1      43.234 -19.269   2.575  1.00  0.00     0.075 A 
HETATM   17  C   UNL     1      43.332 -20.398   1.765  1.00  0.00     0.037 A 
HETATM   18  C   UNL     1      43.921 -19.210   3.794  1.00  0.00    -0.024 A 
HETATM   19  C   UNL     1      44.086 -21.495   2.181  1.00  0.00     0.003 A 
HETATM   20  C   UNL     1      44.747 -21.459   3.408  1.00  0.00     0.001 A 
HETATM   21  C   UNL     1      44.665 -20.322   4.213  1.00  0.00     0.010 A 
HETATM   22  C   UNL     1      43.838 -17.990   4.668  1.00  0.00     0.057 C 
ENDBRANCH  10  13
ENDBRANCH   4   9
BRANCH   8  23
HETATM   23  C   UNL     1      39.717 -10.091   6.521  1.00  0.00     0.016 A 
HETATM   24  C   UNL     1      38.939  -9.074   5.914  1.00  0.00     0.152 A 
HETATM   25  N   UNL     1      38.637  -8.080   6.754  1.00  0.00    -0.187 NA
HETATM   26  N   UNL     1      39.224  -8.450   7.902  1.00  0.00    -0.289 N 
HETATM   27  H   UNL     1      39.133  -7.840   8.708  1.00  0.00     0.188 HD
HETATM   28  C   UNL     1      39.890  -9.638   7.813  1.00  0.00     0.123 A 
ENDBRANCH   8  23
TORSDOF 3
ENDMDL
MODEL 7
REMARK VINA RESULT:      -7.8      4.656      9.241
REMARK  3 active torsions:
REMARK  status: ('A' for Active; 'I' for Inactive)
REMARK    1  A    between atoms: C_4  and  N_5 
REMARK       I    between atoms: N_5  and  C_6 
REMARK    2  A    between atoms: C_6  and  C_8 
REMARK    3  A    between atoms: C_21  and  C_22 
ROOT
HETATM    1  F   UNL     1      44.341 -17.982   0.885  1.00  0.00    -0.205 F 
HETATM    2  C   UNL     1      43.718 -17.710   2.043  1.00  0.00     0.132 A 
HETATM    3  C   UNL     1      43.296 -16.391   2.249  1.00  0.00     0.072 A 
HETATM    4  C   UNL     1      42.633 -16.038   3.423  1.00  0.00     0.040 A 
HETATM    5  C   UNL     1      42.401 -17.028   4.380  1.00  0.00     0.072 A 
HETATM    6  C   UNL     1      42.820 -18.342   4.156  1.00  0.00     0.132 A 
HETATM    7  F   UNL     1      42.561 -19.245   5.116  1.00  0.00    -0.205 F 
HETATM    8  C   UNL     1      43.491 -18.714   2.988  1.00  0.00     0.054 A 
ENDROOT
BRANCH   4   9
HETATM    9  N   UNL     1      42.171 -14.735   3.716  1.00  0.00    -0.327 N 
HETATM   10  C   UNL     1      42.926 -13.652   4.142  1.00  0.00     0.228 C 
HETATM   11  O   UNL     1      44.135 -13.664   4.351  1.00  0.00    -0.273 OA
HETATM   12  H   UNL     1      41.175 -14.585   3.605  1.00  0.00     0.169 HD
BRANCH  10  13
HETATM   13  C   UNL     1      42.095 -12.393   4.341  1.00  0.00     0.107 C 
HETATM   14  C   UNL     1      41.739 -12.191   5.809  1.00  0.00     0.190 C 
HETATM   15  O   UNL     1      41.126 -10.916   6.026  1.00  0.00    -0.350 OA
HETATM   16  C   UNL     1      40.085 -10.644   5.176  1.00  0.00     0.075 A 
HETATM   17  C   UNL     1      39.242  -9.599   5.549  1.00  0.00     0.037 A 
HETATM   18  C   UNL     1      39.871 -11.332   3.975  1.00  0.00    -0.024 A 
HETATM   19  C   UNL     1      38.155  -9.256   4.746  1.00  0.00     0.003 A 
HETATM   20  C   UNL     1      37.915  -9.956   3.565  1.00  0.00     0.001 A 
HETATM   21  C   UNL     1      38.769 -10.991   3.181  1.00  0.00     0.010 A 
HETATM   22  C   UNL     1      40.785 -12.448   3.554  1.00  0.00     0.057 C 
ENDBRANCH  10  13
ENDBRANCH   4   9
BRANCH   8  23
HETATM   23  C   UNL     1      43.915 -20.088   2.778  1.00  0.00     0.016 A 
HETATM   24  C   UNL     1      43.615 -21.001   1.737  1.00  0.00     0.152 A 
HETATM   25  N   UNL     1      44.199 -22.191   1.905  1.00  0.00    -0.187 NA
HETATM   26  N   UNL     1      44.872 -22.050   3.057  1.00  0.00    -0.289 N 
HETATM   27  H   UNL     1      45.407 -22.840   3.401  1.00  0.00     0.188 HD
HETATM   28  C   UNL     1      44.727 -20.817   3.622  1.00  0.00     0.123 A 
ENDBRANCH   8  23
TORSDOF 3
ENDMDL
MODEL 8
REMARK VINA RESULT:      -7.7      3.378      9.420
REMARK  3 active torsions:
REMARK  status: ('A' for Active; 'I' for Inactive)
REMARK    1  A    between atoms: C_4  and  N_5 
REMARK       I    between atoms: N_5  and  C_6 
REMARK    2  A    between atoms: C_6  and  C_8 
REMARK    3  A    between atoms: C_21  and  C_22 
ROOT
HETATM    1  F   UNL     1      43.957 -16.484   4.949  1.00  0.00    -0.205 F 
HETATM    2  C   UNL     1      43.442 -16.855   3.764  1.00  0.00     0.132 A 
HETATM    3  C   UNL     1      42.969 -15.839   2.925  1.00  0.00     0.072 A 
HETATM    4  C   UNL     1      42.431 -16.149   1.677  1.00  0.00     0.040 A 
HETATM    5  C   UNL     1      42.381 -17.488   1.288  1.00  0.00     0.072 A 
HETATM    6  C   UNL     1      42.866 -18.491   2.133  1.00  0.00     0.132 A 
HETATM    7  F   UNL     1      42.790 -19.758   1.695  1.00  0.00    -0.205 F 
HETATM    8  C   UNL     1      43.403 -18.200   3.390  1.00  0.00     0.054 A 
ENDROOT
BRANCH   4   9
HETATM    9  N   UNL     1      41.932 -15.192   0.766  1.00  0.00    -0.327 N 
HETATM   10  C   UNL     1      40.630 -14.722   0.671  1.00  0.00     0.228 C 
HETATM   11  O   UNL     1      39.688 -15.087   1.367  1.00  0.00    -0.273 OA
HETATM   12  H   UNL     1      42.604 -14.815   0.108  1.00  0.00     0.169 HD
BRANCH  10  13
HETATM   13  C   UNL     1      40.457 -13.675  -0.420  1.00  0.00     0.107 C 
HETATM   14  C   UNL     1      39.457 -14.133  -1.475  1.00  0.00     0.190 C 
HETATM   15  O   UNL     1      39.148 -13.080  -2.393  1.00  0.00    -0.350 OA
HETATM   16  C   UNL     1      40.250 -12.461  -2.926  1.00  0.00     0.075 A 
HETATM   17  C   UNL     1      40.031 -11.682  -4.060  1.00  0.00     0.037 A 
HETATM   18  C   UNL     1      41.531 -12.555  -2.368  1.00  0.00    -0.024 A 
HETATM   19  C   UNL     1      41.095 -11.019  -4.670  1.00  0.00     0.003 A 
HETATM   20  C   UNL     1      42.380 -11.133  -4.142  1.00  0.00     0.001 A 
HETATM   21  C   UNL     1      42.598 -11.898  -2.995  1.00  0.00     0.010 A 
HETATM   22  C   UNL     1      41.776 -13.377  -1.134  1.00  0.00     0.057 C 
ENDBRANCH  10  13
ENDBRANCH   4   9
BRANCH   8  23
HETATM   23  C   UNL     1      43.903 -19.261   4.249  1.00  0.00     0.016 A 
HETATM   24  C   UNL     1      44.838 -20.295   3.996  1.00  0.00     0.152 A 
HETATM   25  N   UNL     1      45.034 -21.089   5.052  1.00  0.00    -0.187 NA
HETATM   26  N   UNL     1      44.222 -20.572   5.987  1.00  0.00    -0.289 N 
HETATM   27  H   UNL     1      44.195 -21.015   6.900  1.00  0.00     0.188 HD
HETATM   28  C   UNL     1      43.518 -19.486   5.555  1.00  0.00     0.123 A 
ENDBRANCH   8  23
TORSDOF 3
ENDMDL
MODEL 9
REMARK VINA RESULT:      -7.7      5.686      9.606
REMARK  3 active torsions:
REMARK  status: ('A' for Active; 'I' for Inactive)
REMARK    1  A    between atoms: C_4  and  N_5 
REMARK       I    between atoms: N_5  and  C_6 
REMARK    2  A    between atoms: C_6  and  C_8 
REMARK    3  A    between atoms: C_21  and  C_22 
ROOT
HETATM    1  F   UNL     1      44.146 -17.087   1.632  1.00  0.00    -0.205 F 
HETATM    2  C   UNL     1      43.590 -17.096   2.854  1.00  0.00     0.132 A 
HETATM    3  C   UNL     1      43.188 -15.864   3.384  1.00  0.00     0.072 A 
HETATM    4  C   UNL     1      42.593 -15.798   4.643  1.00  0.00     0.040 A 
HETATM    5  C   UNL     1      42.408 -16.985   5.354  1.00  0.00     0.072 A 
HETATM    6  C   UNL     1      42.805 -18.209   4.808  1.00  0.00     0.132 A 
HETATM    7  F   UNL     1      42.594 -19.311   5.544  1.00  0.00    -0.205 F 
HETATM    8  C   UNL     1      43.409 -18.294   3.550  1.00  0.00     0.054 A 
ENDROOT
BRANCH   4   9
HETATM    9  N   UNL     1      42.157 -14.602   5.256  1.00  0.00    -0.327 N 
HETATM   10  C   UNL     1      40.905 -14.013   5.150  1.00  0.00     0.228 C 
HETATM   11  O   UNL     1      39.970 -14.441   4.481  1.00  0.00    -0.273 OA
HETATM   12  H   UNL     1      42.842 -14.124   5.829  1.00  0.00     0.169 HD
BRANCH  10  13
HETATM   13  C   UNL     1      40.782 -12.734   5.965  1.00  0.00     0.107 C 
HETATM   14  C   UNL     1      39.330 -12.439   6.318  1.00  0.00     0.190 C 
HETATM   15  O   UNL     1      39.228 -11.350   7.241  1.00  0.00    -0.350 OA
HETATM   16  C   UNL     1      39.931 -10.233   6.869  1.00  0.00     0.075 A 
HETATM   17  C   UNL     1      39.602  -9.050   7.527  1.00  0.00     0.037 A 
HETATM   18  C   UNL     1      40.952 -10.250   5.910  1.00  0.00    -0.024 A 
HETATM   19  C   UNL     1      40.264  -7.865   7.209  1.00  0.00     0.003 A 
HETATM   20  C   UNL     1      41.259  -7.864   6.233  1.00  0.00     0.001 A 
HETATM   21  C   UNL     1      41.602  -9.052   5.585  1.00  0.00     0.010 A 
HETATM   22  C   UNL     1      41.327 -11.524   5.206  1.00  0.00     0.057 C 
ENDBRANCH  10  13
ENDBRANCH   4   9
BRANCH   8  23
HETATM   23  C   UNL     1      43.811 -19.579   3.003  1.00  0.00     0.016 A 
HETATM   24  C   UNL     1      43.308 -20.315   1.902  1.00  0.00     0.152 A 
HETATM   25  N   UNL     1      43.947 -21.474   1.716  1.00  0.00    -0.187 NA
HETATM   26  N   UNL     1      44.860 -21.490   2.700  1.00  0.00    -0.289 N 
HETATM   27  H   UNL     1      45.480 -22.289   2.768  1.00  0.00     0.188 HD
HETATM   28  C   UNL     1      44.813 -20.386   3.501  1.00  0.00     0.123 A 
ENDBRANCH   8  23
TORSDOF 3
ENDMDL
MODEL 10
REMARK VINA RESULT:      -7.7      2.002      3.215
REMARK  3 active torsions:
REMARK  status: ('A' for Active; 'I' for Inactive)
REMARK    1  A    between atoms: C_4  and  N_5 
REMARK       I    between atoms: N_5  and  C_6 
REMARK    2  A    between atoms: C_6  and  C_8 
REMARK    3  A    between atoms: C_21  and  C_22 
ROOT
HETATM    1  F   UNL     1      40.874 -14.573  -3.325  1.00  0.00    -0.205 F 
HETATM    2  C   UNL     1      40.396 -14.509  -2.071  1.00  0.00     0.132 A 
HETATM    3  C   UNL     1      41.198 -15.034  -1.051  1.00  0.00     0.072 A 
HETATM    4  C   UNL     1      40.771 -14.992   0.275  1.00  0.00     0.040 A 
HETATM    5  C   UNL     1      39.532 -14.413   0.556  1.00  0.00     0.072 A 
HETATM    6  C   UNL     1      38.747 -13.883  -0.471  1.00  0.00     0.132 A 
HETATM    7  F   UNL     1      37.569 -13.338  -0.130  1.00  0.00    -0.205 F 
HETATM    8  C   UNL     1      39.156 -13.922  -1.807  1.00  0.00     0.054 A 
ENDROOT
BRANCH   4   9
HETATM    9  N   UNL     1      41.512 -15.496   1.366  1.00  0.00    -0.327 N 
HETATM   10  C   UNL     1      41.520 -16.797   1.847  1.00  0.00     0.228 C 
HETATM   11  O   UNL     1      40.857 -17.726   1.399  1.00  0.00    -0.273 OA
HETATM   12  H   UNL     1      42.096 -14.824   1.851  1.00  0.00     0.169 HD
BRANCH  10  13
HETATM   13  C   UNL     1      42.457 -16.985   3.032  1.00  0.00     0.107 C 
HETATM   14  C   UNL     1      43.156 -18.337   2.977  1.00  0.00     0.190 C 
HETATM   15  O   UNL     1      44.175 -18.439   3.977  1.00  0.00    -0.350 OA
HETATM   16  C   UNL     1      43.757 -18.098   5.237  1.00  0.00     0.075 A 
HETATM   17  C   UNL     1      44.581 -18.498   6.288  1.00  0.00     0.037 A 
HETATM   18  C   UNL     1      42.594 -17.360   5.490  1.00  0.00    -0.024 A 
HETATM   19  C   UNL     1      44.231 -18.198   7.604  1.00  0.00     0.003 A 
HETATM   20  C   UNL     1      43.059 -17.492   7.869  1.00  0.00     0.001 A 
HETATM   21  C   UNL     1      42.242 -17.074   6.816  1.00  0.00     0.010 A 
HETATM   22  C   UNL     1      41.709 -16.907   4.363  1.00  0.00     0.057 C 
ENDBRANCH  10  13
ENDBRANCH   4   9
BRANCH   8  23
HETATM   23  C   UNL     1      38.322 -13.362  -2.858  1.00  0.00     0.016 A 
HETATM   24  C   UNL     1      38.138 -12.022  -3.280  1.00  0.00     0.152 A 
HETATM   25  N   UNL     1      37.270 -11.910  -4.289  1.00  0.00    -0.187 NA
HETATM   26  N   UNL     1      36.887 -13.176  -4.516  1.00  0.00    -0.289 N 
HETATM   27  H   UNL     1      36.215 -13.350  -5.255  1.00  0.00     0.188 HD
HETATM   28  C   UNL     1      37.479 -14.079  -3.682  1.00  0.00     0.123 A 
ENDBRANCH   8  23
TORSDOF 3
ENDMDL
