MODEL 1
REMARK VINA RESULT:      -8.3      0.000      0.000
REMARK  7 active torsions:
REMARK  status: ('A' for Active; 'I' for Inactive)
REMARK    1  A    between atoms: C_2  and  N_3 
REMARK    2  A    between atoms: C_2  and  C_10 
REMARK    3  A    between atoms: N_11  and  C_12 
REMARK    4  A    between atoms: C_19  and  S_20 
REMARK    5  A    between atoms: S_20  and  C_21 
REMARK    6  A    between atoms: C_21  and  C_22 
REMARK    7  A    between atoms: C_21  and  C_28 
REMARK       I    between atoms: C_22  and  N_23 
REMARK       I    between atoms: N_23  and  C_24 
REMARK       I    between atoms: C_24  and  N_25 
ROOT
HETATM    1  C   UNL     1      40.961 -15.680   0.916  1.00  0.00     0.166 A 
HETATM    2  N   UNL     1      41.889 -15.795   1.950  1.00  0.00    -0.274 N 
HETATM    3  C   UNL     1      42.727 -16.812   1.530  1.00  0.00     0.197 A 
HETATM    4  N   UNL     1      42.314 -17.296   0.382  1.00  0.00    -0.122 NA
HETATM    5  N   UNL     1      41.195 -16.614   0.015  1.00  0.00    -0.131 NA
ENDROOT
BRANCH   3   6
HETATM    6  S   UNL     1      44.078 -17.456   2.394  1.00  0.00    -0.070 SA
BRANCH   6   7
HETATM    7  C   UNL     1      43.262 -18.424   3.718  1.00  0.00     0.180 C 
BRANCH   7   8
HETATM    8  C   UNL     1      43.814 -19.857   3.752  1.00  0.00     0.244 C 
HETATM    9  N   UNL     1      43.752 -20.537   2.545  1.00  0.00    -0.278 N 
HETATM   10  C   UNL     1      44.190 -21.795   2.251  1.00  0.00     0.320 C 
HETATM   11  H   UNL     1      43.306 -20.092   1.755  1.00  0.00     0.173 HD
HETATM   12  N   UNL     1      44.881 -22.445   3.209  1.00  0.00    -0.352 N 
HETATM   13  O   UNL     1      43.980 -22.299   1.154  1.00  0.00    -0.247 OA
HETATM   14  H   UNL     1      44.828 -22.121   4.169  1.00  0.00     0.160 HD
HETATM   15  H   UNL     1      45.130 -23.409   3.035  1.00  0.00     0.160 HD
HETATM   16  O   UNL     1      44.237 -20.344   4.804  1.00  0.00    -0.271 OA
ENDBRANCH   7   8
BRANCH   7  17
HETATM   17  C   UNL     1      43.272 -17.781   5.103  1.00  0.00    -0.035 A 
HETATM   18  C   UNL     1      42.288 -17.999   6.083  1.00  0.00     0.009 A 
HETATM   19  C   UNL     1      42.349 -17.347   7.319  1.00  0.00     0.001 A 
HETATM   20  C   UNL     1      43.385 -16.461   7.595  1.00  0.00     0.000 A 
HETATM   21  C   UNL     1      44.366 -16.225   6.638  1.00  0.00     0.001 A 
HETATM   22  C   UNL     1      44.313 -16.880   5.406  1.00  0.00     0.009 A 
ENDBRANCH   7  17
ENDBRANCH   6   7
ENDBRANCH   3   6
BRANCH   2  23
HETATM   23  C   UNL     1      41.973 -14.990   3.114  1.00  0.00     0.043 A 
HETATM   24  C   UNL     1      42.995 -14.034   3.228  1.00  0.00     0.033 A 
HETATM   25  C   UNL     1      43.094 -13.259   4.386  1.00  0.00     0.044 A 
HETATM   26  C   UNL     1      42.178 -13.438   5.416  1.00  0.00     0.116 A 
HETATM   27  F   UNL     1      42.283 -12.698   6.526  1.00  0.00    -0.206 F 
HETATM   28  C   UNL     1      41.157 -14.373   5.310  1.00  0.00     0.044 A 
HETATM   29  C   UNL     1      41.047 -15.153   4.156  1.00  0.00     0.033 A 
ENDBRANCH   2  23
BRANCH   1  30
HETATM   30  C   UNL     1      39.964 -14.575   0.729  1.00  0.00     0.255 C 
HETATM   31  C   UNL     1      38.682 -14.841   1.520  1.00  0.00     0.049 C 
BRANCH  30  32
HETATM   32  N   UNL     1      39.594 -14.291  -0.747  1.00  0.00    -0.060 N 
HETATM   33  H   UNL     1      39.607 -15.206  -1.213  1.00  0.00     0.280 HD
HETATM   34  C   UNL     1      38.182 -13.755  -0.879  1.00  0.00     0.236 C 
HETATM   35  C   UNL     1      37.781 -13.741  -2.348  1.00  0.00     0.028 C 
HETATM   36  C   UNL     1      38.764 -12.941  -3.196  1.00  0.00     0.003 C 
HETATM   37  C   UNL     1      40.196 -13.420  -2.986  1.00  0.00     0.028 C 
HETATM   38  C   UNL     1      40.573 -13.410  -1.509  1.00  0.00     0.236 C 
ENDBRANCH  30  32
ENDBRANCH   1  30
TORSDOF 7
ENDMDL
MODEL 2
REMARK VINA RESULT:      -8.2      3.607      5.634
REMARK  7 active torsions:
REMARK  status: ('A' for Active; 'I' for Inactive)
REMARK    1  A    between atoms: C_2  and  N_3 
REMARK    2  A    between atoms: C_2  and  C_10 
REMARK    3  A    between atoms: N_11  and  C_12 
REMARK    4  A    between atoms: C_19  and  S_20 
REMARK    5  A    between atoms: S_20  and  C_21 
REMARK    6  A    between atoms: C_21  and  C_22 
REMARK    7  A    between atoms: C_21  and  C_28 
REMARK       I    between atoms: C_22  and  N_23 
REMARK       I    between atoms: N_23  and  C_24 
REMARK       I    between atoms: C_24  and  N_25 
ROOT
HETATM    1  C   UNL     1      41.802 -12.779   0.353  1.00  0.00     0.166 A 
HETATM    2  N   UNL     1      41.295 -14.038   0.033  1.00  0.00    -0.274 N 
HETATM    3  C   UNL     1      41.685 -14.831   1.097  1.00  0.00     0.197 A 
HETATM    4  N   UNL     1      42.400 -14.132   1.947  1.00  0.00    -0.122 NA
HETATM    5  N   UNL     1      42.502 -12.862   1.467  1.00  0.00    -0.131 NA
ENDROOT
BRANCH   3   6
HETATM    6  S   UNL     1      41.385 -16.523   1.285  1.00  0.00    -0.070 SA
BRANCH   6   7
HETATM    7  C   UNL     1      42.362 -16.924   2.781  1.00  0.00     0.180 C 
BRANCH   7   8
HETATM    8  C   UNL     1      41.506 -16.745   4.043  1.00  0.00     0.244 C 
HETATM    9  N   UNL     1      41.404 -15.440   4.501  1.00  0.00    -0.278 N 
HETATM   10  C   UNL     1      40.695 -14.962   5.563  1.00  0.00     0.320 C 
HETATM   11  H   UNL     1      41.930 -14.715   4.033  1.00  0.00     0.173 HD
HETATM   12  N   UNL     1      39.886 -15.830   6.204  1.00  0.00    -0.352 N 
HETATM   13  O   UNL     1      40.777 -13.787   5.903  1.00  0.00    -0.247 OA
HETATM   14  H   UNL     1      40.020 -16.826   6.071  1.00  0.00     0.160 HD
HETATM   15  H   UNL     1      39.428 -15.510   7.046  1.00  0.00     0.160 HD
HETATM   16  O   UNL     1      40.996 -17.720   4.602  1.00  0.00    -0.271 OA
ENDBRANCH   7   8
BRANCH   7  17
HETATM   17  C   UNL     1      43.066 -18.280   2.762  1.00  0.00    -0.035 A 
HETATM   18  C   UNL     1      42.836 -19.277   1.798  1.00  0.00     0.009 A 
HETATM   19  C   UNL     1      43.497 -20.507   1.866  1.00  0.00     0.001 A 
HETATM   20  C   UNL     1      44.390 -20.769   2.901  1.00  0.00     0.000 A 
HETATM   21  C   UNL     1      44.627 -19.800   3.869  1.00  0.00     0.001 A 
HETATM   22  C   UNL     1      43.976 -18.566   3.800  1.00  0.00     0.009 A 
ENDBRANCH   7  17
ENDBRANCH   6   7
ENDBRANCH   3   6
BRANCH   2  23
HETATM   23  C   UNL     1      40.501 -14.378  -1.092  1.00  0.00     0.043 A 
HETATM   24  C   UNL     1      41.098 -14.982  -2.210  1.00  0.00     0.033 A 
HETATM   25  C   UNL     1      40.321 -15.293  -3.328  1.00  0.00     0.044 A 
HETATM   26  C   UNL     1      38.961 -15.005  -3.324  1.00  0.00     0.116 A 
HETATM   27  F   UNL     1      38.223 -15.298  -4.401  1.00  0.00    -0.206 F 
HETATM   28  C   UNL     1      38.358 -14.417  -2.220  1.00  0.00     0.044 A 
HETATM   29  C   UNL     1      39.125 -14.103  -1.096  1.00  0.00     0.033 A 
ENDBRANCH   2  23
BRANCH   1  30
HETATM   30  C   UNL     1      41.475 -11.485  -0.329  1.00  0.00     0.255 C 
HETATM   31  C   UNL     1      40.186 -10.874   0.225  1.00  0.00     0.049 C 
BRANCH  30  32
HETATM   32  N   UNL     1      41.362 -11.583  -1.870  1.00  0.00    -0.060 N 
HETATM   33  H   UNL     1      41.262 -12.585  -2.072  1.00  0.00     0.280 HD
HETATM   34  C   UNL     1      40.109 -10.907  -2.387  1.00  0.00     0.236 C 
HETATM   35  C   UNL     1      39.914 -11.255  -3.857  1.00  0.00     0.028 C 
HETATM   36  C   UNL     1      41.134 -10.885  -4.693  1.00  0.00     0.003 C 
HETATM   37  C   UNL     1      42.408 -11.489  -4.113  1.00  0.00     0.028 C 
HETATM   38  C   UNL     1      42.583 -11.112  -2.646  1.00  0.00     0.236 C 
ENDBRANCH  30  32
ENDBRANCH   1  30
TORSDOF 7
ENDMDL
MODEL 3
REMARK VINA RESULT:      -8.2      3.901      5.412
REMARK  7 active torsions:
REMARK  status: ('A' for Active; 'I' for Inactive)
REMARK    1  A    between atoms: C_2  and  N_3 
REMARK    2  A    between atoms: C_2  and  C_10 
REMARK    3  A    between atoms: N_11  and  C_12 
REMARK    4  A    between atoms: C_19  and  S_20 
REMARK    5  A    between atoms: S_20  and  C_21 
REMARK    6  A    between atoms: C_21  and  C_22 
REMARK    7  A    between atoms: C_21  and  C_28 
REMARK       I    between atoms: C_22  and  N_23 
REMARK       I    between atoms: N_23  and  C_24 
REMARK       I    between atoms: C_24  and  N_25 
ROOT
HETATM    1  C   UNL     1      41.461 -13.366   0.260  1.00  0.00     0.166 A 
HETATM    2  N   UNL     1      41.346 -14.209   1.364  1.00  0.00    -0.274 N 
HETATM    3  C   UNL     1      40.781 -13.404   2.337  1.00  0.00     0.197 A 
HETATM    4  N   UNL     1      40.621 -12.184   1.880  1.00  0.00    -0.122 NA
HETATM    5  N   UNL     1      41.075 -12.151   0.598  1.00  0.00    -0.131 NA
ENDROOT
BRANCH   3   6
HETATM    6  S   UNL     1      40.409 -13.859   3.962  1.00  0.00    -0.070 SA
BRANCH   6   7
HETATM    7  C   UNL     1      42.066 -14.235   4.646  1.00  0.00     0.180 C 
BRANCH   7   8
HETATM    8  C   UNL     1      42.341 -13.373   5.888  1.00  0.00     0.244 C 
HETATM    9  N   UNL     1      43.499 -13.694   6.578  1.00  0.00    -0.278 N 
HETATM   10  C   UNL     1      44.027 -13.095   7.684  1.00  0.00     0.320 C 
HETATM   11  H   UNL     1      44.046 -14.488   6.274  1.00  0.00     0.173 HD
HETATM   12  N   UNL     1      43.425 -11.970   8.120  1.00  0.00    -0.352 N 
HETATM   13  O   UNL     1      45.017 -13.553   8.242  1.00  0.00    -0.247 OA
HETATM   14  H   UNL     1      42.485 -11.754   7.807  1.00  0.00     0.160 HD
HETATM   15  H   UNL     1      43.750 -11.571   8.990  1.00  0.00     0.160 HD
HETATM   16  O   UNL     1      41.544 -12.496   6.233  1.00  0.00    -0.271 OA
ENDBRANCH   7   8
BRANCH   7  17
HETATM   17  C   UNL     1      42.348 -15.713   4.909  1.00  0.00    -0.035 A 
HETATM   18  C   UNL     1      43.636 -16.270   4.986  1.00  0.00     0.009 A 
HETATM   19  C   UNL     1      43.814 -17.641   5.199  1.00  0.00     0.001 A 
HETATM   20  C   UNL     1      42.711 -18.480   5.328  1.00  0.00     0.000 A 
HETATM   21  C   UNL     1      41.428 -17.952   5.249  1.00  0.00     0.001 A 
HETATM   22  C   UNL     1      41.247 -16.582   5.045  1.00  0.00     0.009 A 
ENDBRANCH   7  17
ENDBRANCH   6   7
ENDBRANCH   3   6
BRANCH   2  23
HETATM   23  C   UNL     1      41.669 -15.589   1.423  1.00  0.00     0.043 A 
HETATM   24  C   UNL     1      40.643 -16.545   1.466  1.00  0.00     0.033 A 
HETATM   25  C   UNL     1      40.961 -17.902   1.549  1.00  0.00     0.044 A 
HETATM   26  C   UNL     1      42.294 -18.297   1.587  1.00  0.00     0.116 A 
HETATM   27  F   UNL     1      42.593 -19.598   1.675  1.00  0.00    -0.206 F 
HETATM   28  C   UNL     1      43.318 -17.360   1.534  1.00  0.00     0.044 A 
HETATM   29  C   UNL     1      43.011 -16.000   1.448  1.00  0.00     0.033 A 
ENDBRANCH   2  23
BRANCH   1  30
HETATM   30  C   UNL     1      41.788 -13.775  -1.145  1.00  0.00     0.255 C 
HETATM   31  C   UNL     1      42.216 -12.573  -1.990  1.00  0.00     0.049 C 
BRANCH  30  32
HETATM   32  N   UNL     1      40.647 -14.521  -1.876  1.00  0.00    -0.060 N 
HETATM   33  H   UNL     1      40.229 -15.140  -1.171  1.00  0.00     0.280 HD
HETATM   34  C   UNL     1      39.553 -13.574  -2.327  1.00  0.00     0.236 C 
HETATM   35  C   UNL     1      38.349 -14.379  -2.800  1.00  0.00     0.028 C 
HETATM   36  C   UNL     1      38.723 -15.364  -3.901  1.00  0.00     0.003 C 
HETATM   37  C   UNL     1      39.890 -16.251  -3.479  1.00  0.00     0.028 C 
HETATM   38  C   UNL     1      41.083 -15.419  -3.025  1.00  0.00     0.236 C 
ENDBRANCH  30  32
ENDBRANCH   1  30
TORSDOF 7
ENDMDL
MODEL 4
REMARK VINA RESULT:      -8.1      3.710      5.557
REMARK  7 active torsions:
REMARK  status: ('A' for Active; 'I' for Inactive)
REMARK    1  A    between atoms: C_2  and  N_3 
REMARK    2  A    between atoms: C_2  and  C_10 
REMARK    3  A    between atoms: N_11  and  C_12 
REMARK    4  A    between atoms: C_19  and  S_20 
REMARK    5  A    between atoms: S_20  and  C_21 
REMARK    6  A    between atoms: C_21  and  C_22 
REMARK    7  A    between atoms: C_21  and  C_28 
REMARK       I    between atoms: C_22  and  N_23 
REMARK       I    between atoms: N_23  and  C_24 
REMARK       I    between atoms: C_24  and  N_25 
ROOT
HETATM    1  C   UNL     1      40.923 -14.097   0.459  1.00  0.00     0.166 A 
HETATM    2  N   UNL     1      41.112 -14.887   1.592  1.00  0.00    -0.274 N 
HETATM    3  C   UNL     1      40.335 -14.272   2.557  1.00  0.00     0.197 A 
HETATM    4  N   UNL     1      39.775 -13.190   2.068  1.00  0.00    -0.122 NA
HETATM    5  N   UNL     1      40.168 -13.061   0.771  1.00  0.00    -0.131 NA
ENDROOT
BRANCH   3   6
HETATM    6  S   UNL     1      40.165 -14.758   4.207  1.00  0.00    -0.070 SA
BRANCH   6   7
HETATM    7  C   UNL     1      41.849 -14.475   4.868  1.00  0.00     0.180 C 
BRANCH   7   8
HETATM    8  C   UNL     1      41.840 -13.321   5.881  1.00  0.00     0.244 C 
HETATM    9  N   UNL     1      40.582 -12.842   6.212  1.00  0.00    -0.278 N 
HETATM   10  C   UNL     1      40.248 -11.861   7.098  1.00  0.00     0.320 C 
HETATM   11  H   UNL     1      39.774 -13.223   5.739  1.00  0.00     0.173 HD
HETATM   12  N   UNL     1      41.242 -11.347   7.851  1.00  0.00    -0.352 N 
HETATM   13  O   UNL     1      39.089 -11.481   7.217  1.00  0.00    -0.247 OA
HETATM   14  H   UNL     1      42.206 -11.491   7.568  1.00  0.00     0.160 HD
HETATM   15  H   UNL     1      41.023 -10.558   8.442  1.00  0.00     0.160 HD
HETATM   16  O   UNL     1      42.898 -12.856   6.315  1.00  0.00    -0.271 OA
ENDBRANCH   7   8
BRANCH   7  17
HETATM   17  C   UNL     1      42.554 -15.711   5.424  1.00  0.00    -0.035 A 
HETATM   18  C   UNL     1      43.776 -15.680   6.117  1.00  0.00     0.009 A 
HETATM   19  C   UNL     1      44.376 -16.860   6.569  1.00  0.00     0.001 A 
HETATM   20  C   UNL     1      43.773 -18.090   6.328  1.00  0.00     0.000 A 
HETATM   21  C   UNL     1      42.567 -18.146   5.639  1.00  0.00     0.001 A 
HETATM   22  C   UNL     1      41.960 -16.969   5.194  1.00  0.00     0.009 A 
ENDBRANCH   7  17
ENDBRANCH   6   7
ENDBRANCH   3   6
BRANCH   2  23
HETATM   23  C   UNL     1      41.869 -16.082   1.682  1.00  0.00     0.043 A 
HETATM   24  C   UNL     1      43.262 -16.015   1.838  1.00  0.00     0.033 A 
HETATM   25  C   UNL     1      44.012 -17.192   1.901  1.00  0.00     0.044 A 
HETATM   26  C   UNL     1      43.371 -18.422   1.812  1.00  0.00     0.116 A 
HETATM   27  F   UNL     1      44.096 -19.546   1.865  1.00  0.00    -0.206 F 
HETATM   28  C   UNL     1      41.992 -18.502   1.668  1.00  0.00     0.044 A 
HETATM   29  C   UNL     1      41.233 -17.330   1.606  1.00  0.00     0.033 A 
ENDBRANCH   2  23
BRANCH   1  30
HETATM   30  C   UNL     1      41.336 -14.432  -0.943  1.00  0.00     0.255 C 
HETATM   31  C   UNL     1      41.966 -13.225  -1.642  1.00  0.00     0.049 C 
BRANCH  30  32
HETATM   32  N   UNL     1      40.197 -14.989  -1.830  1.00  0.00    -0.060 N 
HETATM   33  H   UNL     1      39.686 -15.651  -1.234  1.00  0.00     0.280 HD
HETATM   34  C   UNL     1      39.212 -13.908  -2.225  1.00  0.00     0.236 C 
HETATM   35  C   UNL     1      37.988 -14.548  -2.868  1.00  0.00     0.028 C 
HETATM   36  C   UNL     1      38.365 -15.422  -4.058  1.00  0.00     0.003 C 
HETATM   37  C   UNL     1      39.429 -16.447  -3.680  1.00  0.00     0.028 C 
HETATM   38  C   UNL     1      40.646 -15.776  -3.053  1.00  0.00     0.236 C 
ENDBRANCH  30  32
ENDBRANCH   1  30
TORSDOF 7
ENDMDL
MODEL 5
REMARK VINA RESULT:      -7.8      3.918      5.826
REMARK  7 active torsions:
REMARK  status: ('A' for Active; 'I' for Inactive)
REMARK    1  A    between atoms: C_2  and  N_3 
REMARK    2  A    between atoms: C_2  and  C_10 
REMARK    3  A    between atoms: N_11  and  C_12 
REMARK    4  A    between atoms: C_19  and  S_20 
REMARK    5  A    between atoms: S_20  and  C_21 
REMARK    6  A    between atoms: C_21  and  C_22 
REMARK    7  A    between atoms: C_21  and  C_28 
REMARK       I    between atoms: C_22  and  N_23 
REMARK       I    between atoms: N_23  and  C_24 
REMARK       I    between atoms: C_24  and  N_25 
ROOT
HETATM    1  C   UNL     1      41.282 -13.268  -0.079  1.00  0.00     0.166 A 
HETATM    2  N   UNL     1      41.088 -14.060   1.052  1.00  0.00    -0.274 N 
HETATM    3  C   UNL     1      40.409 -13.229   1.925  1.00  0.00     0.197 A 
HETATM    4  N   UNL     1      40.256 -12.040   1.393  1.00  0.00    -0.122 NA
HETATM    5  N   UNL     1      40.829 -12.053   0.158  1.00  0.00    -0.131 NA
ENDROOT
BRANCH   3   6
HETATM    6  S   UNL     1      39.899 -13.618   3.530  1.00  0.00    -0.070 SA
BRANCH   6   7
HETATM    7  C   UNL     1      41.496 -13.869   4.391  1.00  0.00     0.180 C 
BRANCH   7   8
HETATM    8  C   UNL     1      41.574 -12.983   5.644  1.00  0.00     0.244 C 
HETATM    9  N   UNL     1      40.408 -12.297   5.949  1.00  0.00    -0.278 N 
HETATM   10  C   UNL     1      40.156 -11.472   7.006  1.00  0.00     0.320 C 
HETATM   11  H   UNL     1      39.621 -12.366   5.320  1.00  0.00     0.173 HD
HETATM   12  N   UNL     1      41.109 -11.379   7.955  1.00  0.00    -0.352 N 
HETATM   13  O   UNL     1      39.099 -10.858   7.093  1.00  0.00    -0.247 OA
HETATM   14  H   UNL     1      42.052 -11.688   7.746  1.00  0.00     0.160 HD
HETATM   15  H   UNL     1      40.972 -10.702   8.692  1.00  0.00     0.160 HD
HETATM   16  O   UNL     1      42.626 -12.886   6.281  1.00  0.00    -0.271 OA
ENDBRANCH   7   8
BRANCH   7  17
HETATM   17  C   UNL     1      41.853 -15.321   4.702  1.00  0.00    -0.035 A 
HETATM   18  C   UNL     1      40.912 -16.319   5.008  1.00  0.00     0.009 A 
HETATM   19  C   UNL     1      41.319 -17.622   5.314  1.00  0.00     0.001 A 
HETATM   20  C   UNL     1      42.672 -17.949   5.328  1.00  0.00     0.000 A 
HETATM   21  C   UNL     1      43.621 -16.976   5.034  1.00  0.00     0.001 A 
HETATM   22  C   UNL     1      43.217 -15.676   4.721  1.00  0.00     0.009 A 
ENDBRANCH   7  17
ENDBRANCH   6   7
ENDBRANCH   3   6
BRANCH   2  23
HETATM   23  C   UNL     1      41.447 -15.423   1.211  1.00  0.00     0.043 A 
HETATM   24  C   UNL     1      40.446 -16.394   1.372  1.00  0.00     0.033 A 
HETATM   25  C   UNL     1      40.800 -17.732   1.555  1.00  0.00     0.044 A 
HETATM   26  C   UNL     1      42.142 -18.094   1.574  1.00  0.00     0.116 A 
HETATM   27  F   UNL     1      42.475 -19.377   1.758  1.00  0.00    -0.206 F 
HETATM   28  C   UNL     1      43.141 -17.144   1.406  1.00  0.00     0.044 A 
HETATM   29  C   UNL     1      42.798 -15.803   1.220  1.00  0.00     0.033 A 
ENDBRANCH   2  23
BRANCH   1  30
HETATM   30  C   UNL     1      41.752 -13.733  -1.425  1.00  0.00     0.255 C 
HETATM   31  C   UNL     1      42.634 -12.681  -2.101  1.00  0.00     0.049 C 
BRANCH  30  32
HETATM   32  N   UNL     1      40.617 -14.135  -2.396  1.00  0.00    -0.060 N 
HETATM   33  H   UNL     1      40.834 -13.662  -3.281  1.00  0.00     0.280 HD
HETATM   34  C   UNL     1      40.623 -15.623  -2.685  1.00  0.00     0.236 C 
HETATM   35  C   UNL     1      39.667 -15.921  -3.832  1.00  0.00     0.028 C 
HETATM   36  C   UNL     1      38.259 -15.415  -3.542  1.00  0.00     0.003 C 
HETATM   37  C   UNL     1      38.267 -13.940  -3.157  1.00  0.00     0.028 C 
HETATM   38  C   UNL     1      39.222 -13.675  -1.998  1.00  0.00     0.236 C 
ENDBRANCH  30  32
ENDBRANCH   1  30
TORSDOF 7
ENDMDL
MODEL 6
REMARK VINA RESULT:      -7.7      3.055      7.281
REMARK  7 active torsions:
REMARK  status: ('A' for Active; 'I' for Inactive)
REMARK    1  A    between atoms: C_2  and  N_3 
REMARK    2  A    between atoms: C_2  and  C_10 
REMARK    3  A    between atoms: N_11  and  C_12 
REMARK    4  A    between atoms: C_19  and  S_20 
REMARK    5  A    between atoms: S_20  and  C_21 
REMARK    6  A    between atoms: C_21  and  C_22 
REMARK    7  A    between atoms: C_21  and  C_28 
REMARK       I    between atoms: C_22  and  N_23 
REMARK       I    between atoms: N_23  and  C_24 
REMARK       I    between atoms: C_24  and  N_25 
ROOT
HETATM    1  C   UNL     1      42.859 -17.842   2.741  1.00  0.00     0.166 A 
HETATM    2  N   UNL     1      42.018 -16.745   2.921  1.00  0.00    -0.274 N 
HETATM    3  C   UNL     1      40.961 -16.994   2.064  1.00  0.00     0.197 A 
HETATM    4  N   UNL     1      41.170 -18.104   1.396  1.00  0.00    -0.122 NA
HETATM    5  N   UNL     1      42.368 -18.616   1.793  1.00  0.00    -0.131 NA
ENDROOT
BRANCH   3   6
HETATM    6  S   UNL     1      39.588 -15.979   1.800  1.00  0.00    -0.070 SA
BRANCH   6   7
HETATM    7  C   UNL     1      40.347 -14.491   1.048  1.00  0.00     0.180 C 
BRANCH   7   8
HETATM    8  C   UNL     1      39.763 -14.240  -0.350  1.00  0.00     0.244 C 
HETATM    9  N   UNL     1      40.380 -14.937  -1.376  1.00  0.00    -0.278 N 
HETATM   10  C   UNL     1      40.070 -14.953  -2.705  1.00  0.00     0.320 C 
HETATM   11  H   UNL     1      41.191 -15.503  -1.165  1.00  0.00     0.173 HD
HETATM   12  N   UNL     1      38.951 -14.302  -3.083  1.00  0.00    -0.352 N 
HETATM   13  O   UNL     1      40.771 -15.551  -3.512  1.00  0.00    -0.247 OA
HETATM   14  H   UNL     1      38.535 -13.622  -2.456  1.00  0.00     0.160 HD
HETATM   15  H   UNL     1      38.762 -14.230  -4.072  1.00  0.00     0.160 HD
HETATM   16  O   UNL     1      38.837 -13.439  -0.510  1.00  0.00    -0.271 OA
ENDBRANCH   7   8
BRANCH   7  17
HETATM   17  C   UNL     1      40.315 -13.230   1.910  1.00  0.00    -0.035 A 
HETATM   18  C   UNL     1      41.152 -12.118   1.716  1.00  0.00     0.009 A 
HETATM   19  C   UNL     1      41.086 -11.012   2.569  1.00  0.00     0.001 A 
HETATM   20  C   UNL     1      40.191 -10.999   3.634  1.00  0.00     0.000 A 
HETATM   21  C   UNL     1      39.357 -12.091   3.849  1.00  0.00     0.001 A 
HETATM   22  C   UNL     1      39.415 -13.194   2.994  1.00  0.00     0.009 A 
ENDBRANCH   7  17
ENDBRANCH   6   7
ENDBRANCH   3   6
BRANCH   2  23
HETATM   23  C   UNL     1      42.195 -15.675   3.835  1.00  0.00     0.043 A 
HETATM   24  C   UNL     1      41.366 -15.577   4.963  1.00  0.00     0.033 A 
HETATM   25  C   UNL     1      41.523 -14.509   5.850  1.00  0.00     0.044 A 
HETATM   26  C   UNL     1      42.501 -13.552   5.609  1.00  0.00     0.116 A 
HETATM   27  F   UNL     1      42.641 -12.527   6.458  1.00  0.00    -0.206 F 
HETATM   28  C   UNL     1      43.335 -13.644   4.502  1.00  0.00     0.044 A 
HETATM   29  C   UNL     1      43.188 -14.709   3.610  1.00  0.00     0.033 A 
ENDBRANCH   2  23
BRANCH   1  30
HETATM   30  C   UNL     1      44.036 -18.214   3.592  1.00  0.00     0.255 C 
HETATM   31  C   UNL     1      44.747 -19.456   3.048  1.00  0.00     0.049 C 
BRANCH  30  32
HETATM   32  N   UNL     1      43.700 -18.442   5.085  1.00  0.00    -0.060 N 
HETATM   33  H   UNL     1      42.674 -18.414   5.141  1.00  0.00     0.280 HD
HETATM   34  C   UNL     1      44.124 -19.819   5.554  1.00  0.00     0.236 C 
HETATM   35  C   UNL     1      43.543 -20.086   6.936  1.00  0.00     0.028 C 
HETATM   36  C   UNL     1      43.942 -19.007   7.937  1.00  0.00     0.003 C 
HETATM   37  C   UNL     1      43.600 -17.615   7.418  1.00  0.00     0.028 C 
HETATM   38  C   UNL     1      44.208 -17.372   6.040  1.00  0.00     0.236 C 
ENDBRANCH  30  32
ENDBRANCH   1  30
TORSDOF 7
ENDMDL
MODEL 7
REMARK VINA RESULT:      -7.7      3.426      6.157
REMARK  7 active torsions:
REMARK  status: ('A' for Active; 'I' for Inactive)
REMARK    1  A    between atoms: C_2  and  N_3 
REMARK    2  A    between atoms: C_2  and  C_10 
REMARK    3  A    between atoms: N_11  and  C_12 
REMARK    4  A    between atoms: C_19  and  S_20 
REMARK    5  A    between atoms: S_20  and  C_21 
REMARK    6  A    between atoms: C_21  and  C_22 
REMARK    7  A    between atoms: C_21  and  C_28 
REMARK       I    between atoms: C_22  and  N_23 
REMARK       I    between atoms: N_23  and  C_24 
REMARK       I    between atoms: C_24  and  N_25 
ROOT
HETATM    1  C   UNL     1      41.122 -12.951   4.940  1.00  0.00     0.166 A 
HETATM    2  N   UNL     1      41.976 -14.042   4.782  1.00  0.00    -0.274 N 
HETATM    3  C   UNL     1      42.403 -13.940   3.470  1.00  0.00     0.197 A 
HETATM    4  N   UNL     1      41.824 -12.919   2.882  1.00  0.00    -0.122 NA
HETATM    5  N   UNL     1      41.001 -12.323   3.786  1.00  0.00    -0.131 NA
ENDROOT
BRANCH   3   6
HETATM    6  S   UNL     1      43.468 -15.024   2.646  1.00  0.00    -0.070 SA
BRANCH   6   7
HETATM    7  C   UNL     1      42.442 -16.534   2.500  1.00  0.00     0.180 C 
BRANCH   7   8
HETATM    8  C   UNL     1      41.669 -16.531   1.173  1.00  0.00     0.244 C 
HETATM    9  N   UNL     1      41.911 -15.435   0.358  1.00  0.00    -0.278 N 
HETATM   10  C   UNL     1      41.410 -15.168  -0.882  1.00  0.00     0.320 C 
HETATM   11  H   UNL     1      42.512 -14.697   0.696  1.00  0.00     0.173 HD
HETATM   12  N   UNL     1      40.667 -16.130  -1.466  1.00  0.00    -0.352 N 
HETATM   13  O   UNL     1      41.645 -14.105  -1.445  1.00  0.00    -0.247 OA
HETATM   14  H   UNL     1      40.285 -16.878  -0.898  1.00  0.00     0.160 HD
HETATM   15  H   UNL     1      40.216 -15.907  -2.342  1.00  0.00     0.160 HD
HETATM   16  O   UNL     1      40.872 -17.434   0.907  1.00  0.00    -0.271 OA
ENDBRANCH   7   8
BRANCH   7  17
HETATM   17  C   UNL     1      43.180 -17.853   2.722  1.00  0.00    -0.035 A 
HETATM   18  C   UNL     1      43.354 -18.838   1.735  1.00  0.00     0.009 A 
HETATM   19  C   UNL     1      44.014 -20.036   2.024  1.00  0.00     0.001 A 
HETATM   20  C   UNL     1      44.503 -20.277   3.304  1.00  0.00     0.000 A 
HETATM   21  C   UNL     1      44.337 -19.320   4.298  1.00  0.00     0.001 A 
HETATM   22  C   UNL     1      43.685 -18.119   4.011  1.00  0.00     0.009 A 
ENDBRANCH   7  17
ENDBRANCH   6   7
ENDBRANCH   3   6
BRANCH   2  23
HETATM   23  C   UNL     1      42.358 -14.977   5.776  1.00  0.00     0.043 A 
HETATM   24  C   UNL     1      43.599 -14.846   6.418  1.00  0.00     0.033 A 
HETATM   25  C   UNL     1      43.987 -15.782   7.379  1.00  0.00     0.044 A 
HETATM   26  C   UNL     1      43.139 -16.837   7.695  1.00  0.00     0.116 A 
HETATM   27  F   UNL     1      43.519 -17.735   8.611  1.00  0.00    -0.206 F 
HETATM   28  C   UNL     1      41.904 -16.972   7.075  1.00  0.00     0.044 A 
HETATM   29  C   UNL     1      41.505 -16.040   6.113  1.00  0.00     0.033 A 
ENDBRANCH   2  23
BRANCH   1  30
HETATM   30  C   UNL     1      40.564 -12.434   6.231  1.00  0.00     0.255 C 
HETATM   31  C   UNL     1      39.200 -13.057   6.539  1.00  0.00     0.049 C 
BRANCH  30  32
HETATM   32  N   UNL     1      40.439 -10.893   6.303  1.00  0.00    -0.060 N 
HETATM   33  H   UNL     1      40.011 -10.612   5.413  1.00  0.00     0.280 HD
HETATM   34  C   UNL     1      39.490 -10.456   7.401  1.00  0.00     0.236 C 
HETATM   35  C   UNL     1      39.204  -8.966   7.260  1.00  0.00     0.028 C 
HETATM   36  C   UNL     1      40.485  -8.140   7.267  1.00  0.00     0.003 C 
HETATM   37  C   UNL     1      41.477  -8.645   6.226  1.00  0.00     0.028 C 
HETATM   38  C   UNL     1      41.755 -10.134   6.401  1.00  0.00     0.236 C 
ENDBRANCH  30  32
ENDBRANCH   1  30
TORSDOF 7
ENDMDL
MODEL 8
REMARK VINA RESULT:      -7.7      3.629      5.879
REMARK  7 active torsions:
REMARK  status: ('A' for Active; 'I' for Inactive)
REMARK    1  A    between atoms: C_2  and  N_3 
REMARK    2  A    between atoms: C_2  and  C_10 
REMARK    3  A    between atoms: N_11  and  C_12 
REMARK    4  A    between atoms: C_19  and  S_20 
REMARK    5  A    between atoms: S_20  and  C_21 
REMARK    6  A    between atoms: C_21  and  C_22 
REMARK    7  A    between atoms: C_21  and  C_28 
REMARK       I    between atoms: C_22  and  N_23 
REMARK       I    between atoms: N_23  and  C_24 
REMARK       I    between atoms: C_24  and  N_25 
ROOT
HETATM    1  C   UNL     1      41.841 -12.839   0.187  1.00  0.00     0.166 A 
HETATM    2  N   UNL     1      41.331 -14.105  -0.096  1.00  0.00    -0.274 N 
HETATM    3  C   UNL     1      41.668 -14.854   1.017  1.00  0.00     0.197 A 
HETATM    4  N   UNL     1      42.357 -14.124   1.863  1.00  0.00    -0.122 NA
HETATM    5  N   UNL     1      42.494 -12.879   1.331  1.00  0.00    -0.131 NA
ENDROOT
BRANCH   3   6
HETATM    6  S   UNL     1      41.339 -16.532   1.269  1.00  0.00    -0.070 SA
BRANCH   6   7
HETATM    7  C   UNL     1      42.338 -16.901   2.759  1.00  0.00     0.180 C 
BRANCH   7   8
HETATM    8  C   UNL     1      41.493 -16.716   4.029  1.00  0.00     0.244 C 
HETATM    9  N   UNL     1      41.423 -15.415   4.501  1.00  0.00    -0.278 N 
HETATM   10  C   UNL     1      40.731 -14.932   5.572  1.00  0.00     0.320 C 
HETATM   11  H   UNL     1      41.962 -14.696   4.038  1.00  0.00     0.173 HD
HETATM   12  N   UNL     1      39.906 -15.789   6.209  1.00  0.00    -0.352 N 
HETATM   13  O   UNL     1      40.841 -13.763   5.924  1.00  0.00    -0.247 OA
HETATM   14  H   UNL     1      40.016 -16.786   6.064  1.00  0.00     0.160 HD
HETATM   15  H   UNL     1      39.460 -15.468   7.057  1.00  0.00     0.160 HD
HETATM   16  O   UNL     1      40.964 -17.686   4.579  1.00  0.00    -0.271 OA
ENDBRANCH   7   8
BRANCH   7  17
HETATM   17  C   UNL     1      43.059 -18.248   2.750  1.00  0.00    -0.035 A 
HETATM   18  C   UNL     1      42.846 -19.252   1.790  1.00  0.00     0.009 A 
HETATM   19  C   UNL     1      43.522 -20.474   1.867  1.00  0.00     0.001 A 
HETATM   20  C   UNL     1      44.413 -20.719   2.907  1.00  0.00     0.000 A 
HETATM   21  C   UNL     1      44.634 -19.742   3.872  1.00  0.00     0.001 A 
HETATM   22  C   UNL     1      43.967 -18.518   3.793  1.00  0.00     0.009 A 
ENDBRANCH   7  17
ENDBRANCH   6   7
ENDBRANCH   3   6
BRANCH   2  23
HETATM   23  C   UNL     1      40.578 -14.488  -1.236  1.00  0.00     0.043 A 
HETATM   24  C   UNL     1      39.256 -14.040  -1.381  1.00  0.00     0.033 A 
HETATM   25  C   UNL     1      38.506 -14.438  -2.490  1.00  0.00     0.044 A 
HETATM   26  C   UNL     1      39.076 -15.272  -3.444  1.00  0.00     0.116 A 
HETATM   27  F   UNL     1      38.350 -15.656  -4.500  1.00  0.00    -0.206 F 
HETATM   28  C   UNL     1      40.387 -15.713  -3.317  1.00  0.00     0.044 A 
HETATM   29  C   UNL     1      41.146 -15.319  -2.212  1.00  0.00     0.033 A 
ENDBRANCH   2  23
BRANCH   1  30
HETATM   30  C   UNL     1      41.556 -11.574  -0.565  1.00  0.00     0.255 C 
HETATM   31  C   UNL     1      42.791 -10.672  -0.627  1.00  0.00     0.049 C 
BRANCH  30  32
HETATM   32  N   UNL     1      40.364 -10.755  -0.014  1.00  0.00    -0.060 N 
HETATM   33  H   UNL     1      40.777  -9.897   0.371  1.00  0.00     0.280 HD
HETATM   34  C   UNL     1      39.417 -10.327  -1.116  1.00  0.00     0.236 C 
HETATM   35  C   UNL     1      38.419  -9.318  -0.564  1.00  0.00     0.028 C 
HETATM   36  C   UNL     1      37.663  -9.869   0.639  1.00  0.00     0.003 C 
HETATM   37  C   UNL     1      38.620 -10.389   1.706  1.00  0.00     0.028 C 
HETATM   38  C   UNL     1      39.596 -11.407   1.127  1.00  0.00     0.236 C 
ENDBRANCH  30  32
ENDBRANCH   1  30
TORSDOF 7
ENDMDL
MODEL 9
REMARK VINA RESULT:      -7.6      3.794      5.413
REMARK  7 active torsions:
REMARK  status: ('A' for Active; 'I' for Inactive)
REMARK    1  A    between atoms: C_2  and  N_3 
REMARK    2  A    between atoms: C_2  and  C_10 
REMARK    3  A    between atoms: N_11  and  C_12 
REMARK    4  A    between atoms: C_19  and  S_20 
REMARK    5  A    between atoms: S_20  and  C_21 
REMARK    6  A    between atoms: C_21  and  C_22 
REMARK    7  A    between atoms: C_21  and  C_28 
REMARK       I    between atoms: C_22  and  N_23 
REMARK       I    between atoms: N_23  and  C_24 
REMARK       I    between atoms: C_24  and  N_25 
ROOT
HETATM    1  C   UNL     1      41.539 -13.277   2.332  1.00  0.00     0.166 A 
HETATM    2  N   UNL     1      41.847 -14.285   3.245  1.00  0.00    -0.274 N 
HETATM    3  C   UNL     1      41.679 -13.678   4.477  1.00  0.00     0.197 A 
HETATM    4  N   UNL     1      41.353 -12.416   4.320  1.00  0.00    -0.122 NA
HETATM    5  N   UNL     1      41.298 -12.157   2.985  1.00  0.00    -0.131 NA
ENDROOT
BRANCH   3   6
HETATM    6  S   UNL     1      41.940 -14.400   6.025  1.00  0.00    -0.070 SA
BRANCH   6   7
HETATM    7  C   UNL     1      43.666 -14.995   5.887  1.00  0.00     0.180 C 
BRANCH   7   8
HETATM    8  C   UNL     1      44.626 -14.023   6.588  1.00  0.00     0.244 C 
HETATM    9  N   UNL     1      44.289 -13.708   7.896  1.00  0.00    -0.278 N 
HETATM   10  C   UNL     1      44.955 -12.912   8.781  1.00  0.00     0.320 C 
HETATM   11  H   UNL     1      43.428 -14.073   8.280  1.00  0.00     0.173 HD
HETATM   12  N   UNL     1      46.162 -12.445   8.401  1.00  0.00    -0.352 N 
HETATM   13  O   UNL     1      44.481 -12.651   9.880  1.00  0.00    -0.247 OA
HETATM   14  H   UNL     1      46.416 -12.463   7.419  1.00  0.00     0.160 HD
HETATM   15  H   UNL     1      46.621 -11.782   9.009  1.00  0.00     0.160 HD
HETATM   16  O   UNL     1      45.593 -13.548   5.985  1.00  0.00    -0.271 OA
ENDBRANCH   7   8
BRANCH   7  17
HETATM   17  C   UNL     1      43.901 -16.439   6.328  1.00  0.00    -0.035 A 
HETATM   18  C   UNL     1      44.500 -17.423   5.524  1.00  0.00     0.009 A 
HETATM   19  C   UNL     1      44.651 -18.734   5.988  1.00  0.00     0.001 A 
HETATM   20  C   UNL     1      44.199 -19.088   7.255  1.00  0.00     0.000 A 
HETATM   21  C   UNL     1      43.597 -18.132   8.065  1.00  0.00     0.001 A 
HETATM   22  C   UNL     1      43.452 -16.819   7.609  1.00  0.00     0.009 A 
ENDBRANCH   7  17
ENDBRANCH   6   7
ENDBRANCH   3   6
BRANCH   2  23
HETATM   23  C   UNL     1      42.178 -15.632   2.951  1.00  0.00     0.043 A 
HETATM   24  C   UNL     1      43.390 -15.928   2.308  1.00  0.00     0.033 A 
HETATM   25  C   UNL     1      43.704 -17.252   1.994  1.00  0.00     0.044 A 
HETATM   26  C   UNL     1      42.815 -18.268   2.324  1.00  0.00     0.116 A 
HETATM   27  F   UNL     1      43.118 -19.534   2.013  1.00  0.00    -0.206 F 
HETATM   28  C   UNL     1      41.618 -17.989   2.969  1.00  0.00     0.044 A 
HETATM   29  C   UNL     1      41.294 -16.668   3.289  1.00  0.00     0.033 A 
ENDBRANCH   2  23
BRANCH   1  30
HETATM   30  C   UNL     1      41.323 -13.444   0.858  1.00  0.00     0.255 C 
HETATM   31  C   UNL     1      42.142 -12.430   0.056  1.00  0.00     0.049 C 
BRANCH  30  32
HETATM   32  N   UNL     1      39.843 -13.357   0.414  1.00  0.00    -0.060 N 
HETATM   33  H   UNL     1      39.788 -13.897  -0.458  1.00  0.00     0.280 HD
HETATM   34  C   UNL     1      38.917 -14.033   1.405  1.00  0.00     0.236 C 
HETATM   35  C   UNL     1      37.524 -14.148   0.800  1.00  0.00     0.028 C 
HETATM   36  C   UNL     1      36.981 -12.791   0.365  1.00  0.00     0.003 C 
HETATM   37  C   UNL     1      37.961 -12.071  -0.556  1.00  0.00     0.028 C 
HETATM   38  C   UNL     1      39.341 -11.959   0.082  1.00  0.00     0.236 C 
ENDBRANCH  30  32
ENDBRANCH   1  30
TORSDOF 7
ENDMDL
MODEL 10
REMARK VINA RESULT:      -7.5      2.652      3.914
REMARK  7 active torsions:
REMARK  status: ('A' for Active; 'I' for Inactive)
REMARK    1  A    between atoms: C_2  and  N_3 
REMARK    2  A    between atoms: C_2  and  C_10 
REMARK    3  A    between atoms: N_11  and  C_12 
REMARK    4  A    between atoms: C_19  and  S_20 
REMARK    5  A    between atoms: S_20  and  C_21 
REMARK    6  A    between atoms: C_21  and  C_22 
REMARK    7  A    between atoms: C_21  and  C_28 
REMARK       I    between atoms: C_22  and  N_23 
REMARK       I    between atoms: N_23  and  C_24 
REMARK       I    between atoms: C_24  and  N_25 
ROOT
HETATM    1  C   UNL     1      41.128 -14.137  -0.054  1.00  0.00     0.166 A 
HETATM    2  N   UNL     1      41.044 -14.758   1.191  1.00  0.00    -0.274 N 
HETATM    3  C   UNL     1      41.071 -16.108   0.889  1.00  0.00     0.197 A 
HETATM    4  N   UNL     1      41.116 -16.282  -0.411  1.00  0.00    -0.122 NA
HETATM    5  N   UNL     1      41.117 -15.055  -1.001  1.00  0.00    -0.131 NA
ENDROOT
BRANCH   3   6
HETATM    6  S   UNL     1      40.969 -17.417   2.013  1.00  0.00    -0.070 SA
BRANCH   6   7
HETATM    7  C   UNL     1      42.661 -17.459   2.711  1.00  0.00     0.180 C 
BRANCH   7   8
HETATM    8  C   UNL     1      42.685 -16.797   4.098  1.00  0.00     0.244 C 
HETATM    9  N   UNL     1      41.559 -17.026   4.874  1.00  0.00    -0.278 N 
HETATM   10  C   UNL     1      41.303 -16.610   6.148  1.00  0.00     0.320 C 
HETATM   11  H   UNL     1      40.788 -17.544   4.477  1.00  0.00     0.173 HD
HETATM   12  N   UNL     1      42.302 -15.987   6.805  1.00  0.00    -0.352 N 
HETATM   13  O   UNL     1      40.215 -16.813   6.674  1.00  0.00    -0.247 OA
HETATM   14  H   UNL     1      43.086 -15.614   6.280  1.00  0.00     0.160 HD
HETATM   15  H   UNL     1      42.094 -15.594   7.712  1.00  0.00     0.160 HD
HETATM   16  O   UNL     1      43.636 -16.090   4.441  1.00  0.00    -0.271 OA
ENDBRANCH   7   8
BRANCH   7  17
HETATM   17  C   UNL     1      43.332 -18.831   2.727  1.00  0.00    -0.035 A 
HETATM   18  C   UNL     1      43.101 -19.835   1.771  1.00  0.00     0.009 A 
HETATM   19  C   UNL     1      43.730 -21.080   1.872  1.00  0.00     0.001 A 
HETATM   20  C   UNL     1      44.590 -21.349   2.931  1.00  0.00     0.000 A 
HETATM   21  C   UNL     1      44.829 -20.373   3.892  1.00  0.00     0.001 A 
HETATM   22  C   UNL     1      44.209 -19.125   3.791  1.00  0.00     0.009 A 
ENDBRANCH   7  17
ENDBRANCH   6   7
ENDBRANCH   3   6
BRANCH   2  23
HETATM   23  C   UNL     1      41.015 -14.126   2.460  1.00  0.00     0.043 A 
HETATM   24  C   UNL     1      42.158 -13.467   2.937  1.00  0.00     0.033 A 
HETATM   25  C   UNL     1      42.138 -12.867   4.198  1.00  0.00     0.044 A 
HETATM   26  C   UNL     1      40.984 -12.925   4.971  1.00  0.00     0.116 A 
HETATM   27  F   UNL     1      40.974 -12.356   6.182  1.00  0.00    -0.206 F 
HETATM   28  C   UNL     1      39.843 -13.566   4.505  1.00  0.00     0.044 A 
HETATM   29  C   UNL     1      39.852 -14.167   3.244  1.00  0.00     0.033 A 
ENDBRANCH   2  23
BRANCH   1  30
HETATM   30  C   UNL     1      41.380 -12.681  -0.311  1.00  0.00     0.255 C 
HETATM   31  C   UNL     1      40.345 -11.803   0.396  1.00  0.00     0.049 C 
BRANCH  30  32
HETATM   32  N   UNL     1      41.428 -12.294  -1.808  1.00  0.00    -0.060 N 
HETATM   33  H   UNL     1      41.350 -13.180  -2.321  1.00  0.00     0.280 HD
HETATM   34  C   UNL     1      40.236 -11.450  -2.210  1.00  0.00     0.236 C 
HETATM   35  C   UNL     1      40.196 -11.319  -3.727  1.00  0.00     0.028 C 
HETATM   36  C   UNL     1      41.496 -10.748  -4.281  1.00  0.00     0.003 C 
HETATM   37  C   UNL     1      42.703 -11.543  -3.795  1.00  0.00     0.028 C 
HETATM   38  C   UNL     1      42.724 -11.644  -2.274  1.00  0.00     0.236 C 
ENDBRANCH  30  32
ENDBRANCH   1  30
TORSDOF 7
ENDMDL
