MODEL 1
REMARK VINA RESULT:      -8.1      0.000      0.000
REMARK  8 active torsions:
REMARK  status: ('A' for Active; 'I' for Inactive)
REMARK    1  A    between atoms: C_2  and  C_3 
REMARK    2  A    between atoms: C_3  and  O_4 
REMARK    3  A    between atoms: O_4  and  C_5 
REMARK    4  A    between atoms: C_6  and  O_7 
REMARK    5  A    between atoms: C_11  and  C_12 
REMARK    6  A    between atoms: C_12  and  N_13 
REMARK    7  A    between atoms: N_13  and  C_14 
REMARK    8  A    between atoms: C_21  and  C_22 
REMARK       I    between atoms: C_22  and  N_23 
ROOT
HETATM    1  N   UNL     1      41.535 -17.294   1.855  1.00  0.00    -0.289 NA
HETATM    2  H   UNL     1      40.919 -18.067   2.090  1.00  0.00     0.128 HD
ENDROOT
BRANCH   1   3
HETATM    3  C   UNL     1      42.808 -17.753   1.313  1.00  0.00     0.131 C 
BRANCH   3   4
HETATM    4  C   UNL     1      43.442 -18.716   2.291  1.00  0.00    -0.042 A 
HETATM    5  C   UNL     1      43.941 -19.951   1.863  1.00  0.00     0.011 A 
HETATM    6  C   UNL     1      44.528 -20.836   2.774  1.00  0.00     0.040 A 
HETATM    7  C   UNL     1      44.616 -20.502   4.129  1.00  0.00     0.101 A 
HETATM    8  C   UNL     1      44.079 -19.281   4.570  1.00  0.00     0.102 A 
HETATM    9  C   UNL     1      43.510 -18.391   3.653  1.00  0.00     0.048 A 
BRANCH   7  10
HETATM   10  O   UNL     1      45.172 -21.303   5.094  1.00  0.00    -0.353 OA
HETATM   11  C   UNL     1      44.850 -22.686   5.052  1.00  0.00     0.210 C 
ENDBRANCH   7  10
BRANCH   8  12
HETATM   12  O   UNL     1      44.220 -18.973   5.901  1.00  0.00    -0.344 OA
BRANCH  12  13
HETATM   13  C   UNL     1      44.969 -17.792   6.194  1.00  0.00     0.209 C 
BRANCH  13  14
HETATM   14  C   UNL     1      44.089 -16.765   6.870  1.00  0.00    -0.069 C 
HETATM   15  C   UNL     1      42.841 -17.289   7.524  1.00  0.00     0.044 C 
HETATM   16  C   UNL     1      44.388 -15.454   6.873  1.00  0.00     0.016 C 
ENDBRANCH  13  14
ENDBRANCH  12  13
ENDBRANCH   8  12
ENDBRANCH   3   4
ENDBRANCH   1   3
BRANCH   1  17
HETATM   17  C   UNL     1      40.858 -16.253   1.207  1.00  0.00     0.009 A 
HETATM   18  C   UNL     1      41.223 -15.776  -0.061  1.00  0.00     0.039 A 
HETATM   19  C   UNL     1      40.559 -14.665  -0.627  1.00  0.00     0.030 A 
HETATM   20  C   UNL     1      39.559 -14.041   0.104  1.00  0.00     0.063 A 
HETATM   21  C   UNL     1      40.651 -13.925  -1.842  1.00  0.00     0.156 A 
HETATM   22  N   UNL     1      39.118 -13.017  -0.688  1.00  0.00    -0.277 N 
HETATM   23  C   UNL     1      39.184 -14.455   1.382  1.00  0.00     0.034 A 
HETATM   24  H   UNL     1      38.390 -12.346  -0.474  1.00  0.00     0.189 HD
HETATM   25  N   UNL     1      39.754 -12.913  -1.869  1.00  0.00    -0.168 NA
HETATM   26  C   UNL     1      39.867 -15.556   1.918  1.00  0.00     0.026 A 
BRANCH  21  27
HETATM   27  C   UNL     1      41.572 -14.163  -2.962  1.00  0.00     0.270 C 
HETATM   28  N   UNL     1      42.745 -13.465  -2.880  1.00  0.00    -0.365 N 
HETATM   29  H   UNL     1      42.896 -12.862  -2.079  1.00  0.00     0.159 HD
HETATM   30  H   UNL     1      43.447 -13.577  -3.594  1.00  0.00     0.159 HD
HETATM   31  O   UNL     1      41.343 -14.917  -3.902  1.00  0.00    -0.266 OA
ENDBRANCH  21  27
ENDBRANCH   1  17
TORSDOF 8
ENDMDL
MODEL 2
REMARK VINA RESULT:      -7.8      2.750      3.957
REMARK  8 active torsions:
REMARK  status: ('A' for Active; 'I' for Inactive)
REMARK    1  A    between atoms: C_2  and  C_3 
REMARK    2  A    between atoms: C_3  and  O_4 
REMARK    3  A    between atoms: O_4  and  C_5 
REMARK    4  A    between atoms: C_6  and  O_7 
REMARK    5  A    between atoms: C_11  and  C_12 
REMARK    6  A    between atoms: C_12  and  N_13 
REMARK    7  A    between atoms: N_13  and  C_14 
REMARK    8  A    between atoms: C_21  and  C_22 
REMARK       I    between atoms: C_22  and  N_23 
ROOT
HETATM    1  N   UNL     1      41.669 -17.411   1.312  1.00  0.00    -0.289 NA
HETATM    2  H   UNL     1      41.175 -17.835   0.533  1.00  0.00     0.128 HD
ENDROOT
BRANCH   1   3
HETATM    3  C   UNL     1      43.115 -17.543   1.183  1.00  0.00     0.131 C 
BRANCH   3   4
HETATM    4  C   UNL     1      43.610 -18.554   2.191  1.00  0.00    -0.042 A 
HETATM    5  C   UNL     1      44.038 -19.823   1.786  1.00  0.00     0.011 A 
HETATM    6  C   UNL     1      44.497 -20.754   2.725  1.00  0.00     0.040 A 
HETATM    7  C   UNL     1      44.525 -20.431   4.086  1.00  0.00     0.101 A 
HETATM    8  C   UNL     1      44.056 -19.174   4.502  1.00  0.00     0.102 A 
HETATM    9  C   UNL     1      43.617 -18.240   3.557  1.00  0.00     0.048 A 
BRANCH   7  10
HETATM   10  O   UNL     1      44.954 -21.276   5.077  1.00  0.00    -0.353 OA
HETATM   11  C   UNL     1      44.847 -22.671   4.832  1.00  0.00     0.210 C 
ENDBRANCH   7  10
BRANCH   8  12
HETATM   12  O   UNL     1      44.135 -18.882   5.841  1.00  0.00    -0.344 OA
BRANCH  12  13
HETATM   13  C   UNL     1      44.853 -17.693   6.181  1.00  0.00     0.209 C 
BRANCH  13  14
HETATM   14  C   UNL     1      44.017 -16.815   7.084  1.00  0.00    -0.069 C 
HETATM   15  C   UNL     1      44.177 -15.331   6.899  1.00  0.00     0.044 C 
HETATM   16  C   UNL     1      43.192 -17.323   8.016  1.00  0.00     0.016 C 
ENDBRANCH  13  14
ENDBRANCH  12  13
ENDBRANCH   8  12
ENDBRANCH   3   4
ENDBRANCH   1   3
BRANCH   1  17
HETATM   17  C   UNL     1      41.131 -16.167   1.670  1.00  0.00     0.009 A 
HETATM   18  C   UNL     1      40.916 -15.781   3.001  1.00  0.00     0.039 A 
HETATM   19  C   UNL     1      40.288 -14.551   3.298  1.00  0.00     0.030 A 
HETATM   20  C   UNL     1      39.868 -13.745   2.250  1.00  0.00     0.063 A 
HETATM   21  C   UNL     1      39.914 -13.850   4.482  1.00  0.00     0.156 A 
HETATM   22  N   UNL     1      39.305 -12.649   2.841  1.00  0.00    -0.277 N 
HETATM   23  C   UNL     1      40.028 -14.100   0.911  1.00  0.00     0.034 A 
HETATM   24  H   UNL     1      38.888 -11.849   2.379  1.00  0.00     0.189 HD
HETATM   25  N   UNL     1      39.312 -12.676   4.186  1.00  0.00    -0.168 NA
HETATM   26  C   UNL     1      40.648 -15.331   0.650  1.00  0.00     0.026 A 
BRANCH  21  27
HETATM   27  C   UNL     1      40.117 -14.279   5.872  1.00  0.00     0.270 C 
HETATM   28  N   UNL     1      39.686 -13.377   6.806  1.00  0.00    -0.365 N 
HETATM   29  H   UNL     1      39.266 -12.511   6.486  1.00  0.00     0.159 HD
HETATM   30  H   UNL     1      39.768 -13.591   7.786  1.00  0.00     0.159 HD
HETATM   31  O   UNL     1      40.621 -15.348   6.204  1.00  0.00    -0.266 OA
ENDBRANCH  21  27
ENDBRANCH   1  17
TORSDOF 8
ENDMDL
MODEL 3
REMARK VINA RESULT:      -7.6      3.257      7.560
REMARK  8 active torsions:
REMARK  status: ('A' for Active; 'I' for Inactive)
REMARK    1  A    between atoms: C_2  and  C_3 
REMARK    2  A    between atoms: C_3  and  O_4 
REMARK    3  A    between atoms: O_4  and  C_5 
REMARK    4  A    between atoms: C_6  and  O_7 
REMARK    5  A    between atoms: C_11  and  C_12 
REMARK    6  A    between atoms: C_12  and  N_13 
REMARK    7  A    between atoms: N_13  and  C_14 
REMARK    8  A    between atoms: C_21  and  C_22 
REMARK       I    between atoms: C_22  and  N_23 
ROOT
HETATM    1  N   UNL     1      43.575 -17.227   1.181  1.00  0.00    -0.289 NA
HETATM    2  H   UNL     1      44.263 -17.188   0.435  1.00  0.00     0.128 HD
ENDROOT
BRANCH   1   3
HETATM    3  C   UNL     1      42.236 -16.894   0.711  1.00  0.00     0.131 C 
BRANCH   3   4
HETATM    4  C   UNL     1      41.614 -15.896   1.661  1.00  0.00    -0.042 A 
HETATM    5  C   UNL     1      40.224 -15.768   1.762  1.00  0.00     0.011 A 
HETATM    6  C   UNL     1      39.657 -14.844   2.646  1.00  0.00     0.040 A 
HETATM    7  C   UNL     1      40.472 -14.026   3.435  1.00  0.00     0.101 A 
HETATM    8  C   UNL     1      41.868 -14.122   3.307  1.00  0.00     0.102 A 
HETATM    9  C   UNL     1      42.430 -15.061   2.437  1.00  0.00     0.048 A 
BRANCH   7  10
HETATM   10  O   UNL     1      40.007 -13.093   4.326  1.00  0.00    -0.353 OA
HETATM   11  C   UNL     1      39.600 -13.561   5.604  1.00  0.00     0.210 C 
ENDBRANCH   7  10
BRANCH   8  12
HETATM   12  O   UNL     1      42.632 -13.330   4.127  1.00  0.00    -0.344 OA
BRANCH  12  13
HETATM   13  C   UNL     1      43.891 -13.876   4.529  1.00  0.00     0.209 C 
BRANCH  13  14
HETATM   14  C   UNL     1      43.806 -14.411   5.941  1.00  0.00    -0.069 C 
HETATM   15  C   UNL     1      42.778 -15.482   6.183  1.00  0.00     0.044 C 
HETATM   16  C   UNL     1      44.586 -13.948   6.932  1.00  0.00     0.016 C 
ENDBRANCH  13  14
ENDBRANCH  12  13
ENDBRANCH   8  12
ENDBRANCH   3   4
ENDBRANCH   1   3
BRANCH   1  17
HETATM   17  C   UNL     1      43.746 -18.348   2.003  1.00  0.00     0.009 A 
HETATM   18  C   UNL     1      43.963 -18.256   3.387  1.00  0.00     0.039 A 
HETATM   19  C   UNL     1      44.216 -19.417   4.151  1.00  0.00     0.030 A 
HETATM   20  C   UNL     1      44.270 -20.643   3.505  1.00  0.00     0.063 A 
HETATM   21  C   UNL     1      44.475 -19.705   5.523  1.00  0.00     0.156 A 
HETATM   22  N   UNL     1      44.531 -21.557   4.488  1.00  0.00    -0.277 N 
HETATM   23  C   UNL     1      44.096 -20.783   2.129  1.00  0.00     0.034 A 
HETATM   24  H   UNL     1      44.641 -22.559   4.380  1.00  0.00     0.189 HD
HETATM   25  N   UNL     1      44.664 -21.030   5.718  1.00  0.00    -0.168 NA
HETATM   26  C   UNL     1      43.853 -19.611   1.398  1.00  0.00     0.026 A 
BRANCH  21  27
HETATM   27  C   UNL     1      44.547 -18.748   6.636  1.00  0.00     0.270 C 
HETATM   28  N   UNL     1      43.638 -18.978   7.631  1.00  0.00    -0.365 N 
HETATM   29  H   UNL     1      43.007 -19.766   7.540  1.00  0.00     0.159 HD
HETATM   30  H   UNL     1      43.622 -18.383   8.444  1.00  0.00     0.159 HD
HETATM   31  O   UNL     1      45.342 -17.816   6.701  1.00  0.00    -0.266 OA
ENDBRANCH  21  27
ENDBRANCH   1  17
TORSDOF 8
ENDMDL
MODEL 4
REMARK VINA RESULT:      -7.6      2.912      9.170
REMARK  8 active torsions:
REMARK  status: ('A' for Active; 'I' for Inactive)
REMARK    1  A    between atoms: C_2  and  C_3 
REMARK    2  A    between atoms: C_3  and  O_4 
REMARK    3  A    between atoms: O_4  and  C_5 
REMARK    4  A    between atoms: C_6  and  O_7 
REMARK    5  A    between atoms: C_11  and  C_12 
REMARK    6  A    between atoms: C_12  and  N_13 
REMARK    7  A    between atoms: N_13  and  C_14 
REMARK    8  A    between atoms: C_21  and  C_22 
REMARK       I    between atoms: C_22  and  N_23 
ROOT
HETATM    1  N   UNL     1      43.398 -16.721   1.833  1.00  0.00    -0.289 NA
HETATM    2  H   UNL     1      44.276 -16.289   1.559  1.00  0.00     0.128 HD
ENDROOT
BRANCH   1   3
HETATM    3  C   UNL     1      42.548 -17.013   0.686  1.00  0.00     0.131 C 
BRANCH   3   4
HETATM    4  C   UNL     1      41.346 -16.097   0.716  1.00  0.00    -0.042 A 
HETATM    5  C   UNL     1      40.496 -16.063   1.827  1.00  0.00     0.011 A 
HETATM    6  C   UNL     1      39.387 -15.210   1.848  1.00  0.00     0.040 A 
HETATM    7  C   UNL     1      39.106 -14.386   0.754  1.00  0.00     0.101 A 
HETATM    8  C   UNL     1      39.932 -14.449  -0.381  1.00  0.00     0.102 A 
HETATM    9  C   UNL     1      41.051 -15.288  -0.389  1.00  0.00     0.048 A 
BRANCH   7  10
HETATM   10  O   UNL     1      38.043 -13.522   0.683  1.00  0.00    -0.353 OA
HETATM   11  C   UNL     1      38.081 -12.377   1.522  1.00  0.00     0.210 C 
ENDBRANCH   7  10
BRANCH   8  12
HETATM   12  O   UNL     1      39.645 -13.597  -1.418  1.00  0.00    -0.344 OA
BRANCH  12  13
HETATM   13  C   UNL     1      40.096 -14.009  -2.710  1.00  0.00     0.209 C 
BRANCH  13  14
HETATM   14  C   UNL     1      38.999 -14.753  -3.437  1.00  0.00    -0.069 C 
HETATM   15  C   UNL     1      37.665 -14.063  -3.509  1.00  0.00     0.044 C 
HETATM   16  C   UNL     1      39.191 -15.970  -3.975  1.00  0.00     0.016 C 
ENDBRANCH  13  14
ENDBRANCH  12  13
ENDBRANCH   8  12
ENDBRANCH   3   4
ENDBRANCH   1   3
BRANCH   1  17
HETATM   17  C   UNL     1      43.573 -17.705   2.815  1.00  0.00     0.009 A 
HETATM   18  C   UNL     1      43.335 -17.476   4.179  1.00  0.00     0.039 A 
HETATM   19  C   UNL     1      43.614 -18.479   5.133  1.00  0.00     0.030 A 
HETATM   20  C   UNL     1      44.149 -19.683   4.700  1.00  0.00     0.063 A 
HETATM   21  C   UNL     1      43.507 -18.605   6.550  1.00  0.00     0.156 A 
HETATM   22  N   UNL     1      44.311 -20.434   5.831  1.00  0.00    -0.277 N 
HETATM   23  C   UNL     1      44.435 -19.947   3.361  1.00  0.00     0.034 A 
HETATM   24  H   UNL     1      44.681 -21.376   5.895  1.00  0.00     0.189 HD
HETATM   25  N   UNL     1      43.937 -19.818   6.967  1.00  0.00    -0.168 NA
HETATM   26  C   UNL     1      44.154 -18.927   2.440  1.00  0.00     0.026 A 
BRANCH  21  27
HETATM   27  C   UNL     1      43.012 -17.599   7.498  1.00  0.00     0.270 C 
HETATM   28  N   UNL     1      43.534 -17.712   8.757  1.00  0.00    -0.365 N 
HETATM   29  H   UNL     1      44.206 -18.449   8.940  1.00  0.00     0.159 HD
HETATM   30  H   UNL     1      43.266 -17.055   9.472  1.00  0.00     0.159 HD
HETATM   31  O   UNL     1      42.205 -16.718   7.219  1.00  0.00    -0.266 OA
ENDBRANCH  21  27
ENDBRANCH   1  17
TORSDOF 8
ENDMDL
MODEL 5
REMARK VINA RESULT:      -7.5      2.288      4.473
REMARK  8 active torsions:
REMARK  status: ('A' for Active; 'I' for Inactive)
REMARK    1  A    between atoms: C_2  and  C_3 
REMARK    2  A    between atoms: C_3  and  O_4 
REMARK    3  A    between atoms: O_4  and  C_5 
REMARK    4  A    between atoms: C_6  and  O_7 
REMARK    5  A    between atoms: C_11  and  C_12 
REMARK    6  A    between atoms: C_12  and  N_13 
REMARK    7  A    between atoms: N_13  and  C_14 
REMARK    8  A    between atoms: C_21  and  C_22 
REMARK       I    between atoms: C_22  and  N_23 
ROOT
HETATM    1  N   UNL     1      40.709 -15.975   0.409  1.00  0.00    -0.289 NA
HETATM    2  H   UNL     1      41.444 -16.567   0.785  1.00  0.00     0.128 HD
ENDROOT
BRANCH   1   3
HETATM    3  C   UNL     1      39.951 -15.308   1.460  1.00  0.00     0.131 C 
BRANCH   3   4
HETATM    4  C   UNL     1      40.493 -15.734   2.805  1.00  0.00    -0.042 A 
HETATM    5  C   UNL     1      40.258 -14.966   3.952  1.00  0.00     0.011 A 
HETATM    6  C   UNL     1      40.762 -15.369   5.193  1.00  0.00     0.040 A 
HETATM    7  C   UNL     1      41.515 -16.542   5.305  1.00  0.00     0.101 A 
HETATM    8  C   UNL     1      41.789 -17.294   4.150  1.00  0.00     0.102 A 
HETATM    9  C   UNL     1      41.267 -16.897   2.915  1.00  0.00     0.048 A 
BRANCH   7  10
HETATM   10  O   UNL     1      42.050 -17.015   6.477  1.00  0.00    -0.353 OA
HETATM   11  C   UNL     1      43.159 -16.310   7.015  1.00  0.00     0.210 C 
ENDBRANCH   7  10
BRANCH   8  12
HETATM   12  O   UNL     1      42.499 -18.458   4.308  1.00  0.00    -0.344 OA
BRANCH  12  13
HETATM   13  C   UNL     1      43.801 -18.482   3.720  1.00  0.00     0.209 C 
BRANCH  13  14
HETATM   14  C   UNL     1      44.102 -19.855   3.164  1.00  0.00    -0.069 C 
HETATM   15  C   UNL     1      45.027 -20.713   3.983  1.00  0.00     0.044 C 
HETATM   16  C   UNL     1      43.592 -20.285   1.997  1.00  0.00     0.016 C 
ENDBRANCH  13  14
ENDBRANCH  12  13
ENDBRANCH   8  12
ENDBRANCH   3   4
ENDBRANCH   1   3
BRANCH   1  17
HETATM   17  C   UNL     1      41.139 -15.229  -0.695  1.00  0.00     0.009 A 
HETATM   18  C   UNL     1      41.702 -13.948  -0.580  1.00  0.00     0.039 A 
HETATM   19  C   UNL     1      42.036 -13.206  -1.734  1.00  0.00     0.030 A 
HETATM   20  C   UNL     1      41.776 -13.756  -2.981  1.00  0.00     0.063 A 
HETATM   21  C   UNL     1      42.601 -11.924  -2.002  1.00  0.00     0.156 A 
HETATM   22  N   UNL     1      42.195 -12.819  -3.883  1.00  0.00    -0.277 N 
HETATM   23  C   UNL     1      41.187 -15.009  -3.148  1.00  0.00     0.034 A 
HETATM   24  H   UNL     1      42.157 -12.881  -4.895  1.00  0.00     0.189 HD
HETATM   25  N   UNL     1      42.697 -11.699  -3.332  1.00  0.00    -0.168 NA
HETATM   26  C   UNL     1      40.860 -15.717  -1.982  1.00  0.00     0.026 A 
BRANCH  21  27
HETATM   27  C   UNL     1      43.040 -10.923  -1.021  1.00  0.00     0.270 C 
HETATM   28  N   UNL     1      43.782  -9.905  -1.554  1.00  0.00    -0.365 N 
HETATM   29  H   UNL     1      43.964  -9.908  -2.552  1.00  0.00     0.159 HD
HETATM   30  H   UNL     1      44.114  -9.162  -0.961  1.00  0.00     0.159 HD
HETATM   31  O   UNL     1      42.779 -10.961   0.177  1.00  0.00    -0.266 OA
ENDBRANCH  21  27
ENDBRANCH   1  17
TORSDOF 8
ENDMDL
MODEL 6
REMARK VINA RESULT:      -7.3      1.535      3.614
REMARK  8 active torsions:
REMARK  status: ('A' for Active; 'I' for Inactive)
REMARK    1  A    between atoms: C_2  and  C_3 
REMARK    2  A    between atoms: C_3  and  O_4 
REMARK    3  A    between atoms: O_4  and  C_5 
REMARK    4  A    between atoms: C_6  and  O_7 
REMARK    5  A    between atoms: C_11  and  C_12 
REMARK    6  A    between atoms: C_12  and  N_13 
REMARK    7  A    between atoms: N_13  and  C_14 
REMARK    8  A    between atoms: C_21  and  C_22 
REMARK       I    between atoms: C_22  and  N_23 
ROOT
HETATM    1  N   UNL     1      39.742 -15.504   2.404  1.00  0.00    -0.289 NA
HETATM    2  H   UNL     1      40.341 -16.296   2.193  1.00  0.00     0.128 HD
ENDROOT
BRANCH   1   3
HETATM    3  C   UNL     1      40.201 -14.765   3.573  1.00  0.00     0.131 C 
BRANCH   3   4
HETATM    4  C   UNL     1      41.328 -15.529   4.229  1.00  0.00    -0.042 A 
HETATM    5  C   UNL     1      42.154 -14.919   5.179  1.00  0.00     0.011 A 
HETATM    6  C   UNL     1      43.194 -15.635   5.783  1.00  0.00     0.040 A 
HETATM    7  C   UNL     1      43.429 -16.969   5.437  1.00  0.00     0.101 A 
HETATM    8  C   UNL     1      42.629 -17.573   4.453  1.00  0.00     0.102 A 
HETATM    9  C   UNL     1      41.578 -16.860   3.867  1.00  0.00     0.048 A 
BRANCH   7  10
HETATM   10  O   UNL     1      44.423 -17.748   5.973  1.00  0.00    -0.353 OA
HETATM   11  C   UNL     1      44.274 -18.149   7.327  1.00  0.00     0.210 C 
ENDBRANCH   7  10
BRANCH   8  12
HETATM   12  O   UNL     1      42.867 -18.895   4.170  1.00  0.00    -0.344 OA
BRANCH  12  13
HETATM   13  C   UNL     1      43.448 -19.167   2.893  1.00  0.00     0.209 C 
BRANCH  13  14
HETATM   14  C   UNL     1      44.235 -20.458   2.938  1.00  0.00    -0.069 C 
HETATM   15  C   UNL     1      43.981 -21.428   1.818  1.00  0.00     0.044 C 
HETATM   16  C   UNL     1      45.098 -20.738   3.929  1.00  0.00     0.016 C 
ENDBRANCH  13  14
ENDBRANCH  12  13
ENDBRANCH   8  12
ENDBRANCH   3   4
ENDBRANCH   1   3
BRANCH   1  17
HETATM   17  C   UNL     1      39.375 -14.794   1.254  1.00  0.00     0.009 A 
HETATM   18  C   UNL     1      40.149 -14.780   0.083  1.00  0.00     0.039 A 
HETATM   19  C   UNL     1      39.774 -13.975  -1.015  1.00  0.00     0.030 A 
HETATM   20  C   UNL     1      38.642 -13.181  -0.905  1.00  0.00     0.063 A 
HETATM   21  C   UNL     1      40.291 -13.711  -2.317  1.00  0.00     0.156 A 
HETATM   22  N   UNL     1      38.542 -12.528  -2.102  1.00  0.00    -0.277 N 
HETATM   23  C   UNL     1      37.859 -13.133   0.248  1.00  0.00     0.034 A 
HETATM   24  H   UNL     1      37.832 -11.860  -2.379  1.00  0.00     0.189 HD
HETATM   25  N   UNL     1      39.520 -12.818  -2.979  1.00  0.00    -0.168 NA
HETATM   26  C   UNL     1      38.263 -13.939   1.323  1.00  0.00     0.026 A 
BRANCH  21  27
HETATM   27  C   UNL     1      41.496 -14.285  -2.929  1.00  0.00     0.270 C 
HETATM   28  N   UNL     1      42.600 -13.481  -2.857  1.00  0.00    -0.365 N 
HETATM   29  H   UNL     1      42.515 -12.582  -2.396  1.00  0.00     0.159 HD
HETATM   30  H   UNL     1      43.478 -13.797  -3.235  1.00  0.00     0.159 HD
HETATM   31  O   UNL     1      41.546 -15.389  -3.464  1.00  0.00    -0.266 OA
ENDBRANCH  21  27
ENDBRANCH   1  17
TORSDOF 8
ENDMDL
MODEL 7
REMARK VINA RESULT:      -7.3      1.754      3.806
REMARK  8 active torsions:
REMARK  status: ('A' for Active; 'I' for Inactive)
REMARK    1  A    between atoms: C_2  and  C_3 
REMARK    2  A    between atoms: C_3  and  O_4 
REMARK    3  A    between atoms: O_4  and  C_5 
REMARK    4  A    between atoms: C_6  and  O_7 
REMARK    5  A    between atoms: C_11  and  C_12 
REMARK    6  A    between atoms: C_12  and  N_13 
REMARK    7  A    between atoms: N_13  and  C_14 
REMARK    8  A    between atoms: C_21  and  C_22 
REMARK       I    between atoms: C_22  and  N_23 
ROOT
HETATM    1  N   UNL     1      41.726 -16.095   1.304  1.00  0.00    -0.289 NA
HETATM    2  H   UNL     1      42.679 -15.975   1.634  1.00  0.00     0.128 HD
ENDROOT
BRANCH   1   3
HETATM    3  C   UNL     1      40.807 -16.420   2.388  1.00  0.00     0.131 C 
BRANCH   3   4
HETATM    4  C   UNL     1      41.590 -17.009   3.539  1.00  0.00    -0.042 A 
HETATM    5  C   UNL     1      41.488 -16.474   4.828  1.00  0.00     0.011 A 
HETATM    6  C   UNL     1      42.215 -17.028   5.888  1.00  0.00     0.040 A 
HETATM    7  C   UNL     1      43.062 -18.119   5.671  1.00  0.00     0.101 A 
HETATM    8  C   UNL     1      43.200 -18.633   4.371  1.00  0.00     0.102 A 
HETATM    9  C   UNL     1      42.457 -18.089   3.319  1.00  0.00     0.048 A 
BRANCH   7  10
HETATM   10  O   UNL     1      43.813 -18.726   6.645  1.00  0.00    -0.353 OA
HETATM   11  C   UNL     1      45.058 -18.125   6.974  1.00  0.00     0.210 C 
ENDBRANCH   7  10
BRANCH   8  12
HETATM   12  O   UNL     1      44.011 -19.728   4.208  1.00  0.00    -0.344 OA
BRANCH  12  13
HETATM   13  C   UNL     1      44.376 -20.043   2.862  1.00  0.00     0.209 C 
BRANCH  13  14
HETATM   14  C   UNL     1      44.336 -21.538   2.642  1.00  0.00    -0.069 C 
HETATM   15  C   UNL     1      43.987 -21.995   1.253  1.00  0.00     0.044 C 
HETATM   16  C   UNL     1      44.579 -22.415   3.631  1.00  0.00     0.016 C 
ENDBRANCH  13  14
ENDBRANCH  12  13
ENDBRANCH   8  12
ENDBRANCH   3   4
ENDBRANCH   1   3
BRANCH   1  17
HETATM   17  C   UNL     1      41.358 -15.114   0.374  1.00  0.00     0.009 A 
HETATM   18  C   UNL     1      40.595 -15.393  -0.771  1.00  0.00     0.039 A 
HETATM   19  C   UNL     1      40.330 -14.381  -1.719  1.00  0.00     0.030 A 
HETATM   20  C   UNL     1      40.856 -13.114  -1.509  1.00  0.00     0.063 A 
HETATM   21  C   UNL     1      39.623 -14.292  -2.954  1.00  0.00     0.156 A 
HETATM   22  N   UNL     1      40.439 -12.370  -2.577  1.00  0.00    -0.277 N 
HETATM   23  C   UNL     1      41.647 -12.796  -0.406  1.00  0.00     0.034 A 
HETATM   24  H   UNL     1      40.638 -11.392  -2.758  1.00  0.00     0.189 HD
HETATM   25  N   UNL     1      39.695 -13.045  -3.471  1.00  0.00    -0.168 NA
HETATM   26  C   UNL     1      41.899 -13.826   0.513  1.00  0.00     0.026 A 
BRANCH  21  27
HETATM   27  C   UNL     1      38.893 -15.366  -3.641  1.00  0.00     0.270 C 
HETATM   28  N   UNL     1      37.627 -15.574  -3.168  1.00  0.00    -0.365 N 
HETATM   29  H   UNL     1      37.290 -14.990  -2.411  1.00  0.00     0.159 HD
HETATM   30  H   UNL     1      37.043 -16.279  -3.588  1.00  0.00     0.159 HD
HETATM   31  O   UNL     1      39.346 -16.036  -4.564  1.00  0.00    -0.266 OA
ENDBRANCH  21  27
ENDBRANCH   1  17
TORSDOF 8
ENDMDL
MODEL 8
REMARK VINA RESULT:      -7.3      3.352      8.593
REMARK  8 active torsions:
REMARK  status: ('A' for Active; 'I' for Inactive)
REMARK    1  A    between atoms: C_2  and  C_3 
REMARK    2  A    between atoms: C_3  and  O_4 
REMARK    3  A    between atoms: O_4  and  C_5 
REMARK    4  A    between atoms: C_6  and  O_7 
REMARK    5  A    between atoms: C_11  and  C_12 
REMARK    6  A    between atoms: C_12  and  N_13 
REMARK    7  A    between atoms: N_13  and  C_14 
REMARK    8  A    between atoms: C_21  and  C_22 
REMARK       I    between atoms: C_22  and  N_23 
ROOT
HETATM    1  N   UNL     1      43.396 -17.812   2.299  1.00  0.00    -0.289 NA
HETATM    2  H   UNL     1      44.226 -18.288   1.958  1.00  0.00     0.128 HD
ENDROOT
BRANCH   1   3
HETATM    3  C   UNL     1      42.194 -18.222   1.584  1.00  0.00     0.131 C 
BRANCH   3   4
HETATM    4  C   UNL     1      41.359 -17.000   1.281  1.00  0.00    -0.042 A 
HETATM    5  C   UNL     1      40.367 -16.568   2.169  1.00  0.00     0.011 A 
HETATM    6  C   UNL     1      39.599 -15.434   1.882  1.00  0.00     0.040 A 
HETATM    7  C   UNL     1      39.806 -14.720   0.698  1.00  0.00     0.101 A 
HETATM    8  C   UNL     1      40.772 -15.174  -0.217  1.00  0.00     0.102 A 
HETATM    9  C   UNL     1      41.550 -16.297   0.084  1.00  0.00     0.048 A 
BRANCH   7  10
HETATM   10  O   UNL     1      39.104 -13.601   0.331  1.00  0.00    -0.353 OA
HETATM   11  C   UNL     1      37.686 -13.676   0.390  1.00  0.00     0.210 C 
ENDBRANCH   7  10
BRANCH   8  12
HETATM   12  O   UNL     1      40.972 -14.423  -1.348  1.00  0.00    -0.344 OA
BRANCH  12  13
HETATM   13  C   UNL     1      41.068 -15.153  -2.574  1.00  0.00     0.209 C 
BRANCH  13  14
HETATM   14  C   UNL     1      39.739 -15.147  -3.295  1.00  0.00    -0.069 C 
HETATM   15  C   UNL     1      38.966 -13.858  -3.251  1.00  0.00     0.044 C 
HETATM   16  C   UNL     1      39.260 -16.234  -3.925  1.00  0.00     0.016 C 
ENDBRANCH  13  14
ENDBRANCH  12  13
ENDBRANCH   8  12
ENDBRANCH   3   4
ENDBRANCH   1   3
BRANCH   1  17
HETATM   17  C   UNL     1      43.361 -17.741   3.698  1.00  0.00     0.009 A 
HETATM   18  C   UNL     1      43.614 -16.558   4.410  1.00  0.00     0.039 A 
HETATM   19  C   UNL     1      43.652 -16.566   5.822  1.00  0.00     0.030 A 
HETATM   20  C   UNL     1      43.459 -17.767   6.489  1.00  0.00     0.063 A 
HETATM   21  C   UNL     1      43.872 -15.600   6.848  1.00  0.00     0.156 A 
HETATM   22  N   UNL     1      43.556 -17.462   7.818  1.00  0.00    -0.277 N 
HETATM   23  C   UNL     1      43.239 -18.974   5.826  1.00  0.00     0.034 A 
HETATM   24  H   UNL     1      43.469 -18.099   8.602  1.00  0.00     0.189 HD
HETATM   25  N   UNL     1      43.806 -16.166   8.075  1.00  0.00    -0.168 NA
HETATM   26  C   UNL     1      43.215 -18.934   4.425  1.00  0.00     0.026 A 
BRANCH  21  27
HETATM   27  C   UNL     1      44.144 -14.167   6.677  1.00  0.00     0.270 C 
HETATM   28  N   UNL     1      44.180 -13.461   7.848  1.00  0.00    -0.365 N 
HETATM   29  H   UNL     1      44.031 -13.957   8.719  1.00  0.00     0.159 HD
HETATM   30  H   UNL     1      44.377 -12.473   7.832  1.00  0.00     0.159 HD
HETATM   31  O   UNL     1      44.331 -13.618   5.596  1.00  0.00    -0.266 OA
ENDBRANCH  21  27
ENDBRANCH   1  17
TORSDOF 8
ENDMDL
MODEL 9
REMARK VINA RESULT:      -7.2      3.220      4.791
REMARK  8 active torsions:
REMARK  status: ('A' for Active; 'I' for Inactive)
REMARK    1  A    between atoms: C_2  and  C_3 
REMARK    2  A    between atoms: C_3  and  O_4 
REMARK    3  A    between atoms: O_4  and  C_5 
REMARK    4  A    between atoms: C_6  and  O_7 
REMARK    5  A    between atoms: C_11  and  C_12 
REMARK    6  A    between atoms: C_12  and  N_13 
REMARK    7  A    between atoms: N_13  and  C_14 
REMARK    8  A    between atoms: C_21  and  C_22 
REMARK       I    between atoms: C_22  and  N_23 
ROOT
HETATM    1  N   UNL     1      41.640 -14.627   1.098  1.00  0.00    -0.289 NA
HETATM    2  H   UNL     1      42.577 -14.587   1.489  1.00  0.00     0.128 HD
ENDROOT
BRANCH   1   3
HETATM    3  C   UNL     1      41.188 -15.997   0.895  1.00  0.00     0.131 C 
BRANCH   3   4
HETATM    4  C   UNL     1      41.846 -16.891   1.920  1.00  0.00    -0.042 A 
HETATM    5  C   UNL     1      43.023 -17.587   1.619  1.00  0.00     0.011 A 
HETATM    6  C   UNL     1      43.627 -18.411   2.575  1.00  0.00     0.040 A 
HETATM    7  C   UNL     1      43.058 -18.559   3.844  1.00  0.00     0.101 A 
HETATM    8  C   UNL     1      41.854 -17.896   4.137  1.00  0.00     0.102 A 
HETATM    9  C   UNL     1      41.264 -17.058   3.184  1.00  0.00     0.048 A 
BRANCH   7  10
HETATM   10  O   UNL     1      43.576 -19.344   4.842  1.00  0.00    -0.353 OA
HETATM   11  C   UNL     1      44.935 -19.131   5.196  1.00  0.00     0.210 C 
ENDBRANCH   7  10
BRANCH   8  12
HETATM   12  O   UNL     1      41.348 -18.037   5.405  1.00  0.00    -0.344 OA
BRANCH  12  13
HETATM   13  C   UNL     1      41.195 -16.830   6.155  1.00  0.00     0.209 C 
BRANCH  13  14
HETATM   14  C   UNL     1      42.509 -16.435   6.791  1.00  0.00    -0.069 C 
HETATM   15  C   UNL     1      43.181 -15.216   6.223  1.00  0.00     0.044 C 
HETATM   16  C   UNL     1      43.062 -17.140   7.793  1.00  0.00     0.016 C 
ENDBRANCH  13  14
ENDBRANCH  12  13
ENDBRANCH   8  12
ENDBRANCH   3   4
ENDBRANCH   1   3
BRANCH   1  17
HETATM   17  C   UNL     1      40.773 -13.709   1.705  1.00  0.00     0.009 A 
HETATM   18  C   UNL     1      40.769 -13.458   3.086  1.00  0.00     0.039 A 
HETATM   19  C   UNL     1      39.812 -12.588   3.653  1.00  0.00     0.030 A 
HETATM   20  C   UNL     1      38.864 -12.007   2.825  1.00  0.00     0.063 A 
HETATM   21  C   UNL     1      39.509 -12.110   4.962  1.00  0.00     0.156 A 
HETATM   22  N   UNL     1      38.090 -11.236   3.648  1.00  0.00    -0.277 N 
HETATM   23  C   UNL     1      38.804 -12.251   1.454  1.00  0.00     0.034 A 
HETATM   24  H   UNL     1      37.294 -10.666   3.384  1.00  0.00     0.189 HD
HETATM   25  N   UNL     1      38.446 -11.274   4.944  1.00  0.00    -0.168 NA
HETATM   26  C   UNL     1      39.763 -13.126   0.923  1.00  0.00     0.026 A 
BRANCH  21  27
HETATM   27  C   UNL     1      40.205 -12.438   6.213  1.00  0.00     0.270 C 
HETATM   28  N   UNL     1      39.630 -13.454   6.925  1.00  0.00    -0.365 N 
HETATM   29  H   UNL     1      38.799 -13.898   6.551  1.00  0.00     0.159 HD
HETATM   30  H   UNL     1      40.047 -13.760   7.789  1.00  0.00     0.159 HD
HETATM   31  O   UNL     1      41.219 -11.874   6.614  1.00  0.00    -0.266 OA
ENDBRANCH  21  27
ENDBRANCH   1  17
TORSDOF 8
ENDMDL
MODEL 10
REMARK VINA RESULT:      -7.2      2.903      8.848
REMARK  8 active torsions:
REMARK  status: ('A' for Active; 'I' for Inactive)
REMARK    1  A    between atoms: C_2  and  C_3 
REMARK    2  A    between atoms: C_3  and  O_4 
REMARK    3  A    between atoms: O_4  and  C_5 
REMARK    4  A    between atoms: C_6  and  O_7 
REMARK    5  A    between atoms: C_11  and  C_12 
REMARK    6  A    between atoms: C_12  and  N_13 
REMARK    7  A    between atoms: N_13  and  C_14 
REMARK    8  A    between atoms: C_21  and  C_22 
REMARK       I    between atoms: C_22  and  N_23 
ROOT
HETATM    1  N   UNL     1      43.773 -17.071   2.077  1.00  0.00    -0.289 NA
HETATM    2  H   UNL     1      44.697 -16.933   1.676  1.00  0.00     0.128 HD
ENDROOT
BRANCH   1   3
HETATM    3  C   UNL     1      42.804 -17.514   1.083  1.00  0.00     0.131 C 
BRANCH   3   4
HETATM    4  C   UNL     1      41.697 -16.491   0.984  1.00  0.00    -0.042 A 
HETATM    5  C   UNL     1      40.674 -16.443   1.938  1.00  0.00     0.011 A 
HETATM    6  C   UNL     1      39.653 -15.490   1.839  1.00  0.00     0.040 A 
HETATM    7  C   UNL     1      39.635 -14.578   0.780  1.00  0.00     0.101 A 
HETATM    8  C   UNL     1      40.637 -14.649  -0.203  1.00  0.00     0.102 A 
HETATM    9  C   UNL     1      41.666 -15.590  -0.090  1.00  0.00     0.048 A 
BRANCH   7  10
HETATM   10  O   UNL     1      38.678 -13.612   0.600  1.00  0.00    -0.353 OA
HETATM   11  C   UNL     1      38.451 -12.715   1.678  1.00  0.00     0.210 C 
ENDBRANCH   7  10
BRANCH   8  12
HETATM   12  O   UNL     1      40.606 -13.712  -1.205  1.00  0.00    -0.344 OA
BRANCH  12  13
HETATM   13  C   UNL     1      41.691 -13.753  -2.135  1.00  0.00     0.209 C 
BRANCH  13  14
HETATM   14  C   UNL     1      42.285 -12.373  -2.311  1.00  0.00    -0.069 C 
HETATM   15  C   UNL     1      42.129 -11.753  -3.672  1.00  0.00     0.044 C 
HETATM   16  C   UNL     1      42.934 -11.739  -1.319  1.00  0.00     0.016 C 
ENDBRANCH  13  14
ENDBRANCH  12  13
ENDBRANCH   8  12
ENDBRANCH   3   4
ENDBRANCH   1   3
BRANCH   1  17
HETATM   17  C   UNL     1      43.824 -17.727   3.314  1.00  0.00     0.009 A 
HETATM   18  C   UNL     1      44.150 -19.085   3.447  1.00  0.00     0.039 A 
HETATM   19  C   UNL     1      44.099 -19.714   4.710  1.00  0.00     0.030 A 
HETATM   20  C   UNL     1      43.697 -18.971   5.811  1.00  0.00     0.063 A 
HETATM   21  C   UNL     1      44.349 -21.025   5.215  1.00  0.00     0.156 A 
HETATM   22  N   UNL     1      43.743 -19.838   6.867  1.00  0.00    -0.277 N 
HETATM   23  C   UNL     1      43.330 -17.629   5.725  1.00  0.00     0.034 A 
HETATM   24  H   UNL     1      43.511 -19.639   7.834  1.00  0.00     0.189 HD
HETATM   25  N   UNL     1      44.129 -21.086   6.548  1.00  0.00    -0.168 NA
HETATM   26  C   UNL     1      43.384 -17.036   4.455  1.00  0.00     0.026 A 
BRANCH  21  27
HETATM   27  C   UNL     1      44.785 -22.203   4.454  1.00  0.00     0.270 C 
HETATM   28  N   UNL     1      45.662 -23.010   5.126  1.00  0.00    -0.365 N 
HETATM   29  H   UNL     1      45.933 -22.753   6.069  1.00  0.00     0.159 HD
HETATM   30  H   UNL     1      46.003 -23.852   4.691  1.00  0.00     0.159 HD
HETATM   31  O   UNL     1      44.414 -22.473   3.316  1.00  0.00    -0.266 OA
ENDBRANCH  21  27
ENDBRANCH   1  17
TORSDOF 8
ENDMDL
