MODEL 1
REMARK VINA RESULT:      -9.4      0.000      0.000
REMARK  9 active torsions:
REMARK  status: ('A' for Active; 'I' for Inactive)
REMARK    1  A    between atoms: N_6  and  C_7 
REMARK    2  A    between atoms: C_7  and  C_8 
REMARK    3  A    between atoms: C_8  and  N_9 
REMARK       I    between atoms: N_9  and  C_10 
REMARK    4  A    between atoms: C_10  and  C_12 
REMARK    5  A    between atoms: C_16  and  C_17 
REMARK    6  A    between atoms: C_17  and  N_18 
REMARK    7  A    between atoms: N_18  and  C_19 
REMARK       I    between atoms: N_18  and  C_22 
REMARK    8  A    between atoms: C_22  and  C_24 
REMARK    9  A    between atoms: C_29  and  C_33 
ROOT
HETATM    1  C   UNL     1      41.477 -17.684   3.893  1.00  0.00     0.165 C 
ENDROOT
BRANCH   1   2
HETATM    2  C   UNL     1      42.558 -17.424   4.917  1.00  0.00    -0.039 A 
HETATM    3  C   UNL     1      43.256 -18.487   5.506  1.00  0.00     0.009 A 
HETATM    4  C   UNL     1      44.270 -18.246   6.434  1.00  0.00     0.002 A 
HETATM    5  C   UNL     1      44.613 -16.936   6.775  1.00  0.00     0.017 A 
HETATM    6  C   UNL     1      43.945 -15.859   6.181  1.00  0.00     0.032 A 
HETATM    7  C   UNL     1      42.909 -16.110   5.267  1.00  0.00     0.026 A 
BRANCH   6   8
HETATM    8  C   UNL     1      44.285 -14.439   6.484  1.00  0.00     0.251 C 
HETATM    9  N   UNL     1      44.239 -14.050   7.813  1.00  0.00    -0.355 N 
HETATM   10  H   UNL     1      44.212 -14.768   8.526  1.00  0.00     0.162 HD
HETATM   11  O   UNL     1      44.616 -13.668   5.586  1.00  0.00    -0.268 OA
BRANCH   9  12
HETATM   12  C   UNL     1      44.722 -12.739   8.212  1.00  0.00     0.153 C 
BRANCH  12  13
HETATM   13  C   UNL     1      44.350 -12.395   9.672  1.00  0.00     0.292 C 
BRANCH  13  14
HETATM   14  N   UNL     1      44.092 -10.964   9.959  1.00  0.00     0.093 N 
HETATM   15  C   UNL     1      44.269 -10.692  11.406  1.00  0.00     0.300 C 
HETATM   16  C   UNL     1      43.153 -11.247  12.324  1.00  0.00     0.264 C 
HETATM   17  N   UNL     1      41.787 -10.786  11.840  1.00  0.00    -0.072 N 
HETATM   18  C   UNL     1      40.676 -11.334  12.684  1.00  0.00     0.269 C 
HETATM   19  H   UNL     1      41.770  -9.763  11.927  1.00  0.00     0.279 HD
HETATM   20  C   UNL     1      41.579 -11.104  10.367  1.00  0.00     0.264 C 
HETATM   21  C   UNL     1      42.744 -10.519   9.542  1.00  0.00     0.300 C 
ENDBRANCH  13  14
ENDBRANCH  12  13
ENDBRANCH   9  12
ENDBRANCH   6   8
ENDBRANCH   1   2
BRANCH   1  22
HETATM   22  N   UNL     1      41.712 -17.010   2.616  1.00  0.00    -0.337 N 
HETATM   23  C   UNL     1      41.082 -15.758   2.408  1.00  0.00     0.280 C 
HETATM   24  O   UNL     1      40.334 -15.309   3.285  1.00  0.00    -0.265 OA
BRANCH  22  25
HETATM   25  C   UNL     1      42.664 -17.600   1.704  1.00  0.00     0.088 A 
HETATM   26  C   UNL     1      44.138 -17.269   1.697  1.00  0.00     0.027 A 
HETATM   27  C   UNL     1      43.682 -18.604   2.189  1.00  0.00     0.027 A 
ENDBRANCH  22  25
BRANCH  23  28
HETATM   28  C   UNL     1      41.312 -15.023   1.154  1.00  0.00     0.166 A 
HETATM   29  N   UNL     1      41.074 -15.466  -0.067  1.00  0.00    -0.235 NA
HETATM   30  C   UNL     1      41.349 -14.477  -0.997  1.00  0.00     0.075 A 
HETATM   31  C   UNL     1      41.165 -14.575  -2.389  1.00  0.00     0.034 A 
HETATM   32  C   UNL     1      41.844 -13.283  -0.473  1.00  0.00     0.036 A 
HETATM   33  C   UNL     1      41.462 -13.478  -3.211  1.00  0.00     0.014 A 
HETATM   34  C   UNL     1      41.953 -12.284  -2.673  1.00  0.00    -0.022 A 
HETATM   35  C   UNL     1      42.157 -12.181  -1.288  1.00  0.00     0.033 A 
HETATM   36  S   UNL     1      41.965 -13.431   1.234  1.00  0.00    -0.063 SA
BRANCH  34  37
HETATM   37  C   UNL     1      42.226 -11.153  -3.545  1.00  0.00     0.010 A 
HETATM   38  C   UNL     1      42.331  -9.770  -3.262  1.00  0.00     0.152 A 
HETATM   39  N   UNL     1      42.594  -9.038  -4.346  1.00  0.00    -0.187 NA
HETATM   40  N   UNL     1      42.660  -9.946  -5.332  1.00  0.00    -0.289 N 
HETATM   41  H   UNL     1      42.854  -9.622  -6.274  1.00  0.00     0.188 HD
HETATM   42  C   UNL     1      42.446 -11.226  -4.905  1.00  0.00     0.123 A 
ENDBRANCH  34  37
ENDBRANCH  23  28
ENDBRANCH   1  22
TORSDOF 9
ENDMDL
MODEL 2
REMARK VINA RESULT:      -9.2      3.246      7.422
REMARK  9 active torsions:
REMARK  status: ('A' for Active; 'I' for Inactive)
REMARK    1  A    between atoms: N_6  and  C_7 
REMARK    2  A    between atoms: C_7  and  C_8 
REMARK    3  A    between atoms: C_8  and  N_9 
REMARK       I    between atoms: N_9  and  C_10 
REMARK    4  A    between atoms: C_10  and  C_12 
REMARK    5  A    between atoms: C_16  and  C_17 
REMARK    6  A    between atoms: C_17  and  N_18 
REMARK    7  A    between atoms: N_18  and  C_19 
REMARK       I    between atoms: N_18  and  C_22 
REMARK    8  A    between atoms: C_22  and  C_24 
REMARK    9  A    between atoms: C_29  and  C_33 
ROOT
HETATM    1  C   UNL     1      40.834  -9.353   9.104  1.00  0.00     0.165 C 
ENDROOT
BRANCH   1   2
HETATM    2  C   UNL     1      42.089  -9.868   9.773  1.00  0.00    -0.039 A 
HETATM    3  C   UNL     1      42.470  -9.396  11.036  1.00  0.00     0.009 A 
HETATM    4  C   UNL     1      43.615  -9.888  11.664  1.00  0.00     0.002 A 
HETATM    5  C   UNL     1      44.387 -10.873  11.045  1.00  0.00     0.017 A 
HETATM    6  C   UNL     1      44.010 -11.376   9.795  1.00  0.00     0.032 A 
HETATM    7  C   UNL     1      42.871 -10.858   9.158  1.00  0.00     0.026 A 
BRANCH   6   8
HETATM    8  C   UNL     1      44.779 -12.446   9.096  1.00  0.00     0.251 C 
HETATM    9  N   UNL     1      44.172 -13.049   8.006  1.00  0.00    -0.355 N 
HETATM   10  H   UNL     1      43.365 -12.599   7.592  1.00  0.00     0.162 HD
HETATM   11  O   UNL     1      45.911 -12.749   9.467  1.00  0.00    -0.268 OA
BRANCH   9  12
HETATM   12  C   UNL     1      44.917 -13.973   7.168  1.00  0.00     0.153 C 
BRANCH  12  13
HETATM   13  C   UNL     1      44.041 -14.598   6.058  1.00  0.00     0.292 C 
BRANCH  13  14
HETATM   14  N   UNL     1      43.014 -15.567   6.508  1.00  0.00     0.093 N 
HETATM   15  C   UNL     1      43.638 -16.626   7.338  1.00  0.00     0.300 C 
HETATM   16  C   UNL     1      44.501 -17.650   6.563  1.00  0.00     0.264 C 
HETATM   17  N   UNL     1      43.711 -18.249   5.410  1.00  0.00    -0.072 N 
HETATM   18  C   UNL     1      44.527 -19.220   4.612  1.00  0.00     0.269 C 
HETATM   19  H   UNL     1      42.926 -18.766   5.824  1.00  0.00     0.279 HD
HETATM   20  C   UNL     1      43.106 -17.168   4.526  1.00  0.00     0.264 C 
HETATM   21  C   UNL     1      42.277 -16.197   5.391  1.00  0.00     0.300 C 
ENDBRANCH  13  14
ENDBRANCH  12  13
ENDBRANCH   9  12
ENDBRANCH   6   8
ENDBRANCH   1   2
BRANCH   1  22
HETATM   22  N   UNL     1      40.681  -9.814   7.723  1.00  0.00    -0.337 N 
HETATM   23  C   UNL     1      39.830 -10.923   7.491  1.00  0.00     0.280 C 
HETATM   24  O   UNL     1      39.291 -11.478   8.457  1.00  0.00    -0.265 OA
BRANCH  22  25
HETATM   25  C   UNL     1      41.304  -9.036   6.677  1.00  0.00     0.088 A 
HETATM   26  C   UNL     1      40.569  -8.022   5.833  1.00  0.00     0.027 A 
HETATM   27  C   UNL     1      41.555  -7.558   6.856  1.00  0.00     0.027 A 
ENDBRANCH  22  25
BRANCH  23  28
HETATM   28  C   UNL     1      39.616 -11.405   6.117  1.00  0.00     0.166 A 
HETATM   29  N   UNL     1      38.745 -10.927   5.248  1.00  0.00    -0.235 NA
HETATM   30  C   UNL     1      38.871 -11.583   4.035  1.00  0.00     0.075 A 
HETATM   31  C   UNL     1      38.143 -11.304   2.863  1.00  0.00     0.034 A 
HETATM   32  C   UNL     1      39.821 -12.603   4.002  1.00  0.00     0.036 A 
HETATM   33  C   UNL     1      38.396 -12.036   1.694  1.00  0.00     0.014 A 
HETATM   34  C   UNL     1      39.355 -13.054   1.671  1.00  0.00    -0.022 A 
HETATM   35  C   UNL     1      40.075 -13.352   2.839  1.00  0.00     0.033 A 
HETATM   36  S   UNL     1      40.560 -12.727   5.547  1.00  0.00    -0.063 SA
BRANCH  34  37
HETATM   37  C   UNL     1      39.617 -13.778   0.438  1.00  0.00     0.010 A 
HETATM   38  C   UNL     1      39.060 -13.635  -0.855  1.00  0.00     0.152 A 
HETATM   39  N   UNL     1      39.565 -14.501  -1.736  1.00  0.00    -0.187 NA
HETATM   40  N   UNL     1      40.449 -15.205  -1.013  1.00  0.00    -0.289 N 
HETATM   41  H   UNL     1      40.972 -15.942  -1.477  1.00  0.00     0.188 HD
HETATM   42  C   UNL     1      40.517 -14.813   0.293  1.00  0.00     0.123 A 
ENDBRANCH  34  37
ENDBRANCH  23  28
ENDBRANCH   1  22
TORSDOF 9
ENDMDL
MODEL 3
REMARK VINA RESULT:      -9.1      4.385     10.450
REMARK  9 active torsions:
REMARK  status: ('A' for Active; 'I' for Inactive)
REMARK    1  A    between atoms: N_6  and  C_7 
REMARK    2  A    between atoms: C_7  and  C_8 
REMARK    3  A    between atoms: C_8  and  N_9 
REMARK       I    between atoms: N_9  and  C_10 
REMARK    4  A    between atoms: C_10  and  C_12 
REMARK    5  A    between atoms: C_16  and  C_17 
REMARK    6  A    between atoms: C_17  and  N_18 
REMARK    7  A    between atoms: N_18  and  C_19 
REMARK       I    between atoms: N_18  and  C_22 
REMARK    8  A    between atoms: C_22  and  C_24 
REMARK    9  A    between atoms: C_29  and  C_33 
ROOT
HETATM    1  C   UNL     1      40.898 -11.516   3.326  1.00  0.00     0.165 C 
ENDROOT
BRANCH   1   2
HETATM    2  C   UNL     1      41.063 -10.585   2.146  1.00  0.00    -0.039 A 
HETATM    3  C   UNL     1      40.866  -9.205   2.291  1.00  0.00     0.009 A 
HETATM    4  C   UNL     1      41.041  -8.344   1.207  1.00  0.00     0.002 A 
HETATM    5  C   UNL     1      41.432  -8.847  -0.035  1.00  0.00     0.017 A 
HETATM    6  C   UNL     1      41.657 -10.219  -0.195  1.00  0.00     0.032 A 
HETATM    7  C   UNL     1      41.455 -11.083   0.893  1.00  0.00     0.026 A 
BRANCH   6   8
HETATM    8  C   UNL     1      42.102 -10.813  -1.489  1.00  0.00     0.251 C 
HETATM    9  N   UNL     1      42.574 -12.115  -1.455  1.00  0.00    -0.355 N 
HETATM   10  H   UNL     1      42.387 -12.676  -0.634  1.00  0.00     0.162 HD
HETATM   11  O   UNL     1      42.021 -10.171  -2.534  1.00  0.00    -0.268 OA
BRANCH   9  12
HETATM   12  C   UNL     1      42.862 -12.824  -2.691  1.00  0.00     0.153 C 
BRANCH  12  13
HETATM   13  C   UNL     1      41.647 -13.631  -3.202  1.00  0.00     0.292 C 
BRANCH  13  14
HETATM   14  N   UNL     1      41.095 -14.640  -2.268  1.00  0.00     0.093 N 
HETATM   15  C   UNL     1      40.679 -15.853  -3.013  1.00  0.00     0.300 C 
HETATM   16  C   UNL     1      39.396 -15.699  -3.864  1.00  0.00     0.264 C 
HETATM   17  N   UNL     1      38.256 -15.156  -3.016  1.00  0.00    -0.072 N 
HETATM   18  C   UNL     1      37.004 -14.958  -3.814  1.00  0.00     0.269 C 
HETATM   19  H   UNL     1      38.060 -15.862  -2.295  1.00  0.00     0.279 HD
HETATM   20  C   UNL     1      38.660 -13.884  -2.285  1.00  0.00     0.264 C 
HETATM   21  C   UNL     1      39.949 -14.139  -1.477  1.00  0.00     0.300 C 
ENDBRANCH  13  14
ENDBRANCH  12  13
ENDBRANCH   9  12
ENDBRANCH   6   8
ENDBRANCH   1   2
BRANCH   1  22
HETATM   22  N   UNL     1      41.235 -12.907   3.021  1.00  0.00    -0.337 N 
HETATM   23  C   UNL     1      42.344 -13.476   3.694  1.00  0.00     0.280 C 
HETATM   24  O   UNL     1      43.002 -12.772   4.471  1.00  0.00    -0.265 OA
BRANCH  22  25
HETATM   25  C   UNL     1      40.347 -13.644   2.153  1.00  0.00     0.088 A 
HETATM   26  C   UNL     1      39.369 -14.688   2.641  1.00  0.00     0.027 A 
HETATM   27  C   UNL     1      38.862 -13.370   2.151  1.00  0.00     0.027 A 
ENDBRANCH  22  25
BRANCH  23  28
HETATM   28  C   UNL     1      42.706 -14.882   3.448  1.00  0.00     0.166 A 
HETATM   29  N   UNL     1      43.105 -15.397   2.300  1.00  0.00    -0.235 NA
HETATM   30  C   UNL     1      43.420 -16.736   2.460  1.00  0.00     0.075 A 
HETATM   31  C   UNL     1      43.928 -17.592   1.466  1.00  0.00     0.034 A 
HETATM   32  C   UNL     1      43.214 -17.251   3.740  1.00  0.00     0.036 A 
HETATM   33  C   UNL     1      44.229 -18.925   1.779  1.00  0.00     0.014 A 
HETATM   34  C   UNL     1      44.022 -19.429   3.068  1.00  0.00    -0.022 A 
HETATM   35  C   UNL     1      43.500 -18.589   4.063  1.00  0.00     0.033 A 
HETATM   36  S   UNL     1      42.601 -16.004   4.751  1.00  0.00    -0.063 SA
BRANCH  34  37
HETATM   37  C   UNL     1      44.369 -20.808   3.373  1.00  0.00     0.010 A 
HETATM   38  C   UNL     1      44.381 -21.962   2.554  1.00  0.00     0.152 A 
HETATM   39  N   UNL     1      44.762 -23.059   3.211  1.00  0.00    -0.187 NA
HETATM   40  N   UNL     1      44.997 -22.616   4.455  1.00  0.00    -0.289 N 
HETATM   41  H   UNL     1      45.305 -23.284   5.154  1.00  0.00     0.188 HD
HETATM   42  C   UNL     1      44.775 -21.277   4.605  1.00  0.00     0.123 A 
ENDBRANCH  34  37
ENDBRANCH  23  28
ENDBRANCH   1  22
TORSDOF 9
ENDMDL
MODEL 4
REMARK VINA RESULT:      -8.9      3.608      7.522
REMARK  9 active torsions:
REMARK  status: ('A' for Active; 'I' for Inactive)
REMARK    1  A    between atoms: N_6  and  C_7 
REMARK    2  A    between atoms: C_7  and  C_8 
REMARK    3  A    between atoms: C_8  and  N_9 
REMARK       I    between atoms: N_9  and  C_10 
REMARK    4  A    between atoms: C_10  and  C_12 
REMARK    5  A    between atoms: C_16  and  C_17 
REMARK    6  A    between atoms: C_17  and  N_18 
REMARK    7  A    between atoms: N_18  and  C_19 
REMARK       I    between atoms: N_18  and  C_22 
REMARK    8  A    between atoms: C_22  and  C_24 
REMARK    9  A    between atoms: C_29  and  C_33 
ROOT
HETATM    1  C   UNL     1      40.284 -12.190   1.788  1.00  0.00     0.165 C 
ENDROOT
BRANCH   1   2
HETATM    2  C   UNL     1      39.804 -11.332   2.938  1.00  0.00    -0.039 A 
HETATM    3  C   UNL     1      38.458 -10.957   3.037  1.00  0.00     0.009 A 
HETATM    4  C   UNL     1      38.012 -10.185   4.111  1.00  0.00     0.002 A 
HETATM    5  C   UNL     1      38.902  -9.791   5.111  1.00  0.00     0.017 A 
HETATM    6  C   UNL     1      40.247 -10.176   5.044  1.00  0.00     0.032 A 
HETATM    7  C   UNL     1      40.694 -10.931   3.948  1.00  0.00     0.026 A 
BRANCH   6   8
HETATM    8  C   UNL     1      41.239  -9.809   6.095  1.00  0.00     0.251 C 
HETATM    9  N   UNL     1      41.283 -10.608   7.226  1.00  0.00    -0.355 N 
HETATM   10  H   UNL     1      40.829 -11.512   7.198  1.00  0.00     0.162 HD
HETATM   11  O   UNL     1      41.997  -8.854   5.936  1.00  0.00    -0.268 OA
BRANCH   9  12
HETATM   12  C   UNL     1      42.334 -10.426   8.214  1.00  0.00     0.153 C 
BRANCH  12  13
HETATM   13  C   UNL     1      41.771 -10.152   9.627  1.00  0.00     0.292 C 
BRANCH  13  14
HETATM   14  N   UNL     1      41.833 -11.281  10.584  1.00  0.00     0.093 N 
HETATM   15  C   UNL     1      40.820 -11.105  11.652  1.00  0.00     0.300 C 
HETATM   16  C   UNL     1      41.136  -9.997  12.685  1.00  0.00     0.264 C 
HETATM   17  N   UNL     1      42.524 -10.195  13.272  1.00  0.00    -0.072 N 
HETATM   18  C   UNL     1      42.882  -9.120  14.253  1.00  0.00     0.269 C 
HETATM   19  H   UNL     1      42.508 -11.089  13.780  1.00  0.00     0.279 HD
HETATM   20  C   UNL     1      43.578 -10.331  12.182  1.00  0.00     0.264 C 
HETATM   21  C   UNL     1      43.167 -11.449  11.202  1.00  0.00     0.300 C 
ENDBRANCH  13  14
ENDBRANCH  12  13
ENDBRANCH   9  12
ENDBRANCH   6   8
ENDBRANCH   1   2
BRANCH   1  22
HETATM   22  N   UNL     1      40.735 -13.519   2.203  1.00  0.00    -0.337 N 
HETATM   23  C   UNL     1      42.132 -13.745   2.274  1.00  0.00     0.280 C 
HETATM   24  O   UNL     1      42.905 -12.836   1.946  1.00  0.00    -0.265 OA
BRANCH  22  25
HETATM   25  C   UNL     1      39.736 -14.470   2.631  1.00  0.00     0.088 A 
HETATM   26  C   UNL     1      38.542 -14.868   1.795  1.00  0.00     0.027 A 
HETATM   27  C   UNL     1      39.656 -15.842   2.005  1.00  0.00     0.027 A 
ENDBRANCH  22  25
BRANCH  23  28
HETATM   28  C   UNL     1      42.639 -15.054   2.717  1.00  0.00     0.166 A 
HETATM   29  N   UNL     1      42.891 -15.414   3.961  1.00  0.00    -0.235 NA
HETATM   30  C   UNL     1      43.292 -16.739   4.004  1.00  0.00     0.075 A 
HETATM   31  C   UNL     1      43.592 -17.477   5.164  1.00  0.00     0.034 A 
HETATM   32  C   UNL     1      43.386 -17.377   2.767  1.00  0.00     0.036 A 
HETATM   33  C   UNL     1      43.961 -18.826   5.058  1.00  0.00     0.014 A 
HETATM   34  C   UNL     1      44.048 -19.455   3.811  1.00  0.00    -0.022 A 
HETATM   35  C   UNL     1      43.766 -18.725   2.647  1.00  0.00     0.033 A 
HETATM   36  S   UNL     1      42.962 -16.261   1.531  1.00  0.00    -0.063 SA
BRANCH  34  37
HETATM   37  C   UNL     1      44.405 -20.862   3.732  1.00  0.00     0.010 A 
HETATM   38  C   UNL     1      44.416 -21.754   2.633  1.00  0.00     0.152 A 
HETATM   39  N   UNL     1      44.809 -22.984   2.967  1.00  0.00    -0.187 NA
HETATM   40  N   UNL     1      45.052 -22.891   4.283  1.00  0.00    -0.289 N 
HETATM   41  H   UNL     1      45.371 -23.720   4.775  1.00  0.00     0.188 HD
HETATM   42  C   UNL     1      44.825 -21.643   4.790  1.00  0.00     0.123 A 
ENDBRANCH  34  37
ENDBRANCH  23  28
ENDBRANCH   1  22
TORSDOF 9
ENDMDL
MODEL 5
REMARK VINA RESULT:      -8.7      3.653      9.320
REMARK  9 active torsions:
REMARK  status: ('A' for Active; 'I' for Inactive)
REMARK    1  A    between atoms: N_6  and  C_7 
REMARK    2  A    between atoms: C_7  and  C_8 
REMARK    3  A    between atoms: C_8  and  N_9 
REMARK       I    between atoms: N_9  and  C_10 
REMARK    4  A    between atoms: C_10  and  C_12 
REMARK    5  A    between atoms: C_16  and  C_17 
REMARK    6  A    between atoms: C_17  and  N_18 
REMARK    7  A    between atoms: N_18  and  C_19 
REMARK       I    between atoms: N_18  and  C_22 
REMARK    8  A    between atoms: C_22  and  C_24 
REMARK    9  A    between atoms: C_29  and  C_33 
ROOT
HETATM    1  C   UNL     1      41.629 -11.626   6.379  1.00  0.00     0.165 C 
ENDROOT
BRANCH   1   2
HETATM    2  C   UNL     1      41.016 -10.510   5.563  1.00  0.00    -0.039 A 
HETATM    3  C   UNL     1      40.352  -9.448   6.191  1.00  0.00     0.009 A 
HETATM    4  C   UNL     1      39.807  -8.406   5.439  1.00  0.00     0.002 A 
HETATM    5  C   UNL     1      39.931  -8.403   4.048  1.00  0.00     0.017 A 
HETATM    6  C   UNL     1      40.612  -9.443   3.404  1.00  0.00     0.032 A 
HETATM    7  C   UNL     1      41.136 -10.500   4.164  1.00  0.00     0.026 A 
BRANCH   6   8
HETATM    8  C   UNL     1      40.802  -9.481   1.925  1.00  0.00     0.251 C 
HETATM    9  N   UNL     1      41.652 -10.454   1.424  1.00  0.00    -0.355 N 
HETATM   10  H   UNL     1      41.916 -11.222   2.027  1.00  0.00     0.162 HD
HETATM   11  O   UNL     1      40.201  -8.696   1.195  1.00  0.00    -0.268 OA
BRANCH   9  12
HETATM   12  C   UNL     1      41.755 -10.672  -0.010  1.00  0.00     0.153 C 
BRANCH  12  13
HETATM   13  C   UNL     1      42.005 -12.156  -0.362  1.00  0.00     0.292 C 
BRANCH  13  14
HETATM   14  N   UNL     1      40.890 -12.862  -1.036  1.00  0.00     0.093 N 
HETATM   15  C   UNL     1      39.657 -12.771  -0.216  1.00  0.00     0.300 C 
HETATM   16  C   UNL     1      39.651 -13.640   1.065  1.00  0.00     0.264 C 
HETATM   17  N   UNL     1      39.984 -15.085   0.731  1.00  0.00    -0.072 N 
HETATM   18  C   UNL     1      40.023 -15.952   1.953  1.00  0.00     0.269 C 
HETATM   19  H   UNL     1      39.231 -15.432   0.125  1.00  0.00     0.279 HD
HETATM   20  C   UNL     1      41.274 -15.190  -0.070  1.00  0.00     0.264 C 
HETATM   21  C   UNL     1      41.184 -14.285  -1.316  1.00  0.00     0.300 C 
ENDBRANCH  13  14
ENDBRANCH  12  13
ENDBRANCH   9  12
ENDBRANCH   6   8
ENDBRANCH   1   2
BRANCH   1  22
HETATM   22  N   UNL     1      41.754 -12.884   5.643  1.00  0.00    -0.337 N 
HETATM   23  C   UNL     1      43.018 -13.524   5.645  1.00  0.00     0.280 C 
HETATM   24  O   UNL     1      43.965 -12.980   6.226  1.00  0.00    -0.265 OA
BRANCH  22  25
HETATM   25  C   UNL     1      40.557 -13.454   5.068  1.00  0.00     0.088 A 
HETATM   26  C   UNL     1      39.831 -14.645   5.649  1.00  0.00     0.027 A 
HETATM   27  C   UNL     1      39.217 -13.286   5.744  1.00  0.00     0.027 A 
ENDBRANCH  22  25
BRANCH  23  28
HETATM   28  C   UNL     1      43.188 -14.808   4.947  1.00  0.00     0.166 A 
HETATM   29  N   UNL     1      43.322 -14.979   3.645  1.00  0.00    -0.235 NA
HETATM   30  C   UNL     1      43.527 -16.318   3.356  1.00  0.00     0.075 A 
HETATM   31  C   UNL     1      43.761 -16.864   2.080  1.00  0.00     0.034 A 
HETATM   32  C   UNL     1      43.503 -17.178   4.454  1.00  0.00     0.036 A 
HETATM   33  C   UNL     1      43.979 -18.242   1.940  1.00  0.00     0.014 A 
HETATM   34  C   UNL     1      43.958 -19.094   3.050  1.00  0.00    -0.022 A 
HETATM   35  C   UNL     1      43.709 -18.562   4.325  1.00  0.00     0.033 A 
HETATM   36  S   UNL     1      43.208 -16.259   5.876  1.00  0.00    -0.063 SA
BRANCH  34  37
HETATM   37  C   UNL     1      44.216 -20.515   2.880  1.00  0.00     0.010 A 
HETATM   38  C   UNL     1      44.100 -21.346   1.740  1.00  0.00     0.152 A 
HETATM   39  N   UNL     1      44.431 -22.615   1.989  1.00  0.00    -0.187 NA
HETATM   40  N   UNL     1      44.761 -22.605   3.289  1.00  0.00    -0.289 N 
HETATM   41  H   UNL     1      45.054 -23.477   3.718  1.00  0.00     0.188 HD
HETATM   42  C   UNL     1      44.648 -21.374   3.869  1.00  0.00     0.123 A 
ENDBRANCH  34  37
ENDBRANCH  23  28
ENDBRANCH   1  22
TORSDOF 9
ENDMDL
MODEL 6
REMARK VINA RESULT:      -8.7      3.913      7.456
REMARK  9 active torsions:
REMARK  status: ('A' for Active; 'I' for Inactive)
REMARK    1  A    between atoms: N_6  and  C_7 
REMARK    2  A    between atoms: C_7  and  C_8 
REMARK    3  A    between atoms: C_8  and  N_9 
REMARK       I    between atoms: N_9  and  C_10 
REMARK    4  A    between atoms: C_10  and  C_12 
REMARK    5  A    between atoms: C_16  and  C_17 
REMARK    6  A    between atoms: C_17  and  N_18 
REMARK    7  A    between atoms: N_18  and  C_19 
REMARK       I    between atoms: N_18  and  C_22 
REMARK    8  A    between atoms: C_22  and  C_24 
REMARK    9  A    between atoms: C_29  and  C_33 
ROOT
HETATM    1  C   UNL     1      38.837 -11.830   3.447  1.00  0.00     0.165 C 
ENDROOT
BRANCH   1   2
HETATM    2  C   UNL     1      39.644 -10.559   3.307  1.00  0.00    -0.039 A 
HETATM    3  C   UNL     1      39.892 -10.005   2.045  1.00  0.00     0.009 A 
HETATM    4  C   UNL     1      40.617  -8.819   1.918  1.00  0.00     0.002 A 
HETATM    5  C   UNL     1      41.092  -8.161   3.054  1.00  0.00     0.017 A 
HETATM    6  C   UNL     1      40.834  -8.685   4.326  1.00  0.00     0.032 A 
HETATM    7  C   UNL     1      40.125  -9.891   4.445  1.00  0.00     0.026 A 
BRANCH   6   8
HETATM    8  C   UNL     1      41.291  -8.014   5.578  1.00  0.00     0.251 C 
HETATM    9  N   UNL     1      40.416  -8.021   6.652  1.00  0.00    -0.355 N 
HETATM   10  H   UNL     1      39.630  -8.659   6.632  1.00  0.00     0.162 HD
HETATM   11  O   UNL     1      42.408  -7.506   5.645  1.00  0.00    -0.268 OA
BRANCH   9  12
HETATM   12  C   UNL     1      40.849  -7.545   7.956  1.00  0.00     0.153 C 
BRANCH  12  13
HETATM   13  C   UNL     1      40.619  -8.593   9.069  1.00  0.00     0.292 C 
BRANCH  13  14
HETATM   14  N   UNL     1      40.754 -10.012   8.666  1.00  0.00     0.093 N 
HETATM   15  C   UNL     1      40.088 -10.891   9.658  1.00  0.00     0.300 C 
HETATM   16  C   UNL     1      40.824 -11.035  11.012  1.00  0.00     0.264 C 
HETATM   17  N   UNL     1      42.270 -11.450  10.792  1.00  0.00    -0.072 N 
HETATM   18  C   UNL     1      43.026 -11.565  12.080  1.00  0.00     0.269 C 
HETATM   19  H   UNL     1      42.249 -12.381  10.357  1.00  0.00     0.279 HD
HETATM   20  C   UNL     1      42.974 -10.524   9.811  1.00  0.00     0.264 C 
HETATM   21  C   UNL     1      42.161 -10.441   8.503  1.00  0.00     0.300 C 
ENDBRANCH  13  14
ENDBRANCH  12  13
ENDBRANCH   9  12
ENDBRANCH   6   8
ENDBRANCH   1   2
BRANCH   1  22
HETATM   22  N   UNL     1      39.537 -13.020   2.961  1.00  0.00    -0.337 N 
HETATM   23  C   UNL     1      40.388 -13.697   3.869  1.00  0.00     0.280 C 
HETATM   24  O   UNL     1      40.538 -13.239   5.008  1.00  0.00    -0.265 OA
BRANCH  22  25
HETATM   25  C   UNL     1      39.221 -13.497   1.635  1.00  0.00     0.088 A 
HETATM   26  C   UNL     1      38.137 -14.508   1.341  1.00  0.00     0.027 A 
HETATM   27  C   UNL     1      37.944 -13.080   0.945  1.00  0.00     0.027 A 
ENDBRANCH  22  25
BRANCH  23  28
HETATM   28  C   UNL     1      41.090 -14.918   3.441  1.00  0.00     0.166 A 
HETATM   29  N   UNL     1      41.844 -15.050   2.366  1.00  0.00    -0.235 NA
HETATM   30  C   UNL     1      42.393 -16.321   2.320  1.00  0.00     0.075 A 
HETATM   31  C   UNL     1      43.289 -16.801   1.346  1.00  0.00     0.034 A 
HETATM   32  C   UNL     1      42.014 -17.175   3.354  1.00  0.00     0.036 A 
HETATM   33  C   UNL     1      43.789 -18.108   1.441  1.00  0.00     0.014 A 
HETATM   34  C   UNL     1      43.403 -18.955   2.486  1.00  0.00    -0.022 A 
HETATM   35  C   UNL     1      42.498 -18.491   3.454  1.00  0.00     0.033 A 
HETATM   36  S   UNL     1      40.931 -16.343   4.397  1.00  0.00    -0.063 SA
BRANCH  34  37
HETATM   37  C   UNL     1      43.958 -20.295   2.577  1.00  0.00     0.010 A 
HETATM   38  C   UNL     1      43.925 -21.375   1.662  1.00  0.00     0.152 A 
HETATM   39  N   UNL     1      44.556 -22.459   2.116  1.00  0.00    -0.187 NA
HETATM   40  N   UNL     1      44.999 -22.083   3.325  1.00  0.00    -0.289 N 
HETATM   41  H   UNL     1      45.522 -22.755   3.878  1.00  0.00     0.188 HD
HETATM   42  C   UNL     1      44.667 -20.798   3.649  1.00  0.00     0.123 A 
ENDBRANCH  34  37
ENDBRANCH  23  28
ENDBRANCH   1  22
TORSDOF 9
ENDMDL
MODEL 7
REMARK VINA RESULT:      -8.6      3.759      7.932
REMARK  9 active torsions:
REMARK  status: ('A' for Active; 'I' for Inactive)
REMARK    1  A    between atoms: N_6  and  C_7 
REMARK    2  A    between atoms: C_7  and  C_8 
REMARK    3  A    between atoms: C_8  and  N_9 
REMARK       I    between atoms: N_9  and  C_10 
REMARK    4  A    between atoms: C_10  and  C_12 
REMARK    5  A    between atoms: C_16  and  C_17 
REMARK    6  A    between atoms: C_17  and  N_18 
REMARK    7  A    between atoms: N_18  and  C_19 
REMARK       I    between atoms: N_18  and  C_22 
REMARK    8  A    between atoms: C_22  and  C_24 
REMARK    9  A    between atoms: C_29  and  C_33 
ROOT
HETATM    1  C   UNL     1      39.937 -11.901   4.005  1.00  0.00     0.165 C 
ENDROOT
BRANCH   1   2
HETATM    2  C   UNL     1      40.377 -10.810   4.955  1.00  0.00    -0.039 A 
HETATM    3  C   UNL     1      41.328  -9.860   4.561  1.00  0.00     0.009 A 
HETATM    4  C   UNL     1      41.717  -8.840   5.430  1.00  0.00     0.002 A 
HETATM    5  C   UNL     1      41.148  -8.744   6.701  1.00  0.00     0.017 A 
HETATM    6  C   UNL     1      40.177  -9.669   7.105  1.00  0.00     0.032 A 
HETATM    7  C   UNL     1      39.810 -10.707   6.235  1.00  0.00     0.026 A 
BRANCH   6   8
HETATM    8  C   UNL     1      39.514  -9.603   8.440  1.00  0.00     0.251 C 
HETATM    9  N   UNL     1      39.955  -8.625   9.315  1.00  0.00    -0.355 N 
HETATM   10  H   UNL     1      40.521  -7.869   8.951  1.00  0.00     0.162 HD
HETATM   11  O   UNL     1      38.598 -10.373   8.723  1.00  0.00    -0.268 OA
BRANCH   9  12
HETATM   12  C   UNL     1      39.248  -8.381  10.562  1.00  0.00     0.153 C 
BRANCH  12  13
HETATM   13  C   UNL     1      40.203  -8.304  11.774  1.00  0.00     0.292 C 
BRANCH  13  14
HETATM   14  N   UNL     1      40.098  -9.407  12.757  1.00  0.00     0.093 N 
HETATM   15  C   UNL     1      41.268  -9.394  13.669  1.00  0.00     0.300 C 
HETATM   16  C   UNL     1      42.602  -9.863  13.038  1.00  0.00     0.264 C 
HETATM   17  N   UNL     1      42.432 -11.223  12.381  1.00  0.00    -0.072 N 
HETATM   18  C   UNL     1      43.694 -11.695  11.727  1.00  0.00     0.269 C 
HETATM   19  H   UNL     1      42.199 -11.888  13.129  1.00  0.00     0.279 HD
HETATM   20  C   UNL     1      41.261 -11.231  11.408  1.00  0.00     0.264 C 
HETATM   21  C   UNL     1      39.988 -10.741  12.127  1.00  0.00     0.300 C 
ENDBRANCH  13  14
ENDBRANCH  12  13
ENDBRANCH   9  12
ENDBRANCH   6   8
ENDBRANCH   1   2
BRANCH   1  22
HETATM   22  N   UNL     1      40.862 -13.034   3.951  1.00  0.00    -0.337 N 
HETATM   23  C   UNL     1      40.569 -14.160   4.760  1.00  0.00     0.280 C 
HETATM   24  O   UNL     1      39.579 -14.124   5.502  1.00  0.00    -0.265 OA
BRANCH  22  25
HETATM   25  C   UNL     1      41.939 -12.984   2.991  1.00  0.00     0.088 A 
HETATM   26  C   UNL     1      41.880 -13.630   1.626  1.00  0.00     0.027 A 
HETATM   27  C   UNL     1      41.826 -12.141   1.743  1.00  0.00     0.027 A 
ENDBRANCH  22  25
BRANCH  23  28
HETATM   28  C   UNL     1      41.449 -15.338   4.718  1.00  0.00     0.166 A 
HETATM   29  N   UNL     1      42.531 -15.532   5.449  1.00  0.00    -0.235 NA
HETATM   30  C   UNL     1      43.067 -16.782   5.187  1.00  0.00     0.075 A 
HETATM   31  C   UNL     1      44.190 -17.351   5.817  1.00  0.00     0.034 A 
HETATM   32  C   UNL     1      42.404 -17.526   4.212  1.00  0.00     0.036 A 
HETATM   33  C   UNL     1      44.606 -18.643   5.469  1.00  0.00     0.014 A 
HETATM   34  C   UNL     1      43.930 -19.382   4.492  1.00  0.00    -0.022 A 
HETATM   35  C   UNL     1      42.819 -18.819   3.846  1.00  0.00     0.033 A 
HETATM   36  S   UNL     1      41.079 -16.610   3.616  1.00  0.00    -0.063 SA
BRANCH  34  37
HETATM   37  C   UNL     1      44.366 -20.731   4.170  1.00  0.00     0.010 A 
HETATM   38  C   UNL     1      44.408 -21.420   2.935  1.00  0.00     0.152 A 
HETATM   39  N   UNL     1      44.877 -22.664   3.051  1.00  0.00    -0.187 NA
HETATM   40  N   UNL     1      45.139 -22.781   4.361  1.00  0.00    -0.289 N 
HETATM   41  H   UNL     1      45.514 -23.661   4.701  1.00  0.00     0.188 HD
HETATM   42  C   UNL     1      44.849 -21.653   5.075  1.00  0.00     0.123 A 
ENDBRANCH  34  37
ENDBRANCH  23  28
ENDBRANCH   1  22
TORSDOF 9
ENDMDL
MODEL 8
REMARK VINA RESULT:      -8.5      3.829     10.649
REMARK  9 active torsions:
REMARK  status: ('A' for Active; 'I' for Inactive)
REMARK    1  A    between atoms: N_6  and  C_7 
REMARK    2  A    between atoms: C_7  and  C_8 
REMARK    3  A    between atoms: C_8  and  N_9 
REMARK       I    between atoms: N_9  and  C_10 
REMARK    4  A    between atoms: C_10  and  C_12 
REMARK    5  A    between atoms: C_16  and  C_17 
REMARK    6  A    between atoms: C_17  and  N_18 
REMARK    7  A    between atoms: N_18  and  C_19 
REMARK       I    between atoms: N_18  and  C_22 
REMARK    8  A    between atoms: C_22  and  C_24 
REMARK    9  A    between atoms: C_29  and  C_33 
ROOT
HETATM    1  C   UNL     1      40.539 -11.917   3.133  1.00  0.00     0.165 C 
ENDROOT
BRANCH   1   2
HETATM    2  C   UNL     1      39.403 -11.902   2.136  1.00  0.00    -0.039 A 
HETATM    3  C   UNL     1      38.144 -11.402   2.493  1.00  0.00     0.009 A 
HETATM    4  C   UNL     1      37.102 -11.367   1.565  1.00  0.00     0.002 A 
HETATM    5  C   UNL     1      37.309 -11.816   0.260  1.00  0.00     0.017 A 
HETATM    6  C   UNL     1      38.566 -12.296  -0.125  1.00  0.00     0.032 A 
HETATM    7  C   UNL     1      39.602 -12.352   0.820  1.00  0.00     0.026 A 
BRANCH   6   8
HETATM    8  C   UNL     1      38.856 -12.764  -1.511  1.00  0.00     0.251 C 
HETATM    9  N   UNL     1      39.109 -11.792  -2.465  1.00  0.00    -0.355 N 
HETATM   10  H   UNL     1      39.316 -10.851  -2.153  1.00  0.00     0.162 HD
HETATM   11  O   UNL     1      38.891 -13.965  -1.773  1.00  0.00    -0.268 OA
BRANCH   9  12
HETATM   12  C   UNL     1      39.569 -12.165  -3.792  1.00  0.00     0.153 C 
BRANCH  12  13
HETATM   13  C   UNL     1      40.328 -11.017  -4.496  1.00  0.00     0.292 C 
BRANCH  13  14
HETATM   14  N   UNL     1      41.780 -11.226  -4.702  1.00  0.00     0.093 N 
HETATM   15  C   UNL     1      42.348 -12.014  -3.582  1.00  0.00     0.300 C 
HETATM   16  C   UNL     1      42.481 -11.254  -2.240  1.00  0.00     0.264 C 
HETATM   17  N   UNL     1      43.241  -9.952  -2.438  1.00  0.00    -0.072 N 
HETATM   18  C   UNL     1      43.360  -9.169  -1.167  1.00  0.00     0.269 C 
HETATM   19  H   UNL     1      44.191 -10.205  -2.740  1.00  0.00     0.279 HD
HETATM   20  C   UNL     1      42.636  -9.115  -3.556  1.00  0.00     0.264 C 
HETATM   21  C   UNL     1      42.538  -9.963  -4.841  1.00  0.00     0.300 C 
ENDBRANCH  13  14
ENDBRANCH  12  13
ENDBRANCH   9  12
ENDBRANCH   6   8
ENDBRANCH   1   2
BRANCH   1  22
HETATM   22  N   UNL     1      41.005 -13.264   3.464  1.00  0.00    -0.337 N 
HETATM   23  C   UNL     1      42.238 -13.688   2.909  1.00  0.00     0.280 C 
HETATM   24  O   UNL     1      42.843 -12.929   2.142  1.00  0.00    -0.265 OA
BRANCH  22  25
HETATM   25  C   UNL     1      40.246 -14.025   4.429  1.00  0.00     0.088 A 
HETATM   26  C   UNL     1      40.552 -14.051   5.908  1.00  0.00     0.027 A 
HETATM   27  C   UNL     1      39.336 -13.335   5.417  1.00  0.00     0.027 A 
ENDBRANCH  22  25
BRANCH  23  28
HETATM   28  C   UNL     1      42.767 -15.021   3.237  1.00  0.00     0.166 A 
HETATM   29  N   UNL     1      43.240 -15.409   4.407  1.00  0.00    -0.235 NA
HETATM   30  C   UNL     1      43.587 -16.749   4.362  1.00  0.00     0.075 A 
HETATM   31  C   UNL     1      44.076 -17.514   5.437  1.00  0.00     0.034 A 
HETATM   32  C   UNL     1      43.415 -17.371   3.126  1.00  0.00     0.036 A 
HETATM   33  C   UNL     1      44.363 -18.874   5.253  1.00  0.00     0.014 A 
HETATM   34  C   UNL     1      44.182 -19.489   4.009  1.00  0.00    -0.022 A 
HETATM   35  C   UNL     1      43.710 -18.731   2.926  1.00  0.00     0.033 A 
HETATM   36  S   UNL     1      42.806 -16.223   2.003  1.00  0.00    -0.063 SA
BRANCH  34  37
HETATM   37  C   UNL     1      44.460 -20.907   3.853  1.00  0.00     0.010 A 
HETATM   38  C   UNL     1      44.417 -21.738   2.707  1.00  0.00     0.152 A 
HETATM   39  N   UNL     1      44.742 -23.004   2.973  1.00  0.00    -0.187 NA
HETATM   40  N   UNL     1      44.995 -22.995   4.291  1.00  0.00    -0.289 N 
HETATM   41  H   UNL     1      45.269 -23.865   4.736  1.00  0.00     0.188 HD
HETATM   42  C   UNL     1      44.839 -21.765   4.864  1.00  0.00     0.123 A 
ENDBRANCH  34  37
ENDBRANCH  23  28
ENDBRANCH   1  22
TORSDOF 9
ENDMDL
MODEL 9
REMARK VINA RESULT:      -8.5      3.804      8.193
REMARK  9 active torsions:
REMARK  status: ('A' for Active; 'I' for Inactive)
REMARK    1  A    between atoms: N_6  and  C_7 
REMARK    2  A    between atoms: C_7  and  C_8 
REMARK    3  A    between atoms: C_8  and  N_9 
REMARK       I    between atoms: N_9  and  C_10 
REMARK    4  A    between atoms: C_10  and  C_12 
REMARK    5  A    between atoms: C_16  and  C_17 
REMARK    6  A    between atoms: C_17  and  N_18 
REMARK    7  A    between atoms: N_18  and  C_19 
REMARK       I    between atoms: N_18  and  C_22 
REMARK    8  A    between atoms: C_22  and  C_24 
REMARK    9  A    between atoms: C_29  and  C_33 
ROOT
HETATM    1  C   UNL     1      39.422 -11.900  -0.801  1.00  0.00     0.165 C 
ENDROOT
BRANCH   1   2
HETATM    2  C   UNL     1      38.494 -11.229   0.186  1.00  0.00    -0.039 A 
HETATM    3  C   UNL     1      37.272 -10.688  -0.235  1.00  0.00     0.009 A 
HETATM    4  C   UNL     1      36.405 -10.090   0.680  1.00  0.00     0.002 A 
HETATM    5  C   UNL     1      36.740 -10.037   2.034  1.00  0.00     0.017 A 
HETATM    6  C   UNL     1      37.945 -10.592   2.480  1.00  0.00     0.032 A 
HETATM    7  C   UNL     1      38.823 -11.171   1.550  1.00  0.00     0.026 A 
BRANCH   6   8
HETATM    8  C   UNL     1      38.345 -10.591   3.916  1.00  0.00     0.251 C 
HETATM    9  N   UNL     1      39.476 -11.316   4.256  1.00  0.00    -0.355 N 
HETATM   10  H   UNL     1      40.100 -11.613   3.517  1.00  0.00     0.162 HD
HETATM   11  O   UNL     1      37.706  -9.947   4.745  1.00  0.00    -0.268 OA
BRANCH   9  12
HETATM   12  C   UNL     1      40.032 -11.226   5.596  1.00  0.00     0.153 C 
BRANCH  12  13
HETATM   13  C   UNL     1      41.044 -12.356   5.890  1.00  0.00     0.292 C 
BRANCH  13  14
HETATM   14  N   UNL     1      41.239 -13.353   4.810  1.00  0.00     0.093 N 
HETATM   15  C   UNL     1      40.854 -14.704   5.285  1.00  0.00     0.300 C 
HETATM   16  C   UNL     1      41.836 -15.356   6.289  1.00  0.00     0.264 C 
HETATM   17  N   UNL     1      43.250 -15.351   5.732  1.00  0.00    -0.072 N 
HETATM   18  C   UNL     1      44.237 -15.942   6.691  1.00  0.00     0.269 C 
HETATM   19  H   UNL     1      43.240 -15.941   4.890  1.00  0.00     0.279 HD
HETATM   20  C   UNL     1      43.670 -13.958   5.285  1.00  0.00     0.264 C 
HETATM   21  C   UNL     1      42.627 -13.395   4.298  1.00  0.00     0.300 C 
ENDBRANCH  13  14
ENDBRANCH  12  13
ENDBRANCH   9  12
ENDBRANCH   6   8
ENDBRANCH   1   2
BRANCH   1  22
HETATM   22  N   UNL     1      40.308 -12.889  -0.186  1.00  0.00    -0.337 N 
HETATM   23  C   UNL     1      39.779 -14.181   0.061  1.00  0.00     0.280 C 
HETATM   24  O   UNL     1      38.593 -14.405  -0.209  1.00  0.00    -0.265 OA
BRANCH  22  25
HETATM   25  C   UNL     1      41.692 -12.528   0.014  1.00  0.00     0.088 A 
HETATM   26  C   UNL     1      42.669 -12.288  -1.114  1.00  0.00     0.027 A 
HETATM   27  C   UNL     1      42.181 -11.134  -0.299  1.00  0.00     0.027 A 
ENDBRANCH  22  25
BRANCH  23  28
HETATM   28  C   UNL     1      40.638 -15.222   0.647  1.00  0.00     0.166 A 
HETATM   29  N   UNL     1      41.729 -15.731   0.107  1.00  0.00    -0.235 NA
HETATM   30  C   UNL     1      42.313 -16.640   0.974  1.00  0.00     0.075 A 
HETATM   31  C   UNL     1      43.516 -17.338   0.755  1.00  0.00     0.034 A 
HETATM   32  C   UNL     1      41.627 -16.853   2.169  1.00  0.00     0.036 A 
HETATM   33  C   UNL     1      44.004 -18.212   1.737  1.00  0.00     0.014 A 
HETATM   34  C   UNL     1      43.309 -18.415   2.935  1.00  0.00    -0.022 A 
HETATM   35  C   UNL     1      42.100 -17.736   3.156  1.00  0.00     0.033 A 
HETATM   36  S   UNL     1      40.211 -15.881   2.181  1.00  0.00    -0.063 SA
BRANCH  34  37
HETATM   37  C   UNL     1      43.852 -19.305   3.948  1.00  0.00     0.010 A 
HETATM   38  C   UNL     1      43.648 -19.347   5.348  1.00  0.00     0.152 A 
HETATM   39  N   UNL     1      44.335 -20.324   5.942  1.00  0.00    -0.187 NA
HETATM   40  N   UNL     1      44.984 -20.915   4.928  1.00  0.00    -0.289 N 
HETATM   41  H   UNL     1      45.587 -21.705   5.136  1.00  0.00     0.188 HD
HETATM   42  C   UNL     1      44.731 -20.342   3.714  1.00  0.00     0.123 A 
ENDBRANCH  34  37
ENDBRANCH  23  28
ENDBRANCH   1  22
TORSDOF 9
ENDMDL
MODEL 10
REMARK VINA RESULT:      -8.4      5.817     12.232
REMARK  9 active torsions:
REMARK  status: ('A' for Active; 'I' for Inactive)
REMARK    1  A    between atoms: N_6  and  C_7 
REMARK    2  A    between atoms: C_7  and  C_8 
REMARK    3  A    between atoms: C_8  and  N_9 
REMARK       I    between atoms: N_9  and  C_10 
REMARK    4  A    between atoms: C_10  and  C_12 
REMARK    5  A    between atoms: C_16  and  C_17 
REMARK    6  A    between atoms: C_17  and  N_18 
REMARK    7  A    between atoms: N_18  and  C_19 
REMARK       I    between atoms: N_18  and  C_22 
REMARK    8  A    between atoms: C_22  and  C_24 
REMARK    9  A    between atoms: C_29  and  C_33 
ROOT
HETATM    1  C   UNL     1      39.598 -13.244  -1.318  1.00  0.00     0.165 C 
ENDROOT
BRANCH   1   2
HETATM    2  C   UNL     1      39.022 -14.023  -2.479  1.00  0.00    -0.039 A 
HETATM    3  C   UNL     1      39.684 -15.150  -2.981  1.00  0.00     0.009 A 
HETATM    4  C   UNL     1      39.141 -15.883  -4.037  1.00  0.00     0.002 A 
HETATM    5  C   UNL     1      37.918 -15.508  -4.597  1.00  0.00     0.017 A 
HETATM    6  C   UNL     1      37.228 -14.399  -4.093  1.00  0.00     0.032 A 
HETATM    7  C   UNL     1      37.793 -13.652  -3.047  1.00  0.00     0.026 A 
BRANCH   6   8
HETATM    8  C   UNL     1      35.906 -13.965  -4.630  1.00  0.00     0.251 C 
HETATM    9  N   UNL     1      35.480 -12.689  -4.300  1.00  0.00    -0.355 N 
HETATM   10  H   UNL     1      36.155 -12.036  -3.922  1.00  0.00     0.162 HD
HETATM   11  O   UNL     1      35.249 -14.709  -5.355  1.00  0.00    -0.268 OA
BRANCH   9  12
HETATM   12  C   UNL     1      34.292 -12.127  -4.922  1.00  0.00     0.153 C 
BRANCH  12  13
HETATM   13  C   UNL     1      33.004 -12.456  -4.132  1.00  0.00     0.292 C 
BRANCH  13  14
HETATM   14  N   UNL     1      31.860 -11.538  -4.340  1.00  0.00     0.093 N 
HETATM   15  C   UNL     1      32.140 -10.223  -3.714  1.00  0.00     0.300 C 
HETATM   16  C   UNL     1      32.088 -10.203  -2.167  1.00  0.00     0.264 C 
HETATM   17  N   UNL     1      30.772 -10.779  -1.670  1.00  0.00    -0.072 N 
HETATM   18  C   UNL     1      30.698 -10.810  -0.174  1.00  0.00     0.269 C 
HETATM   19  H   UNL     1      30.027 -10.156  -2.008  1.00  0.00     0.279 HD
HETATM   20  C   UNL     1      30.500 -12.150  -2.272  1.00  0.00     0.264 C 
HETATM   21  C   UNL     1      30.584 -12.066  -3.810  1.00  0.00     0.300 C 
ENDBRANCH  13  14
ENDBRANCH  12  13
ENDBRANCH   9  12
ENDBRANCH   6   8
ENDBRANCH   1   2
BRANCH   1  22
HETATM   22  N   UNL     1      39.879 -14.071  -0.144  1.00  0.00    -0.337 N 
HETATM   23  C   UNL     1      41.230 -14.412   0.112  1.00  0.00     0.280 C 
HETATM   24  O   UNL     1      42.104 -14.038  -0.680  1.00  0.00    -0.265 OA
BRANCH  22  25
HETATM   25  C   UNL     1      38.782 -14.381   0.744  1.00  0.00     0.088 A 
HETATM   26  C   UNL     1      38.300 -13.459   1.839  1.00  0.00     0.027 A 
HETATM   27  C   UNL     1      37.459 -13.664   0.620  1.00  0.00     0.027 A 
ENDBRANCH  22  25
BRANCH  23  28
HETATM   28  C   UNL     1      41.570 -15.214   1.298  1.00  0.00     0.166 A 
HETATM   29  N   UNL     1      41.748 -16.522   1.332  1.00  0.00    -0.235 NA
HETATM   30  C   UNL     1      42.121 -16.920   2.605  1.00  0.00     0.075 A 
HETATM   31  C   UNL     1      42.444 -18.232   3.001  1.00  0.00     0.034 A 
HETATM   32  C   UNL     1      42.182 -15.904   3.557  1.00  0.00     0.036 A 
HETATM   33  C   UNL     1      42.832 -18.486   4.324  1.00  0.00     0.014 A 
HETATM   34  C   UNL     1      42.894 -17.456   5.270  1.00  0.00    -0.022 A 
HETATM   35  C   UNL     1      42.558 -16.148   4.890  1.00  0.00     0.033 A 
HETATM   36  S   UNL     1      41.749 -14.416   2.814  1.00  0.00    -0.063 SA
BRANCH  34  37
HETATM   37  C   UNL     1      43.327 -17.743   6.628  1.00  0.00     0.010 A 
HETATM   38  C   UNL     1      44.175 -18.756   7.134  1.00  0.00     0.152 A 
HETATM   39  N   UNL     1      44.331 -18.687   8.458  1.00  0.00    -0.187 NA
HETATM   40  N   UNL     1      43.584 -17.630   8.809  1.00  0.00    -0.289 N 
HETATM   41  H   UNL     1      43.543 -17.373   9.790  1.00  0.00     0.188 HD
HETATM   42  C   UNL     1      42.961 -17.031   7.751  1.00  0.00     0.123 A 
ENDBRANCH  34  37
ENDBRANCH  23  28
ENDBRANCH   1  22
TORSDOF 9
ENDMDL
