MODEL 1
REMARK VINA RESULT:      -8.7      0.000      0.000
REMARK  4 active torsions:
REMARK  status: ('A' for Active; 'I' for Inactive)
REMARK    1  A    between atoms: C_8  and  N_9 
REMARK       I    between atoms: N_9  and  C_10 
REMARK       I    between atoms: C_10  and  N_11 
REMARK    2  A    between atoms: N_11  and  C_12 
REMARK    3  A    between atoms: C_15  and  O_16 
REMARK    4  A    between atoms: O_16  and  C_17 
ROOT
HETATM    1  C   UNL     1      41.733 -16.807   1.271  1.00  0.00     0.054 A 
HETATM    2  C   UNL     1      41.322 -17.234   2.532  1.00  0.00     0.149 A 
HETATM    3  N   UNL     1      42.144 -17.810   3.448  1.00  0.00    -0.235 NA
HETATM    4  C   UNL     1      43.439 -17.964   3.100  1.00  0.00     0.169 A 
HETATM    5  C   UNL     1      43.951 -17.559   1.877  1.00  0.00     0.060 A 
HETATM    6  C   UNL     1      43.083 -16.974   0.954  1.00  0.00     0.035 A 
ENDROOT
BRANCH   1   7
HETATM    7  N   UNL     1      40.895 -16.231   0.292  1.00  0.00    -0.307 N 
HETATM    8  C   UNL     1      40.589 -14.885   0.152  1.00  0.00     0.325 C 
HETATM    9  N   UNL     1      39.713 -14.691  -0.900  1.00  0.00    -0.305 N 
HETATM   10  O   UNL     1      41.038 -14.000   0.865  1.00  0.00    -0.247 OA
HETATM   11  H   UNL     1      39.660 -15.417  -1.595  1.00  0.00     0.171 HD
HETATM   12  H   UNL     1      40.388 -16.873  -0.297  1.00  0.00     0.170 HD
BRANCH   9  13
HETATM   13  C   UNL     1      39.054 -13.513  -1.220  1.00  0.00     0.086 A 
HETATM   14  C   UNL     1      39.319 -12.824  -2.389  1.00  0.00     0.052 A 
HETATM   15  C   UNL     1      40.261 -13.069  -3.507  1.00  0.00     0.072 C 
HETATM   16  N   UNL     1      38.499 -11.733  -2.375  1.00  0.00    -0.280 N 
HETATM   17  H   UNL     1      38.423 -10.994  -3.065  1.00  0.00     0.189 HD
HETATM   18  N   UNL     1      37.700 -11.672  -1.307  1.00  0.00    -0.177 NA
HETATM   19  C   UNL     1      38.020 -12.759  -0.588  1.00  0.00     0.079 A 
HETATM   20  C   UNL     1      37.262 -13.012   0.664  1.00  0.00     0.075 C 
ENDBRANCH   9  13
ENDBRANCH   1   7
BRANCH   4  21
HETATM   21  O   UNL     1      44.342 -18.561   3.974  1.00  0.00    -0.292 OA
BRANCH  21  22
HETATM   22  C   UNL     1      44.426 -19.931   3.928  1.00  0.00     0.080 A 
HETATM   23  C   UNL     1      44.315 -20.564   2.692  1.00  0.00     0.079 A 
HETATM   24  C   UNL     1      44.447 -21.946   2.631  1.00  0.00     0.119 A 
HETATM   25  F   UNL     1      44.333 -22.567   1.449  1.00  0.00    -0.206 F 
HETATM   26  C   UNL     1      44.704 -22.697   3.774  1.00  0.00     0.042 A 
HETATM   27  C   UNL     1      44.836 -22.055   5.006  1.00  0.00     0.006 A 
HETATM   28  C   UNL     1      44.707 -20.668   5.082  1.00  0.00     0.037 A 
ENDBRANCH  21  22
ENDBRANCH   4  21
TORSDOF 4
ENDMDL
MODEL 2
REMARK VINA RESULT:      -8.7      0.175      1.621
REMARK  4 active torsions:
REMARK  status: ('A' for Active; 'I' for Inactive)
REMARK    1  A    between atoms: C_8  and  N_9 
REMARK       I    between atoms: N_9  and  C_10 
REMARK       I    between atoms: C_10  and  N_11 
REMARK    2  A    between atoms: N_11  and  C_12 
REMARK    3  A    between atoms: C_15  and  O_16 
REMARK    4  A    between atoms: O_16  and  C_17 
ROOT
HETATM    1  C   UNL     1      41.713 -16.833   1.257  1.00  0.00     0.054 A 
HETATM    2  C   UNL     1      41.319 -17.234   2.531  1.00  0.00     0.149 A 
HETATM    3  N   UNL     1      42.151 -17.796   3.446  1.00  0.00    -0.235 NA
HETATM    4  C   UNL     1      43.439 -17.963   3.083  1.00  0.00     0.169 A 
HETATM    5  C   UNL     1      43.936 -17.583   1.846  1.00  0.00     0.060 A 
HETATM    6  C   UNL     1      43.058 -17.012   0.924  1.00  0.00     0.035 A 
ENDROOT
BRANCH   1   7
HETATM    7  N   UNL     1      40.864 -16.270   0.279  1.00  0.00    -0.307 N 
HETATM    8  C   UNL     1      40.613 -14.921   0.077  1.00  0.00     0.325 C 
HETATM    9  N   UNL     1      39.705 -14.743  -0.951  1.00  0.00    -0.305 N 
HETATM   10  O   UNL     1      41.128 -14.022   0.724  1.00  0.00    -0.247 OA
HETATM   11  H   UNL     1      39.593 -15.502  -1.603  1.00  0.00     0.171 HD
HETATM   12  H   UNL     1      40.306 -16.919  -0.254  1.00  0.00     0.170 HD
BRANCH   9  13
HETATM   13  C   UNL     1      39.087 -13.554  -1.310  1.00  0.00     0.086 A 
HETATM   14  C   UNL     1      38.044 -13.023  -0.574  1.00  0.00     0.052 A 
HETATM   15  C   UNL     1      37.339 -13.484   0.646  1.00  0.00     0.072 C 
HETATM   16  N   UNL     1      37.690 -11.867  -1.207  1.00  0.00    -0.280 N 
HETATM   17  H   UNL     1      36.954 -11.214  -0.958  1.00  0.00     0.189 HD
HETATM   18  N   UNL     1      38.437 -11.585  -2.277  1.00  0.00    -0.177 NA
HETATM   19  C   UNL     1      39.305 -12.606  -2.354  1.00  0.00     0.079 A 
HETATM   20  C   UNL     1      40.325 -12.569  -3.433  1.00  0.00     0.075 C 
ENDBRANCH   9  13
ENDBRANCH   1   7
BRANCH   4  21
HETATM   21  O   UNL     1      44.353 -18.548   3.955  1.00  0.00    -0.292 OA
BRANCH  21  22
HETATM   22  C   UNL     1      44.435 -19.918   3.928  1.00  0.00     0.080 A 
HETATM   23  C   UNL     1      44.318 -20.569   2.702  1.00  0.00     0.079 A 
HETATM   24  C   UNL     1      44.448 -21.952   2.661  1.00  0.00     0.119 A 
HETATM   25  F   UNL     1      44.329 -22.589   1.488  1.00  0.00    -0.206 F 
HETATM   26  C   UNL     1      44.708 -22.686   3.814  1.00  0.00     0.042 A 
HETATM   27  C   UNL     1      44.846 -22.027   5.035  1.00  0.00     0.006 A 
HETATM   28  C   UNL     1      44.719 -20.639   5.092  1.00  0.00     0.037 A 
ENDBRANCH  21  22
ENDBRANCH   4  21
TORSDOF 4
ENDMDL
MODEL 3
REMARK VINA RESULT:      -8.6      0.931      2.106
REMARK  4 active torsions:
REMARK  status: ('A' for Active; 'I' for Inactive)
REMARK    1  A    between atoms: C_8  and  N_9 
REMARK       I    between atoms: N_9  and  C_10 
REMARK       I    between atoms: C_10  and  N_11 
REMARK    2  A    between atoms: N_11  and  C_12 
REMARK    3  A    between atoms: C_15  and  O_16 
REMARK    4  A    between atoms: O_16  and  C_17 
ROOT
HETATM    1  C   UNL     1      41.511 -16.770   1.334  1.00  0.00     0.054 A 
HETATM    2  C   UNL     1      41.266 -17.098   2.665  1.00  0.00     0.149 A 
HETATM    3  N   UNL     1      42.182 -17.668   3.491  1.00  0.00    -0.235 NA
HETATM    4  C   UNL     1      43.402 -17.920   2.974  1.00  0.00     0.169 A 
HETATM    5  C   UNL     1      43.752 -17.617   1.667  1.00  0.00     0.060 A 
HETATM    6  C   UNL     1      42.790 -17.035   0.839  1.00  0.00     0.035 A 
ENDROOT
BRANCH   1   7
HETATM    7  N   UNL     1      40.571 -16.201   0.447  1.00  0.00    -0.307 N 
HETATM    8  C   UNL     1      40.533 -14.884   0.013  1.00  0.00     0.325 C 
HETATM    9  N   UNL     1      39.453 -14.679  -0.826  1.00  0.00    -0.305 N 
HETATM   10  O   UNL     1      41.346 -14.031   0.334  1.00  0.00    -0.247 OA
HETATM   11  H   UNL     1      39.049 -15.490  -1.264  1.00  0.00     0.171 HD
HETATM   12  H   UNL     1      39.790 -16.785   0.189  1.00  0.00     0.170 HD
BRANCH   9  13
HETATM   13  C   UNL     1      38.998 -13.458  -1.303  1.00  0.00     0.086 A 
HETATM   14  C   UNL     1      38.024 -12.734  -0.640  1.00  0.00     0.052 A 
HETATM   15  C   UNL     1      37.252 -12.989   0.599  1.00  0.00     0.072 C 
HETATM   16  N   UNL     1      37.830 -11.603  -1.381  1.00  0.00    -0.280 N 
HETATM   17  H   UNL     1      37.182 -10.842  -1.208  1.00  0.00     0.189 HD
HETATM   18  N   UNL     1      38.619 -11.518  -2.454  1.00  0.00    -0.177 NA
HETATM   19  C   UNL     1      39.349 -12.644  -2.422  1.00  0.00     0.079 A 
HETATM   20  C   UNL     1      40.377 -12.836  -3.476  1.00  0.00     0.075 C 
ENDBRANCH   9  13
ENDBRANCH   1   7
BRANCH   4  21
HETATM   21  O   UNL     1      44.392 -18.519   3.748  1.00  0.00    -0.292 OA
BRANCH  21  22
HETATM   22  C   UNL     1      44.498 -19.885   3.658  1.00  0.00     0.080 A 
HETATM   23  C   UNL     1      44.874 -20.600   4.792  1.00  0.00     0.079 A 
HETATM   24  C   UNL     1      44.937 -21.987   4.722  1.00  0.00     0.119 A 
HETATM   25  F   UNL     1      45.305 -22.685   5.805  1.00  0.00    -0.206 F 
HETATM   26  C   UNL     1      44.616 -22.664   3.549  1.00  0.00     0.042 A 
HETATM   27  C   UNL     1      44.219 -21.944   2.423  1.00  0.00     0.006 A 
HETATM   28  C   UNL     1      44.150 -20.551   2.479  1.00  0.00     0.037 A 
ENDBRANCH  21  22
ENDBRANCH   4  21
TORSDOF 4
ENDMDL
MODEL 4
REMARK VINA RESULT:      -8.5      5.967      7.944
REMARK  4 active torsions:
REMARK  status: ('A' for Active; 'I' for Inactive)
REMARK    1  A    between atoms: C_8  and  N_9 
REMARK       I    between atoms: N_9  and  C_10 
REMARK       I    between atoms: C_10  and  N_11 
REMARK    2  A    between atoms: N_11  and  C_12 
REMARK    3  A    between atoms: C_15  and  O_16 
REMARK    4  A    between atoms: O_16  and  C_17 
ROOT
HETATM    1  C   UNL     1      42.687 -14.609   5.489  1.00  0.00     0.054 A 
HETATM    2  C   UNL     1      41.879 -15.695   5.819  1.00  0.00     0.149 A 
HETATM    3  N   UNL     1      41.688 -16.775   5.018  1.00  0.00    -0.235 NA
HETATM    4  C   UNL     1      42.334 -16.783   3.833  1.00  0.00     0.169 A 
HETATM    5  C   UNL     1      43.172 -15.760   3.418  1.00  0.00     0.060 A 
HETATM    6  C   UNL     1      43.348 -14.661   4.259  1.00  0.00     0.035 A 
ENDROOT
BRANCH   1   7
HETATM    7  N   UNL     1      42.882 -13.464   6.291  1.00  0.00    -0.307 N 
HETATM    8  C   UNL     1      43.737 -13.350   7.378  1.00  0.00     0.325 C 
HETATM    9  N   UNL     1      43.644 -12.090   7.941  1.00  0.00    -0.305 N 
HETATM   10  O   UNL     1      44.466 -14.246   7.776  1.00  0.00    -0.247 OA
HETATM   11  H   UNL     1      43.268 -11.355   7.365  1.00  0.00     0.171 HD
HETATM   12  H   UNL     1      42.262 -12.687   6.121  1.00  0.00     0.170 HD
BRANCH   9  13
HETATM   13  C   UNL     1      44.210 -11.676   9.138  1.00  0.00     0.086 A 
HETATM   14  C   UNL     1      45.574 -11.501   9.277  1.00  0.00     0.052 A 
HETATM   15  C   UNL     1      46.711 -11.685   8.343  1.00  0.00     0.072 C 
HETATM   16  N   UNL     1      45.770 -11.093  10.565  1.00  0.00    -0.280 N 
HETATM   17  H   UNL     1      46.645 -10.878  11.030  1.00  0.00     0.189 HD
HETATM   18  N   UNL     1      44.642 -10.958  11.266  1.00  0.00    -0.177 NA
HETATM   19  C   UNL     1      43.672 -11.305  10.407  1.00  0.00     0.079 A 
HETATM   20  C   UNL     1      42.265 -11.217  10.875  1.00  0.00     0.075 C 
ENDBRANCH   9  13
ENDBRANCH   1   7
BRANCH   4  21
HETATM   21  O   UNL     1      42.177 -17.844   2.946  1.00  0.00    -0.292 OA
BRANCH  21  22
HETATM   22  C   UNL     1      43.029 -18.908   3.107  1.00  0.00     0.080 A 
HETATM   23  C   UNL     1      43.141 -19.834   2.072  1.00  0.00     0.079 A 
HETATM   24  C   UNL     1      44.038 -20.887   2.207  1.00  0.00     0.119 A 
HETATM   25  F   UNL     1      44.148 -21.789   1.222  1.00  0.00    -0.206 F 
HETATM   26  C   UNL     1      44.829 -21.019   3.345  1.00  0.00     0.042 A 
HETATM   27  C   UNL     1      44.728 -20.077   4.368  1.00  0.00     0.006 A 
HETATM   28  C   UNL     1      43.833 -19.013   4.246  1.00  0.00     0.037 A 
ENDBRANCH  21  22
ENDBRANCH   4  21
TORSDOF 4
ENDMDL
MODEL 5
REMARK VINA RESULT:      -8.2      1.463      1.521
REMARK  4 active torsions:
REMARK  status: ('A' for Active; 'I' for Inactive)
REMARK    1  A    between atoms: C_8  and  N_9 
REMARK       I    between atoms: N_9  and  C_10 
REMARK       I    between atoms: C_10  and  N_11 
REMARK    2  A    between atoms: N_11  and  C_12 
REMARK    3  A    between atoms: C_15  and  O_16 
REMARK    4  A    between atoms: O_16  and  C_17 
ROOT
HETATM    1  C   UNL     1      42.034 -16.995   0.666  1.00  0.00     0.054 A 
HETATM    2  C   UNL     1      41.324 -17.280   1.829  1.00  0.00     0.149 A 
HETATM    3  N   UNL     1      41.896 -17.683   2.993  1.00  0.00    -0.235 NA
HETATM    4  C   UNL     1      43.240 -17.804   3.007  1.00  0.00     0.169 A 
HETATM    5  C   UNL     1      44.039 -17.530   1.909  1.00  0.00     0.060 A 
HETATM    6  C   UNL     1      43.424 -17.121   0.724  1.00  0.00     0.035 A 
ENDROOT
BRANCH   1   7
HETATM    7  N   UNL     1      41.463 -16.599  -0.563  1.00  0.00    -0.307 N 
HETATM    8  C   UNL     1      41.096 -15.312  -0.930  1.00  0.00     0.325 C 
HETATM    9  N   UNL     1      40.540 -15.306  -2.196  1.00  0.00    -0.305 N 
HETATM   10  O   UNL     1      41.247 -14.327  -0.223  1.00  0.00    -0.247 OA
HETATM   11  H   UNL     1      40.749 -16.089  -2.794  1.00  0.00     0.171 HD
HETATM   12  H   UNL     1      41.199 -17.341  -1.193  1.00  0.00     0.170 HD
BRANCH   9  13
HETATM   13  C   UNL     1      39.901 -14.240  -2.812  1.00  0.00     0.086 A 
HETATM   14  C   UNL     1      40.603 -13.152  -3.298  1.00  0.00     0.052 A 
HETATM   15  C   UNL     1      42.045 -12.809  -3.305  1.00  0.00     0.072 C 
HETATM   16  N   UNL     1      39.669 -12.313  -3.833  1.00  0.00    -0.280 N 
HETATM   17  H   UNL     1      39.812 -11.410  -4.272  1.00  0.00     0.189 HD
HETATM   18  N   UNL     1      38.420 -12.779  -3.763  1.00  0.00    -0.177 NA
HETATM   19  C   UNL     1      38.541 -13.965  -3.145  1.00  0.00     0.079 A 
HETATM   20  C   UNL     1      37.312 -14.776  -2.951  1.00  0.00     0.075 C 
ENDBRANCH   9  13
ENDBRANCH   1   7
BRANCH   4  21
HETATM   21  O   UNL     1      43.903 -18.230   4.155  1.00  0.00    -0.292 OA
BRANCH  21  22
HETATM   22  C   UNL     1      44.141 -19.578   4.261  1.00  0.00     0.080 A 
HETATM   23  C   UNL     1      44.286 -20.323   3.093  1.00  0.00     0.079 A 
HETATM   24  C   UNL     1      44.575 -21.678   3.192  1.00  0.00     0.119 A 
HETATM   25  F   UNL     1      44.708 -22.407   2.075  1.00  0.00    -0.206 F 
HETATM   26  C   UNL     1      44.737 -22.292   4.431  1.00  0.00     0.042 A 
HETATM   27  C   UNL     1      44.612 -21.537   5.597  1.00  0.00     0.006 A 
HETATM   28  C   UNL     1      44.323 -20.174   5.512  1.00  0.00     0.037 A 
ENDBRANCH  21  22
ENDBRANCH   4  21
TORSDOF 4
ENDMDL
MODEL 6
REMARK VINA RESULT:      -8.2      2.062      2.369
REMARK  4 active torsions:
REMARK  status: ('A' for Active; 'I' for Inactive)
REMARK    1  A    between atoms: C_8  and  N_9 
REMARK       I    between atoms: N_9  and  C_10 
REMARK       I    between atoms: C_10  and  N_11 
REMARK    2  A    between atoms: N_11  and  C_12 
REMARK    3  A    between atoms: C_15  and  O_16 
REMARK    4  A    between atoms: O_16  and  C_17 
ROOT
HETATM    1  C   UNL     1      41.927 -16.867   1.138  1.00  0.00     0.054 A 
HETATM    2  C   UNL     1      41.194 -17.103   2.298  1.00  0.00     0.149 A 
HETATM    3  N   UNL     1      41.747 -17.376   3.508  1.00  0.00    -0.235 NA
HETATM    4  C   UNL     1      43.094 -17.412   3.574  1.00  0.00     0.169 A 
HETATM    5  C   UNL     1      43.914 -17.176   2.482  1.00  0.00     0.060 A 
HETATM    6  C   UNL     1      43.320 -16.901   1.250  1.00  0.00     0.035 A 
ENDROOT
BRANCH   1   7
HETATM    7  N   UNL     1      41.378 -16.607  -0.137  1.00  0.00    -0.307 N 
HETATM    8  C   UNL     1      41.095 -15.361  -0.678  1.00  0.00     0.325 C 
HETATM    9  N   UNL     1      40.535 -15.492  -1.935  1.00  0.00    -0.305 N 
HETATM   10  O   UNL     1      41.313 -14.300  -0.112  1.00  0.00    -0.247 OA
HETATM   11  H   UNL     1      40.691 -16.360  -2.420  1.00  0.00     0.171 HD
HETATM   12  H   UNL     1      41.064 -17.409  -0.661  1.00  0.00     0.170 HD
BRANCH   9  13
HETATM   13  C   UNL     1      39.965 -14.481  -2.695  1.00  0.00     0.086 A 
HETATM   14  C   UNL     1      40.722 -13.452  -3.225  1.00  0.00     0.052 A 
HETATM   15  C   UNL     1      42.167 -13.129  -3.154  1.00  0.00     0.072 C 
HETATM   16  N   UNL     1      39.847 -12.655  -3.905  1.00  0.00    -0.280 N 
HETATM   17  H   UNL     1      40.040 -11.799  -4.413  1.00  0.00     0.189 HD
HETATM   18  N   UNL     1      38.588 -13.097  -3.887  1.00  0.00    -0.177 NA
HETATM   19  C   UNL     1      38.639 -14.221  -3.155  1.00  0.00     0.079 A 
HETATM   20  C   UNL     1      37.384 -14.995  -2.980  1.00  0.00     0.075 C 
ENDBRANCH   9  13
ENDBRANCH   1   7
BRANCH   4  21
HETATM   21  O   UNL     1      43.739 -17.703   4.772  1.00  0.00    -0.292 OA
BRANCH  21  22
HETATM   22  C   UNL     1      44.018 -19.026   5.013  1.00  0.00     0.080 A 
HETATM   23  C   UNL     1      43.657 -19.569   6.243  1.00  0.00     0.079 A 
HETATM   24  C   UNL     1      43.892 -20.919   6.476  1.00  0.00     0.119 A 
HETATM   25  F   UNL     1      43.556 -21.451   7.660  1.00  0.00    -0.206 F 
HETATM   26  C   UNL     1      44.462 -21.730   5.500  1.00  0.00     0.042 A 
HETATM   27  C   UNL     1      44.802 -21.185   4.262  1.00  0.00     0.006 A 
HETATM   28  C   UNL     1      44.571 -19.832   4.013  1.00  0.00     0.037 A 
ENDBRANCH  21  22
ENDBRANCH   4  21
TORSDOF 4
ENDMDL
MODEL 7
REMARK VINA RESULT:      -8.0      2.293      2.822
REMARK  4 active torsions:
REMARK  status: ('A' for Active; 'I' for Inactive)
REMARK    1  A    between atoms: C_8  and  N_9 
REMARK       I    between atoms: N_9  and  C_10 
REMARK       I    between atoms: C_10  and  N_11 
REMARK    2  A    between atoms: N_11  and  C_12 
REMARK    3  A    between atoms: C_15  and  O_16 
REMARK    4  A    between atoms: O_16  and  C_17 
ROOT
HETATM    1  C   UNL     1      42.553 -17.135   1.098  1.00  0.00     0.054 A 
HETATM    2  C   UNL     1      41.849 -17.629   2.193  1.00  0.00     0.149 A 
HETATM    3  N   UNL     1      42.376 -18.465   3.125  1.00  0.00    -0.235 NA
HETATM    4  C   UNL     1      43.667 -18.824   2.968  1.00  0.00     0.169 A 
HETATM    5  C   UNL     1      44.459 -18.376   1.922  1.00  0.00     0.060 A 
HETATM    6  C   UNL     1      43.890 -17.521   0.977  1.00  0.00     0.035 A 
ENDROOT
BRANCH   1   7
HETATM    7  N   UNL     1      42.022 -16.287   0.102  1.00  0.00    -0.307 N 
HETATM    8  C   UNL     1      41.736 -14.936   0.230  1.00  0.00     0.325 C 
HETATM    9  N   UNL     1      41.198 -14.437  -0.942  1.00  0.00    -0.305 N 
HETATM   10  O   UNL     1      41.935 -14.285   1.245  1.00  0.00    -0.247 OA
HETATM   11  H   UNL     1      41.369 -14.960  -1.785  1.00  0.00     0.171 HD
HETATM   12  H   UNL     1      41.724 -16.732  -0.752  1.00  0.00     0.170 HD
BRANCH   9  13
HETATM   13  C   UNL     1      40.631 -13.185  -1.124  1.00  0.00     0.086 A 
HETATM   14  C   UNL     1      41.389 -12.088  -1.493  1.00  0.00     0.052 A 
HETATM   15  C   UNL     1      42.836 -11.911  -1.760  1.00  0.00     0.072 C 
HETATM   16  N   UNL     1      40.516 -11.042  -1.581  1.00  0.00    -0.280 N 
HETATM   17  H   UNL     1      40.714 -10.076  -1.818  1.00  0.00     0.189 HD
HETATM   18  N   UNL     1      39.248 -11.375  -1.329  1.00  0.00    -0.177 NA
HETATM   19  C   UNL     1      39.295 -12.687  -1.052  1.00  0.00     0.079 A 
HETATM   20  C   UNL     1      38.015 -13.384  -0.769  1.00  0.00     0.075 C 
ENDBRANCH   9  13
ENDBRANCH   1   7
BRANCH   4  21
HETATM   21  O   UNL     1      44.278 -19.692   3.868  1.00  0.00    -0.292 OA
BRANCH  21  22
HETATM   22  C   UNL     1      44.209 -19.347   5.195  1.00  0.00     0.080 A 
HETATM   23  C   UNL     1      43.812 -20.315   6.115  1.00  0.00     0.079 A 
HETATM   24  C   UNL     1      43.786 -19.987   7.466  1.00  0.00     0.119 A 
HETATM   25  F   UNL     1      43.398 -20.908   8.359  1.00  0.00    -0.206 F 
HETATM   26  C   UNL     1      44.163 -18.723   7.908  1.00  0.00     0.042 A 
HETATM   27  C   UNL     1      44.579 -17.764   6.984  1.00  0.00     0.006 A 
HETATM   28  C   UNL     1      44.612 -18.079   5.625  1.00  0.00     0.037 A 
ENDBRANCH  21  22
ENDBRANCH   4  21
TORSDOF 4
ENDMDL
MODEL 8
REMARK VINA RESULT:      -8.0      3.177      4.110
REMARK  4 active torsions:
REMARK  status: ('A' for Active; 'I' for Inactive)
REMARK    1  A    between atoms: C_8  and  N_9 
REMARK       I    between atoms: N_9  and  C_10 
REMARK       I    between atoms: C_10  and  N_11 
REMARK    2  A    between atoms: N_11  and  C_12 
REMARK    3  A    between atoms: C_15  and  O_16 
REMARK    4  A    between atoms: O_16  and  C_17 
ROOT
HETATM    1  C   UNL     1      41.432 -16.844   0.808  1.00  0.00     0.054 A 
HETATM    2  C   UNL     1      40.617 -16.737   1.932  1.00  0.00     0.149 A 
HETATM    3  N   UNL     1      40.954 -17.197   3.165  1.00  0.00    -0.235 NA
HETATM    4  C   UNL     1      42.160 -17.788   3.292  1.00  0.00     0.169 A 
HETATM    5  C   UNL     1      43.051 -17.930   2.240  1.00  0.00     0.060 A 
HETATM    6  C   UNL     1      42.678 -17.451   0.983  1.00  0.00     0.035 A 
ENDROOT
BRANCH   1   7
HETATM    7  N   UNL     1      41.097 -16.398  -0.489  1.00  0.00    -0.307 N 
HETATM    8  C   UNL     1      41.059 -15.083  -0.929  1.00  0.00     0.325 C 
HETATM    9  N   UNL     1      40.658 -15.022  -2.251  1.00  0.00    -0.305 N 
HETATM   10  O   UNL     1      41.342 -14.118  -0.235  1.00  0.00    -0.247 OA
HETATM   11  H   UNL     1      40.757 -15.860  -2.801  1.00  0.00     0.171 HD
HETATM   12  H   UNL     1      40.749 -17.098  -1.127  1.00  0.00     0.170 HD
BRANCH   9  13
HETATM   13  C   UNL     1      40.336 -13.878  -2.965  1.00  0.00     0.086 A 
HETATM   14  C   UNL     1      39.042 -13.615  -3.376  1.00  0.00     0.052 A 
HETATM   15  C   UNL     1      37.770 -14.361  -3.227  1.00  0.00     0.072 C 
HETATM   16  N   UNL     1      39.094 -12.422  -4.038  1.00  0.00    -0.280 N 
HETATM   17  H   UNL     1      38.337 -11.919  -4.487  1.00  0.00     0.189 HD
HETATM   18  N   UNL     1      40.310 -11.872  -4.064  1.00  0.00    -0.177 NA
HETATM   19  C   UNL     1      41.086 -12.747  -3.406  1.00  0.00     0.079 A 
HETATM   20  C   UNL     1      42.518 -12.400  -3.217  1.00  0.00     0.075 C 
ENDBRANCH   9  13
ENDBRANCH   1   7
BRANCH   4  21
HETATM   21  O   UNL     1      42.574 -18.302   4.517  1.00  0.00    -0.292 OA
BRANCH  21  22
HETATM   22  C   UNL     1      42.954 -17.389   5.469  1.00  0.00     0.080 A 
HETATM   23  C   UNL     1      42.967 -17.785   6.804  1.00  0.00     0.079 A 
HETATM   24  C   UNL     1      43.398 -16.882   7.769  1.00  0.00     0.119 A 
HETATM   25  F   UNL     1      43.407 -17.248   9.057  1.00  0.00    -0.206 F 
HETATM   26  C   UNL     1      43.827 -15.604   7.419  1.00  0.00     0.042 A 
HETATM   27  C   UNL     1      43.832 -15.221   6.078  1.00  0.00     0.006 A 
HETATM   28  C   UNL     1      43.404 -16.118   5.099  1.00  0.00     0.037 A 
ENDBRANCH  21  22
ENDBRANCH   4  21
TORSDOF 4
ENDMDL
MODEL 9
REMARK VINA RESULT:      -7.8      5.210      6.163
REMARK  4 active torsions:
REMARK  status: ('A' for Active; 'I' for Inactive)
REMARK    1  A    between atoms: C_8  and  N_9 
REMARK       I    between atoms: N_9  and  C_10 
REMARK       I    between atoms: C_10  and  N_11 
REMARK    2  A    between atoms: N_11  and  C_12 
REMARK    3  A    between atoms: C_15  and  O_16 
REMARK    4  A    between atoms: O_16  and  C_17 
ROOT
HETATM    1  C   UNL     1      41.833 -14.787   5.044  1.00  0.00     0.054 A 
HETATM    2  C   UNL     1      41.067 -15.949   5.084  1.00  0.00     0.149 A 
HETATM    3  N   UNL     1      41.201 -16.982   4.212  1.00  0.00    -0.235 NA
HETATM    4  C   UNL     1      42.147 -16.860   3.257  1.00  0.00     0.169 A 
HETATM    5  C   UNL     1      42.972 -15.753   3.141  1.00  0.00     0.060 A 
HETATM    6  C   UNL     1      42.809 -14.705   4.048  1.00  0.00     0.035 A 
ENDROOT
BRANCH   1   7
HETATM    7  N   UNL     1      41.696 -13.689   5.921  1.00  0.00    -0.307 N 
HETATM    8  C   UNL     1      40.560 -12.917   6.110  1.00  0.00     0.325 C 
HETATM    9  N   UNL     1      40.802 -11.907   7.023  1.00  0.00    -0.305 N 
HETATM   10  O   UNL     1      39.495 -13.110   5.542  1.00  0.00    -0.247 OA
HETATM   11  H   UNL     1      41.583 -12.029   7.647  1.00  0.00     0.171 HD
HETATM   12  H   UNL     1      42.539 -13.371   6.375  1.00  0.00     0.170 HD
BRANCH   9  13
HETATM   13  C   UNL     1      39.963 -10.844   7.322  1.00  0.00     0.086 A 
HETATM   14  C   UNL     1      39.608 -10.539   8.623  1.00  0.00     0.052 A 
HETATM   15  C   UNL     1      39.941 -11.161   9.927  1.00  0.00     0.072 C 
HETATM   16  N   UNL     1      38.788  -9.451   8.542  1.00  0.00    -0.280 N 
HETATM   17  H   UNL     1      38.326  -8.954   9.296  1.00  0.00     0.189 HD
HETATM   18  N   UNL     1      38.606  -9.003   7.298  1.00  0.00    -0.177 NA
HETATM   19  C   UNL     1      39.324  -9.841   6.534  1.00  0.00     0.079 A 
HETATM   20  C   UNL     1      39.368  -9.582   5.072  1.00  0.00     0.075 C 
ENDBRANCH   9  13
ENDBRANCH   1   7
BRANCH   4  21
HETATM   21  O   UNL     1      42.337 -17.866   2.313  1.00  0.00    -0.292 OA
BRANCH  21  22
HETATM   22  C   UNL     1      43.089 -18.944   2.710  1.00  0.00     0.080 A 
HETATM   23  C   UNL     1      43.198 -20.033   1.847  1.00  0.00     0.079 A 
HETATM   24  C   UNL     1      43.996 -21.108   2.220  1.00  0.00     0.119 A 
HETATM   25  F   UNL     1      44.102 -22.164   1.402  1.00  0.00    -0.206 F 
HETATM   26  C   UNL     1      44.694 -21.104   3.424  1.00  0.00     0.042 A 
HETATM   27  C   UNL     1      44.597 -20.002   4.274  1.00  0.00     0.006 A 
HETATM   28  C   UNL     1      43.801 -18.915   3.912  1.00  0.00     0.037 A 
ENDBRANCH  21  22
ENDBRANCH   4  21
TORSDOF 4
ENDMDL
MODEL 10
REMARK VINA RESULT:      -7.6      2.560      3.329
REMARK  4 active torsions:
REMARK  status: ('A' for Active; 'I' for Inactive)
REMARK    1  A    between atoms: C_8  and  N_9 
REMARK       I    between atoms: N_9  and  C_10 
REMARK       I    between atoms: C_10  and  N_11 
REMARK    2  A    between atoms: N_11  and  C_12 
REMARK    3  A    between atoms: C_15  and  O_16 
REMARK    4  A    between atoms: O_16  and  C_17 
ROOT
HETATM    1  C   UNL     1      41.813 -15.714   0.731  1.00  0.00     0.054 A 
HETATM    2  C   UNL     1      42.340 -15.087   1.857  1.00  0.00     0.149 A 
HETATM    3  N   UNL     1      42.291 -15.604   3.112  1.00  0.00    -0.235 NA
HETATM    4  C   UNL     1      41.697 -16.807   3.257  1.00  0.00     0.169 A 
HETATM    5  C   UNL     1      41.156 -17.520   2.199  1.00  0.00     0.060 A 
HETATM    6  C   UNL     1      41.217 -16.963   0.921  1.00  0.00     0.035 A 
ENDROOT
BRANCH   1   7
HETATM    7  N   UNL     1      41.827 -15.188  -0.579  1.00  0.00    -0.307 N 
HETATM    8  C   UNL     1      41.174 -14.045  -1.019  1.00  0.00     0.325 C 
HETATM    9  N   UNL     1      41.388 -13.852  -2.372  1.00  0.00    -0.305 N 
HETATM   10  O   UNL     1      40.504 -13.317  -0.302  1.00  0.00    -0.247 OA
HETATM   11  H   UNL     1      42.185 -14.311  -2.782  1.00  0.00     0.171 HD
HETATM   12  H   UNL     1      42.269 -15.756  -1.285  1.00  0.00     0.170 HD
BRANCH   9  13
HETATM   13  C   UNL     1      40.754 -12.925  -3.184  1.00  0.00     0.086 A 
HETATM   14  C   UNL     1      39.439 -13.083  -3.582  1.00  0.00     0.052 A 
HETATM   15  C   UNL     1      38.432 -14.141  -3.325  1.00  0.00     0.072 C 
HETATM   16  N   UNL     1      39.149 -11.998  -4.358  1.00  0.00    -0.280 N 
HETATM   17  H   UNL     1      38.280 -11.779  -4.833  1.00  0.00     0.189 HD
HETATM   18  N   UNL     1      40.158 -11.131  -4.473  1.00  0.00    -0.177 NA
HETATM   19  C   UNL     1      41.150 -11.678  -3.755  1.00  0.00     0.079 A 
HETATM   20  C   UNL     1      42.424 -10.921  -3.641  1.00  0.00     0.075 C 
ENDBRANCH   9  13
ENDBRANCH   1   7
BRANCH   4  21
HETATM   21  O   UNL     1      41.589 -17.399   4.512  1.00  0.00    -0.292 OA
BRANCH  21  22
HETATM   22  C   UNL     1      42.766 -17.703   5.150  1.00  0.00     0.080 A 
HETATM   23  C   UNL     1      43.549 -18.738   4.643  1.00  0.00     0.079 A 
HETATM   24  C   UNL     1      44.766 -19.021   5.253  1.00  0.00     0.119 A 
HETATM   25  F   UNL     1      45.524 -20.019   4.779  1.00  0.00    -0.206 F 
HETATM   26  C   UNL     1      45.215 -18.280   6.343  1.00  0.00     0.042 A 
HETATM   27  C   UNL     1      44.436 -17.232   6.832  1.00  0.00     0.006 A 
HETATM   28  C   UNL     1      43.213 -16.935   6.229  1.00  0.00     0.037 A 
ENDBRANCH  21  22
ENDBRANCH   4  21
TORSDOF 4
ENDMDL
