MODEL 1
REMARK VINA RESULT:      -8.3      0.000      0.000
REMARK  6 active torsions:
REMARK  status: ('A' for Active; 'I' for Inactive)
REMARK    1  A    between atoms: C_2  and  C_3 
REMARK    2  A    between atoms: C_7  and  O_8 
REMARK    3  A    between atoms: O_8  and  C_9 
REMARK    4  A    between atoms: C_9  and  C_10 
REMARK       I    between atoms: C_10  and  N_11 
REMARK    5  A    between atoms: N_11  and  N_12 
REMARK    6  A    between atoms: C_13  and  C_14 
ROOT
HETATM    1  C   UNL     1      41.179 -16.057   0.593  1.00  0.00     0.261 C 
HETATM    2  N   UNL     1      42.327 -16.807   0.670  1.00  0.00    -0.246 N 
HETATM    3  O   UNL     1      41.034 -15.248  -0.327  1.00  0.00    -0.269 OA
HETATM    4  H   UNL     1      42.993 -16.684  -0.085  1.00  0.00     0.192 HD
ENDROOT
BRANCH   1   5
HETATM    5  C   UNL     1      40.138 -16.227   1.695  1.00  0.00     0.280 C 
BRANCH   5   6
HETATM    6  O   UNL     1      40.178 -15.122   2.590  1.00  0.00    -0.341 OA
BRANCH   6   7
HETATM    7  C   UNL     1      41.055 -15.201   3.639  1.00  0.00     0.086 A 
HETATM    8  C   UNL     1      42.129 -14.301   3.648  1.00  0.00     0.044 A 
HETATM    9  C   UNL     1      43.094 -14.346   4.661  1.00  0.00     0.029 A 
HETATM   10 BR   UNL     1      42.324 -12.975   2.298  1.00  0.00    -0.048 Br
HETATM   11  C   UNL     1      43.012 -15.295   5.690  1.00  0.00    -0.053 A 
HETATM   12  C   UNL     1      41.941 -16.198   5.673  1.00  0.00     0.010 A 
HETATM   13  C   UNL     1      40.972 -16.149   4.663  1.00  0.00     0.039 A 
BRANCH  11  14
HETATM   14  C   UNL     1      44.099 -15.351   6.749  1.00  0.00     0.010 C 
HETATM   15  C   UNL     1      43.718 -16.340   7.854  1.00  0.00     0.015 C 
HETATM   16  C   UNL     1      44.436 -13.980   7.344  1.00  0.00     0.015 C 
ENDBRANCH  11  14
ENDBRANCH   6   7
ENDBRANCH   5   6
ENDBRANCH   1   5
BRANCH   2  17
HETATM   17  N   UNL     1      42.552 -17.710   1.664  1.00  0.00    -0.184 NA
HETATM   18  C   UNL     1      43.734 -17.659   2.191  1.00  0.00     0.152 C 
BRANCH  18  19
HETATM   19  C   UNL     1      44.095 -18.594   3.235  1.00  0.00     0.011 A 
HETATM   20  C   UNL     1      44.252 -20.012   3.113  1.00  0.00     0.004 A 
HETATM   21  C   UNL     1      44.590 -20.504   4.375  1.00  0.00     0.043 A 
HETATM   22  C   UNL     1      44.141 -20.929   2.045  1.00  0.00     0.014 A 
HETATM   23  C   UNL     1      44.819 -21.863   4.623  1.00  0.00     0.030 A 
HETATM   24  N   UNL     1      44.633 -19.429   5.231  1.00  0.00    -0.364 N 
HETATM   25  C   UNL     1      44.704 -22.748   3.547  1.00  0.00     0.002 A 
HETATM   26  C   UNL     1      44.371 -22.290   2.276  1.00  0.00     0.001 A 
HETATM   27  H   UNL     1      44.847 -19.489   6.218  1.00  0.00     0.165 HD
HETATM   28  C   UNL     1      44.344 -18.276   4.557  1.00  0.00     0.102 A 
ENDBRANCH  18  19
ENDBRANCH   2  17
TORSDOF 6
ENDMDL
MODEL 2
REMARK VINA RESULT:      -8.0      3.048      6.093
REMARK  6 active torsions:
REMARK  status: ('A' for Active; 'I' for Inactive)
REMARK    1  A    between atoms: C_2  and  C_3 
REMARK    2  A    between atoms: C_7  and  O_8 
REMARK    3  A    between atoms: O_8  and  C_9 
REMARK    4  A    between atoms: C_9  and  C_10 
REMARK       I    between atoms: C_10  and  N_11 
REMARK    5  A    between atoms: N_11  and  N_12 
REMARK    6  A    between atoms: C_13  and  C_14 
ROOT
HETATM    1  C   UNL     1      44.068 -13.520   7.341  1.00  0.00     0.261 C 
HETATM    2  N   UNL     1      43.011 -13.076   6.585  1.00  0.00    -0.246 N 
HETATM    3  O   UNL     1      44.480 -12.834   8.280  1.00  0.00    -0.269 OA
HETATM    4  H   UNL     1      42.584 -12.203   6.878  1.00  0.00     0.192 HD
ENDROOT
BRANCH   1   5
HETATM    5  C   UNL     1      44.724 -14.839   6.949  1.00  0.00     0.280 C 
BRANCH   5   6
HETATM    6  O   UNL     1      43.863 -15.930   7.252  1.00  0.00    -0.341 OA
BRANCH   6   7
HETATM    7  C   UNL     1      44.018 -17.072   6.512  1.00  0.00     0.086 A 
HETATM    8  C   UNL     1      42.861 -17.651   5.975  1.00  0.00     0.044 A 
HETATM    9  C   UNL     1      42.928 -18.844   5.245  1.00  0.00     0.029 A 
HETATM   10 BR   UNL     1      41.152 -16.846   6.199  1.00  0.00    -0.048 Br
HETATM   11  C   UNL     1      44.155 -19.491   5.038  1.00  0.00    -0.053 A 
HETATM   12  C   UNL     1      45.308 -18.912   5.584  1.00  0.00     0.010 A 
HETATM   13  C   UNL     1      45.241 -17.716   6.308  1.00  0.00     0.039 A 
BRANCH  11  14
HETATM   14  C   UNL     1      44.191 -20.809   4.284  1.00  0.00     0.010 C 
HETATM   15  C   UNL     1      45.003 -21.848   5.062  1.00  0.00     0.015 C 
HETATM   16  C   UNL     1      44.721 -20.672   2.853  1.00  0.00     0.015 C 
ENDBRANCH  11  14
ENDBRANCH   6   7
ENDBRANCH   5   6
ENDBRANCH   1   5
BRANCH   2  17
HETATM   17  N   UNL     1      42.513 -13.778   5.530  1.00  0.00    -0.184 NA
HETATM   18  C   UNL     1      42.739 -13.255   4.368  1.00  0.00     0.152 C 
BRANCH  18  19
HETATM   19  C   UNL     1      42.228 -13.900   3.177  1.00  0.00     0.011 A 
HETATM   20  C   UNL     1      42.705 -15.108   2.573  1.00  0.00     0.004 A 
HETATM   21  C   UNL     1      41.925 -15.342   1.439  1.00  0.00     0.043 A 
HETATM   22  C   UNL     1      43.726 -16.031   2.885  1.00  0.00     0.014 A 
HETATM   23  C   UNL     1      42.117 -16.448   0.602  1.00  0.00     0.030 A 
HETATM   24  N   UNL     1      41.013 -14.316   1.354  1.00  0.00    -0.364 N 
HETATM   25  C   UNL     1      43.134 -17.346   0.935  1.00  0.00     0.002 A 
HETATM   26  C   UNL     1      43.929 -17.143   2.060  1.00  0.00     0.001 A 
HETATM   27  H   UNL     1      40.322 -14.221   0.623  1.00  0.00     0.165 HD
HETATM   28  C   UNL     1      41.183 -13.447   2.396  1.00  0.00     0.102 A 
ENDBRANCH  18  19
ENDBRANCH   2  17
TORSDOF 6
ENDMDL
MODEL 3
REMARK VINA RESULT:      -8.0      3.321      7.352
REMARK  6 active torsions:
REMARK  status: ('A' for Active; 'I' for Inactive)
REMARK    1  A    between atoms: C_2  and  C_3 
REMARK    2  A    between atoms: C_7  and  O_8 
REMARK    3  A    between atoms: O_8  and  C_9 
REMARK    4  A    between atoms: C_9  and  C_10 
REMARK       I    between atoms: C_10  and  N_11 
REMARK    5  A    between atoms: N_11  and  N_12 
REMARK    6  A    between atoms: C_13  and  C_14 
ROOT
HETATM    1  C   UNL     1      43.095 -13.869   3.069  1.00  0.00     0.261 C 
HETATM    2  N   UNL     1      42.492 -12.903   2.302  1.00  0.00    -0.246 N 
HETATM    3  O   UNL     1      44.174 -13.631   3.618  1.00  0.00    -0.269 OA
HETATM    4  H   UNL     1      42.958 -12.002   2.266  1.00  0.00     0.192 HD
ENDROOT
BRANCH   1   5
HETATM    5  C   UNL     1      42.415 -15.230   3.171  1.00  0.00     0.280 C 
BRANCH   5   6
HETATM    6  O   UNL     1      43.108 -16.062   4.092  1.00  0.00    -0.341 OA
BRANCH   6   7
HETATM    7  C   UNL     1      43.402 -17.336   3.684  1.00  0.00     0.086 A 
HETATM    8  C   UNL     1      44.045 -18.174   4.605  1.00  0.00     0.044 A 
HETATM    9  C   UNL     1      44.421 -19.475   4.250  1.00  0.00     0.029 A 
HETATM   10 BR   UNL     1      44.429 -17.593   6.374  1.00  0.00    -0.048 Br
HETATM   11  C   UNL     1      44.166 -19.971   2.964  1.00  0.00    -0.053 A 
HETATM   12  C   UNL     1      43.530 -19.127   2.044  1.00  0.00     0.010 A 
HETATM   13  C   UNL     1      43.148 -17.828   2.401  1.00  0.00     0.039 A 
BRANCH  11  14
HETATM   14  C   UNL     1      44.628 -21.369   2.592  1.00  0.00     0.010 C 
HETATM   15  C   UNL     1      43.813 -21.905   1.412  1.00  0.00     0.015 C 
HETATM   16  C   UNL     1      44.586 -22.352   3.767  1.00  0.00     0.015 C 
ENDBRANCH  11  14
ENDBRANCH   6   7
ENDBRANCH   5   6
ENDBRANCH   1   5
BRANCH   2  17
HETATM   17  N   UNL     1      41.306 -13.103   1.663  1.00  0.00    -0.184 NA
HETATM   18  C   UNL     1      41.384 -13.165   0.372  1.00  0.00     0.152 C 
BRANCH  18  19
HETATM   19  C   UNL     1      40.181 -13.344  -0.413  1.00  0.00     0.011 A 
HETATM   20  C   UNL     1      40.004 -14.206  -1.543  1.00  0.00     0.004 A 
HETATM   21  C   UNL     1      38.691 -14.041  -1.989  1.00  0.00     0.043 A 
HETATM   22  C   UNL     1      40.835 -15.117  -2.229  1.00  0.00     0.014 A 
HETATM   23  C   UNL     1      38.171 -14.738  -3.087  1.00  0.00     0.030 A 
HETATM   24  N   UNL     1      38.096 -13.113  -1.167  1.00  0.00    -0.364 N 
HETATM   25  C   UNL     1      39.016 -15.634  -3.747  1.00  0.00     0.002 A 
HETATM   26  C   UNL     1      40.329 -15.824  -3.326  1.00  0.00     0.001 A 
HETATM   27  H   UNL     1      37.142 -12.791  -1.261  1.00  0.00     0.165 HD
HETATM   28  C   UNL     1      38.980 -12.692  -0.214  1.00  0.00     0.102 A 
ENDBRANCH  18  19
ENDBRANCH   2  17
TORSDOF 6
ENDMDL
MODEL 4
REMARK VINA RESULT:      -8.0      2.519      5.369
REMARK  6 active torsions:
REMARK  status: ('A' for Active; 'I' for Inactive)
REMARK    1  A    between atoms: C_2  and  C_3 
REMARK    2  A    between atoms: C_7  and  O_8 
REMARK    3  A    between atoms: O_8  and  C_9 
REMARK    4  A    between atoms: C_9  and  C_10 
REMARK       I    between atoms: C_10  and  N_11 
REMARK    5  A    between atoms: N_11  and  N_12 
REMARK    6  A    between atoms: C_13  and  C_14 
ROOT
HETATM    1  C   UNL     1      40.100 -14.748   5.250  1.00  0.00     0.261 C 
HETATM    2  N   UNL     1      40.231 -15.810   6.111  1.00  0.00    -0.246 N 
HETATM    3  O   UNL     1      39.452 -13.756   5.594  1.00  0.00    -0.269 OA
HETATM    4  H   UNL     1      39.814 -15.697   7.029  1.00  0.00     0.192 HD
ENDROOT
BRANCH   1   5
HETATM    5  C   UNL     1      40.733 -14.864   3.868  1.00  0.00     0.280 C 
BRANCH   5   6
HETATM    6  O   UNL     1      39.741 -15.155   2.892  1.00  0.00    -0.341 OA
BRANCH   6   7
HETATM    7  C   UNL     1      40.148 -15.217   1.586  1.00  0.00     0.086 A 
HETATM    8  C   UNL     1      39.586 -14.296   0.693  1.00  0.00     0.044 A 
HETATM    9  C   UNL     1      39.915 -14.323  -0.668  1.00  0.00     0.029 A 
HETATM   10 BR   UNL     1      38.360 -12.966   1.280  1.00  0.00    -0.048 Br
HETATM   11  C   UNL     1      40.814 -15.275  -1.171  1.00  0.00    -0.053 A 
HETATM   12  C   UNL     1      41.368 -16.198  -0.275  1.00  0.00     0.010 A 
HETATM   13  C   UNL     1      41.043 -16.168   1.086  1.00  0.00     0.039 A 
BRANCH  11  14
HETATM   14  C   UNL     1      41.116 -15.311  -2.659  1.00  0.00     0.010 C 
HETATM   15  C   UNL     1      41.542 -13.925  -3.151  1.00  0.00     0.015 C 
HETATM   16  C   UNL     1      39.953 -15.847  -3.500  1.00  0.00     0.015 C 
ENDBRANCH  11  14
ENDBRANCH   6   7
ENDBRANCH   5   6
ENDBRANCH   1   5
BRANCH   2  17
HETATM   17  N   UNL     1      40.925 -16.936   5.791  1.00  0.00    -0.184 NA
HETATM   18  C   UNL     1      42.112 -17.012   6.302  1.00  0.00     0.152 C 
BRANCH  18  19
HETATM   19  C   UNL     1      42.953 -18.152   6.004  1.00  0.00     0.011 A 
HETATM   20  C   UNL     1      43.319 -18.643   4.709  1.00  0.00     0.004 A 
HETATM   21  C   UNL     1      44.125 -19.766   4.903  1.00  0.00     0.043 A 
HETATM   22  C   UNL     1      43.043 -18.237   3.386  1.00  0.00     0.014 A 
HETATM   23  C   UNL     1      44.667 -20.503   3.843  1.00  0.00     0.030 A 
HETATM   24  N   UNL     1      44.242 -19.953   6.261  1.00  0.00    -0.364 N 
HETATM   25  C   UNL     1      44.378 -20.079   2.543  1.00  0.00     0.002 A 
HETATM   26  C   UNL     1      43.579 -18.962   2.315  1.00  0.00     0.001 A 
HETATM   27  H   UNL     1      44.766 -20.700   6.695  1.00  0.00     0.165 HD
HETATM   28  C   UNL     1      43.547 -18.986   6.931  1.00  0.00     0.102 A 
ENDBRANCH  18  19
ENDBRANCH   2  17
TORSDOF 6
ENDMDL
MODEL 5
REMARK VINA RESULT:      -8.0      3.694      7.756
REMARK  6 active torsions:
REMARK  status: ('A' for Active; 'I' for Inactive)
REMARK    1  A    between atoms: C_2  and  C_3 
REMARK    2  A    between atoms: C_7  and  O_8 
REMARK    3  A    between atoms: O_8  and  C_9 
REMARK    4  A    between atoms: C_9  and  C_10 
REMARK       I    between atoms: C_10  and  N_11 
REMARK    5  A    between atoms: N_11  and  N_12 
REMARK    6  A    between atoms: C_13  and  C_14 
ROOT
HETATM    1  C   UNL     1      42.840 -13.955   4.523  1.00  0.00     0.261 C 
HETATM    2  N   UNL     1      42.566 -12.931   3.650  1.00  0.00    -0.246 N 
HETATM    3  O   UNL     1      42.621 -13.809   5.728  1.00  0.00    -0.269 OA
HETATM    4  H   UNL     1      42.141 -12.102   4.051  1.00  0.00     0.192 HD
ENDROOT
BRANCH   1   5
HETATM    5  C   UNL     1      43.458 -15.230   3.959  1.00  0.00     0.280 C 
BRANCH   5   6
HETATM    6  O   UNL     1      42.929 -16.372   4.621  1.00  0.00    -0.341 OA
BRANCH   6   7
HETATM    7  C   UNL     1      43.265 -17.599   4.116  1.00  0.00     0.086 A 
HETATM    8  C   UNL     1      44.151 -18.383   4.867  1.00  0.00     0.044 A 
HETATM    9  C   UNL     1      44.581 -19.630   4.398  1.00  0.00     0.029 A 
HETATM   10 BR   UNL     1      44.803 -17.800   6.556  1.00  0.00    -0.048 Br
HETATM   11  C   UNL     1      44.138 -20.125   3.163  1.00  0.00    -0.053 A 
HETATM   12  C   UNL     1      43.258 -19.334   2.411  1.00  0.00     0.010 A 
HETATM   13  C   UNL     1      42.824 -18.089   2.884  1.00  0.00     0.039 A 
BRANCH  11  14
HETATM   14  C   UNL     1      44.657 -21.459   2.657  1.00  0.00     0.010 C 
HETATM   15  C   UNL     1      43.888 -21.893   1.407  1.00  0.00     0.015 C 
HETATM   16  C   UNL     1      44.626 -22.562   3.720  1.00  0.00     0.015 C 
ENDBRANCH  11  14
ENDBRANCH   6   7
ENDBRANCH   5   6
ENDBRANCH   1   5
BRANCH   2  17
HETATM   17  N   UNL     1      42.792 -13.024   2.311  1.00  0.00    -0.184 NA
HETATM   18  C   UNL     1      41.727 -13.053   1.576  1.00  0.00     0.152 C 
BRANCH  18  19
HETATM   19  C   UNL     1      41.847 -13.182   0.139  1.00  0.00     0.011 A 
HETATM   20  C   UNL     1      42.201 -12.158  -0.796  1.00  0.00     0.004 A 
HETATM   21  C   UNL     1      42.177 -12.731  -2.069  1.00  0.00     0.043 A 
HETATM   22  C   UNL     1      42.545 -10.793  -0.682  1.00  0.00     0.014 A 
HETATM   23  C   UNL     1      42.476 -12.009  -3.231  1.00  0.00     0.030 A 
HETATM   24  N   UNL     1      41.820 -14.050  -1.914  1.00  0.00    -0.364 N 
HETATM   25  C   UNL     1      42.813 -10.660  -3.089  1.00  0.00     0.002 A 
HETATM   26  C   UNL     1      42.848 -10.059  -1.835  1.00  0.00     0.001 A 
HETATM   27  H   UNL     1      41.715 -14.709  -2.673  1.00  0.00     0.165 HD
HETATM   28  C   UNL     1      41.624 -14.333  -0.591  1.00  0.00     0.102 A 
ENDBRANCH  18  19
ENDBRANCH   2  17
TORSDOF 6
ENDMDL
MODEL 6
REMARK VINA RESULT:      -8.0      2.646      5.126
REMARK  6 active torsions:
REMARK  status: ('A' for Active; 'I' for Inactive)
REMARK    1  A    between atoms: C_2  and  C_3 
REMARK    2  A    between atoms: C_7  and  O_8 
REMARK    3  A    between atoms: O_8  and  C_9 
REMARK    4  A    between atoms: C_9  and  C_10 
REMARK       I    between atoms: C_10  and  N_11 
REMARK    5  A    between atoms: N_11  and  N_12 
REMARK    6  A    between atoms: C_13  and  C_14 
ROOT
HETATM    1  C   UNL     1      44.408 -14.505   7.197  1.00  0.00     0.261 C 
HETATM    2  N   UNL     1      44.218 -15.846   7.429  1.00  0.00    -0.246 N 
HETATM    3  O   UNL     1      44.679 -13.754   8.137  1.00  0.00    -0.269 OA
HETATM    4  H   UNL     1      44.363 -16.162   8.382  1.00  0.00     0.192 HD
ENDROOT
BRANCH   1   5
HETATM    5  C   UNL     1      44.224 -13.991   5.773  1.00  0.00     0.280 C 
BRANCH   5   6
HETATM    6  O   UNL     1      42.893 -13.532   5.580  1.00  0.00    -0.341 OA
BRANCH   6   7
HETATM    7  C   UNL     1      42.307 -13.803   4.372  1.00  0.00     0.086 A 
HETATM    8  C   UNL     1      41.241 -14.712   4.365  1.00  0.00     0.044 A 
HETATM    9  C   UNL     1      40.619 -15.078   3.165  1.00  0.00     0.029 A 
HETATM   10 BR   UNL     1      40.583 -15.483   5.974  1.00  0.00    -0.048 Br
HETATM   11  C   UNL     1      41.049 -14.547   1.941  1.00  0.00    -0.053 A 
HETATM   12  C   UNL     1      42.121 -13.644   1.953  1.00  0.00     0.010 A 
HETATM   13  C   UNL     1      42.739 -13.274   3.153  1.00  0.00     0.039 A 
BRANCH  11  14
HETATM   14  C   UNL     1      40.387 -14.998   0.651  1.00  0.00     0.010 C 
HETATM   15  C   UNL     1      41.418 -15.082  -0.478  1.00  0.00     0.015 C 
HETATM   16  C   UNL     1      39.204 -14.116   0.237  1.00  0.00     0.015 C 
ENDBRANCH  11  14
ENDBRANCH   6   7
ENDBRANCH   5   6
ENDBRANCH   1   5
BRANCH   2  17
HETATM   17  N   UNL     1      43.908 -16.728   6.438  1.00  0.00    -0.184 NA
HETATM   18  C   UNL     1      44.762 -17.687   6.272  1.00  0.00     0.152 C 
BRANCH  18  19
HETATM   19  C   UNL     1      44.550 -18.665   5.227  1.00  0.00     0.011 A 
HETATM   20  C   UNL     1      44.084 -18.423   3.895  1.00  0.00     0.004 A 
HETATM   21  C   UNL     1      44.019 -19.657   3.246  1.00  0.00     0.043 A 
HETATM   22  C   UNL     1      43.713 -17.267   3.174  1.00  0.00     0.014 A 
HETATM   23  C   UNL     1      43.599 -19.794   1.917  1.00  0.00     0.030 A 
HETATM   24  N   UNL     1      44.425 -20.612   4.148  1.00  0.00    -0.364 N 
HETATM   25  C   UNL     1      43.239 -18.633   1.227  1.00  0.00     0.002 A 
HETATM   26  C   UNL     1      43.294 -17.387   1.844  1.00  0.00     0.001 A 
HETATM   27  H   UNL     1      44.471 -21.603   3.954  1.00  0.00     0.165 HD
HETATM   28  C   UNL     1      44.752 -20.027   5.339  1.00  0.00     0.102 A 
ENDBRANCH  18  19
ENDBRANCH   2  17
TORSDOF 6
ENDMDL
MODEL 7
REMARK VINA RESULT:      -7.9      3.128      7.323
REMARK  6 active torsions:
REMARK  status: ('A' for Active; 'I' for Inactive)
REMARK    1  A    between atoms: C_2  and  C_3 
REMARK    2  A    between atoms: C_7  and  O_8 
REMARK    3  A    between atoms: O_8  and  C_9 
REMARK    4  A    between atoms: C_9  and  C_10 
REMARK       I    between atoms: C_10  and  N_11 
REMARK    5  A    between atoms: N_11  and  N_12 
REMARK    6  A    between atoms: C_13  and  C_14 
ROOT
HETATM    1  C   UNL     1      41.203 -15.885   4.481  1.00  0.00     0.261 C 
HETATM    2  N   UNL     1      40.504 -15.961   3.301  1.00  0.00    -0.246 N 
HETATM    3  O   UNL     1      40.623 -16.083   5.551  1.00  0.00    -0.269 OA
HETATM    4  H   UNL     1      39.529 -16.230   3.375  1.00  0.00     0.192 HD
ENDROOT
BRANCH   1   5
HETATM    5  C   UNL     1      42.679 -15.508   4.415  1.00  0.00     0.280 C 
BRANCH   5   6
HETATM    6  O   UNL     1      43.466 -16.458   5.121  1.00  0.00    -0.341 OA
BRANCH   6   7
HETATM    7  C   UNL     1      43.712 -17.652   4.498  1.00  0.00     0.086 A 
HETATM    8  C   UNL     1      44.048 -18.744   5.309  1.00  0.00     0.044 A 
HETATM    9  C   UNL     1      44.359 -19.988   4.746  1.00  0.00     0.029 A 
HETATM   10 BR   UNL     1      44.089 -18.596   7.205  1.00  0.00    -0.048 Br
HETATM   11  C   UNL     1      44.346 -20.171   3.356  1.00  0.00    -0.053 A 
HETATM   12  C   UNL     1      44.017 -19.074   2.548  1.00  0.00     0.010 A 
HETATM   13  C   UNL     1      43.700 -17.832   3.111  1.00  0.00     0.039 A 
BRANCH  11  14
HETATM   14  C   UNL     1      44.734 -21.517   2.771  1.00  0.00     0.010 C 
HETATM   15  C   UNL     1      43.901 -21.817   1.522  1.00  0.00     0.015 C 
HETATM   16  C   UNL     1      44.628 -22.667   3.778  1.00  0.00     0.015 C 
ENDBRANCH  11  14
ENDBRANCH   6   7
ENDBRANCH   5   6
ENDBRANCH   1   5
BRANCH   2  17
HETATM   17  N   UNL     1      41.081 -15.746   2.087  1.00  0.00    -0.184 NA
HETATM   18  C   UNL     1      40.574 -14.770   1.405  1.00  0.00     0.152 C 
BRANCH  18  19
HETATM   19  C   UNL     1      41.088 -14.471   0.085  1.00  0.00     0.011 A 
HETATM   20  C   UNL     1      41.702 -13.252  -0.350  1.00  0.00     0.004 A 
HETATM   21  C   UNL     1      42.027 -13.409  -1.699  1.00  0.00     0.043 A 
HETATM   22  C   UNL     1      42.017 -12.028   0.277  1.00  0.00     0.014 A 
HETATM   23  C   UNL     1      42.647 -12.403  -2.451  1.00  0.00     0.030 A 
HETATM   24  N   UNL     1      41.623 -14.670  -2.070  1.00  0.00    -0.364 N 
HETATM   25  C   UNL     1      42.948 -11.201  -1.805  1.00  0.00     0.002 A 
HETATM   26  C   UNL     1      42.639 -11.013  -0.461  1.00  0.00     0.001 A 
HETATM   27  H   UNL     1      41.727 -15.056  -2.998  1.00  0.00     0.165 HD
HETATM   28  C   UNL     1      41.063 -15.319  -1.005  1.00  0.00     0.102 A 
ENDBRANCH  18  19
ENDBRANCH   2  17
TORSDOF 6
ENDMDL
MODEL 8
REMARK VINA RESULT:      -7.9      6.223      8.284
REMARK  6 active torsions:
REMARK  status: ('A' for Active; 'I' for Inactive)
REMARK    1  A    between atoms: C_2  and  C_3 
REMARK    2  A    between atoms: C_7  and  O_8 
REMARK    3  A    between atoms: O_8  and  C_9 
REMARK    4  A    between atoms: C_9  and  C_10 
REMARK       I    between atoms: C_10  and  N_11 
REMARK    5  A    between atoms: N_11  and  N_12 
REMARK    6  A    between atoms: C_13  and  C_14 
ROOT
HETATM    1  C   UNL     1      45.351 -11.689   8.939  1.00  0.00     0.261 C 
HETATM    2  N   UNL     1      45.681 -12.779   8.172  1.00  0.00    -0.246 N 
HETATM    3  O   UNL     1      46.199 -10.824   9.172  1.00  0.00    -0.269 OA
HETATM    4  H   UNL     1      46.621 -12.790   7.789  1.00  0.00     0.192 HD
ENDROOT
BRANCH   1   5
HETATM    5  C   UNL     1      43.941 -11.620   9.515  1.00  0.00     0.280 C 
BRANCH   5   6
HETATM    6  O   UNL     1      43.541 -10.266   9.685  1.00  0.00    -0.341 OA
BRANCH   6   7
HETATM    7  C   UNL     1      43.164  -9.880  10.943  1.00  0.00     0.086 A 
HETATM    8  C   UNL     1      42.009  -9.095  11.055  1.00  0.00     0.044 A 
HETATM    9  C   UNL     1      41.581  -8.620  12.301  1.00  0.00     0.029 A 
HETATM   10 BR   UNL     1      40.964  -8.644   9.531  1.00  0.00    -0.048 Br
HETATM   11  C   UNL     1      42.301  -8.916  13.468  1.00  0.00    -0.053 A 
HETATM   12  C   UNL     1      43.459  -9.695  13.350  1.00  0.00     0.010 A 
HETATM   13  C   UNL     1      43.883 -10.175  12.105  1.00  0.00     0.039 A 
BRANCH  11  14
HETATM   14  C   UNL     1      41.841  -8.348  14.799  1.00  0.00     0.010 C 
HETATM   15  C   UNL     1      41.783  -9.451  15.859  1.00  0.00     0.015 C 
HETATM   16  C   UNL     1      40.499  -7.613  14.712  1.00  0.00     0.015 C 
ENDBRANCH  11  14
ENDBRANCH   6   7
ENDBRANCH   5   6
ENDBRANCH   1   5
BRANCH   2  17
HETATM   17  N   UNL     1      44.796 -13.773   7.884  1.00  0.00    -0.184 NA
HETATM   18  C   UNL     1      44.610 -13.991   6.621  1.00  0.00     0.152 C 
BRANCH  18  19
HETATM   19  C   UNL     1      43.666 -15.004   6.198  1.00  0.00     0.011 A 
HETATM   20  C   UNL     1      43.881 -16.418   6.138  1.00  0.00     0.004 A 
HETATM   21  C   UNL     1      42.705 -16.998   5.659  1.00  0.00     0.043 A 
HETATM   22  C   UNL     1      44.966 -17.265   6.451  1.00  0.00     0.014 A 
HETATM   23  C   UNL     1      42.561 -18.379   5.474  1.00  0.00     0.030 A 
HETATM   24  N   UNL     1      41.812 -15.977   5.432  1.00  0.00    -0.364 N 
HETATM   25  C   UNL     1      43.651 -19.194   5.792  1.00  0.00     0.002 A 
HETATM   26  C   UNL     1      44.837 -18.648   6.274  1.00  0.00     0.001 A 
HETATM   27  H   UNL     1      40.876 -16.103   5.074  1.00  0.00     0.165 HD
HETATM   28  C   UNL     1      42.377 -14.776   5.757  1.00  0.00     0.102 A 
ENDBRANCH  18  19
ENDBRANCH   2  17
TORSDOF 6
ENDMDL
MODEL 9
REMARK VINA RESULT:      -7.8      1.640      2.356
REMARK  6 active torsions:
REMARK  status: ('A' for Active; 'I' for Inactive)
REMARK    1  A    between atoms: C_2  and  C_3 
REMARK    2  A    between atoms: C_7  and  O_8 
REMARK    3  A    between atoms: O_8  and  C_9 
REMARK    4  A    between atoms: C_9  and  C_10 
REMARK       I    between atoms: C_10  and  N_11 
REMARK    5  A    between atoms: N_11  and  N_12 
REMARK    6  A    between atoms: C_13  and  C_14 
ROOT
HETATM    1  C   UNL     1      40.597 -14.460   0.160  1.00  0.00     0.261 C 
HETATM    2  N   UNL     1      40.588 -15.804   0.442  1.00  0.00    -0.246 N 
HETATM    3  O   UNL     1      39.761 -13.990  -0.616  1.00  0.00    -0.269 OA
HETATM    4  H   UNL     1      39.843 -16.346   0.019  1.00  0.00     0.192 HD
ENDROOT
BRANCH   1   5
HETATM    5  C   UNL     1      41.687 -13.602   0.795  1.00  0.00     0.280 C 
BRANCH   5   6
HETATM    6  O   UNL     1      41.235 -13.060   2.029  1.00  0.00    -0.341 OA
BRANCH   6   7
HETATM    7  C   UNL     1      41.956 -13.374   3.150  1.00  0.00     0.086 A 
HETATM    8  C   UNL     1      41.335 -13.177   4.390  1.00  0.00     0.044 A 
HETATM    9  C   UNL     1      42.020 -13.430   5.585  1.00  0.00     0.029 A 
HETATM   10 BR   UNL     1      39.537 -12.567   4.513  1.00  0.00    -0.048 Br
HETATM   11  C   UNL     1      43.347 -13.884   5.570  1.00  0.00    -0.053 A 
HETATM   12  C   UNL     1      43.966 -14.073   4.328  1.00  0.00     0.010 A 
HETATM   13  C   UNL     1      43.279 -13.826   3.133  1.00  0.00     0.039 A 
BRANCH  11  14
HETATM   14  C   UNL     1      44.080 -14.105   6.881  1.00  0.00     0.010 C 
HETATM   15  C   UNL     1      45.523 -13.603   6.777  1.00  0.00     0.015 C 
HETATM   16  C   UNL     1      44.048 -15.562   7.355  1.00  0.00     0.015 C 
ENDBRANCH  11  14
ENDBRANCH   6   7
ENDBRANCH   5   6
ENDBRANCH   1   5
BRANCH   2  17
HETATM   17  N   UNL     1      41.487 -16.386   1.283  1.00  0.00    -0.184 NA
HETATM   18  C   UNL     1      40.978 -16.904   2.355  1.00  0.00     0.152 C 
BRANCH  18  19
HETATM   19  C   UNL     1      41.844 -17.522   3.336  1.00  0.00     0.011 A 
HETATM   20  C   UNL     1      42.759 -18.604   3.126  1.00  0.00     0.004 A 
HETATM   21  C   UNL     1      43.367 -18.878   4.352  1.00  0.00     0.043 A 
HETATM   22  C   UNL     1      43.132 -19.376   2.005  1.00  0.00     0.014 A 
HETATM   23  C   UNL     1      44.326 -19.886   4.514  1.00  0.00     0.030 A 
HETATM   24  N   UNL     1      42.841 -18.002   5.272  1.00  0.00    -0.364 N 
HETATM   25  C   UNL     1      44.677 -20.635   3.388  1.00  0.00     0.002 A 
HETATM   26  C   UNL     1      44.091 -20.386   2.150  1.00  0.00     0.001 A 
HETATM   27  H   UNL     1      43.094 -17.976   6.250  1.00  0.00     0.165 HD
HETATM   28  C   UNL     1      41.929 -17.179   4.672  1.00  0.00     0.102 A 
ENDBRANCH  18  19
ENDBRANCH   2  17
TORSDOF 6
ENDMDL
MODEL 10
REMARK VINA RESULT:      -7.7      3.236      7.159
REMARK  6 active torsions:
REMARK  status: ('A' for Active; 'I' for Inactive)
REMARK    1  A    between atoms: C_2  and  C_3 
REMARK    2  A    between atoms: C_7  and  O_8 
REMARK    3  A    between atoms: O_8  and  C_9 
REMARK    4  A    between atoms: C_9  and  C_10 
REMARK       I    between atoms: C_10  and  N_11 
REMARK    5  A    between atoms: N_11  and  N_12 
REMARK    6  A    between atoms: C_13  and  C_14 
ROOT
HETATM    1  C   UNL     1      42.857 -13.369   4.003  1.00  0.00     0.261 C 
HETATM    2  N   UNL     1      42.400 -12.463   3.078  1.00  0.00    -0.246 N 
HETATM    3  O   UNL     1      42.774 -13.111   5.207  1.00  0.00    -0.269 OA
HETATM    4  H   UNL     1      41.962 -11.626   3.448  1.00  0.00     0.192 HD
ENDROOT
BRANCH   1   5
HETATM    5  C   UNL     1      43.501 -14.653   3.491  1.00  0.00     0.280 C 
BRANCH   5   6
HETATM    6  O   UNL     1      42.548 -15.707   3.462  1.00  0.00    -0.341 OA
BRANCH   6   7
HETATM    7  C   UNL     1      43.019 -16.969   3.213  1.00  0.00     0.086 A 
HETATM    8  C   UNL     1      43.179 -17.823   4.312  1.00  0.00     0.044 A 
HETATM    9  C   UNL     1      43.699 -19.113   4.148  1.00  0.00     0.029 A 
HETATM   10 BR   UNL     1      42.692 -17.282   6.069  1.00  0.00    -0.048 Br
HETATM   11  C   UNL     1      44.076 -19.581   2.881  1.00  0.00    -0.053 A 
HETATM   12  C   UNL     1      43.921 -18.720   1.787  1.00  0.00     0.010 A 
HETATM   13  C   UNL     1      43.396 -17.432   1.949  1.00  0.00     0.039 A 
BRANCH  11  14
HETATM   14  C   UNL     1      44.681 -20.966   2.741  1.00  0.00     0.010 C 
HETATM   15  C   UNL     1      43.937 -21.768   1.669  1.00  0.00     0.015 C 
HETATM   16  C   UNL     1      44.727 -21.743   4.060  1.00  0.00     0.015 C 
ENDBRANCH  11  14
ENDBRANCH   6   7
ENDBRANCH   5   6
ENDBRANCH   1   5
BRANCH   2  17
HETATM   17  N   UNL     1      42.470 -12.682   1.736  1.00  0.00    -0.184 NA
HETATM   18  C   UNL     1      41.572 -12.068   1.033  1.00  0.00     0.152 C 
BRANCH  18  19
HETATM   19  C   UNL     1      41.531 -12.252  -0.402  1.00  0.00     0.011 A 
HETATM   20  C   UNL     1      41.346 -13.481  -1.113  1.00  0.00     0.004 A 
HETATM   21  C   UNL     1      41.391 -13.184  -2.476  1.00  0.00     0.043 A 
HETATM   22  C   UNL     1      41.139 -14.823  -0.726  1.00  0.00     0.014 A 
HETATM   23  C   UNL     1      41.244 -14.160  -3.470  1.00  0.00     0.030 A 
HETATM   24  N   UNL     1      41.600 -11.830  -2.590  1.00  0.00    -0.364 N 
HETATM   25  C   UNL     1      41.040 -15.480  -3.059  1.00  0.00     0.002 A 
HETATM   26  C   UNL     1      40.988 -15.810  -1.708  1.00  0.00     0.001 A 
HETATM   27  H   UNL     1      41.683 -11.333  -3.466  1.00  0.00     0.165 HD
HETATM   28  C   UNL     1      41.679 -11.259  -1.350  1.00  0.00     0.102 A 
ENDBRANCH  18  19
ENDBRANCH   2  17
TORSDOF 6
ENDMDL
