MODEL 1
REMARK VINA RESULT:      -9.1      0.000      0.000
REMARK  4 active torsions:
REMARK  status: ('A' for Active; 'I' for Inactive)
REMARK    1  A    between atoms: C_3  and  N_4 
REMARK    2  A    between atoms: C_11  and  C_12 
REMARK       I    between atoms: C_12  and  N_13 
REMARK    3  A    between atoms: N_13  and  C_14 
REMARK    4  A    between atoms: C_19  and  O_20 
ROOT
HETATM    1  C   UNL     1      42.835 -16.647   1.275  1.00  0.00     0.036 A 
HETATM    2  C   UNL     1      42.370 -16.553   2.586  1.00  0.00     0.049 A 
HETATM    3  C   UNL     1      42.667 -17.550   3.540  1.00  0.00     0.063 A 
HETATM    4  C   UNL     1      43.455 -18.660   3.186  1.00  0.00     0.075 A 
HETATM    5  N   UNL     1      43.819 -19.742   4.008  1.00  0.00    -0.226 NA
HETATM    6  C   UNL     1      44.158 -19.542   5.236  1.00  0.00     0.161 C 
HETATM    7  C   UNL     1      44.179 -18.223   5.980  1.00  0.00     0.164 C 
HETATM    8  N   UNL     1      42.806 -17.730   5.994  1.00  0.00    -0.336 N 
HETATM    9  C   UNL     1      42.072 -17.360   4.888  1.00  0.00     0.257 C 
HETATM   10  O   UNL     1      40.957 -16.852   4.983  1.00  0.00    -0.267 OA
HETATM   11  C   UNL     1      44.559 -18.312   7.463  1.00  0.00     0.035 C 
HETATM   12  C   UNL     1      43.648 -17.285   8.127  1.00  0.00     0.022 C 
HETATM   13  C   UNL     1      42.357 -17.424   7.338  1.00  0.00     0.127 C 
HETATM   14  C   UNL     1      43.893 -18.750   1.858  1.00  0.00     0.035 A 
HETATM   15  C   UNL     1      43.587 -17.765   0.913  1.00  0.00     0.032 A 
ENDROOT
BRANCH   1  16
HETATM   16  N   UNL     1      42.582 -15.690   0.269  1.00  0.00    -0.323 N 
HETATM   17  C   UNL     1      41.359 -15.138  -0.073  1.00  0.00     0.256 C 
HETATM   18  O   UNL     1      40.283 -15.372   0.465  1.00  0.00    -0.267 OA
HETATM   19  H   UNL     1      43.389 -15.401  -0.265  1.00  0.00     0.169 HD
BRANCH  17  20
HETATM   20  C   UNL     1      41.379 -14.175  -1.214  1.00  0.00     0.033 A 
HETATM   21  C   UNL     1      40.828 -14.468  -2.461  1.00  0.00     0.019 A 
HETATM   22  C   UNL     1      40.858 -13.509  -3.481  1.00  0.00     0.031 A 
HETATM   23  C   UNL     1      41.449 -12.246  -3.279  1.00  0.00     0.044 A 
HETATM   24  C   UNL     1      42.080 -11.970  -2.048  1.00  0.00    -0.034 A 
HETATM   25  C   UNL     1      42.883 -10.733  -1.743  1.00  0.00     0.050 C 
HETATM   26  C   UNL     1      42.012 -12.939  -1.023  1.00  0.00     0.026 A 
BRANCH  23  27
HETATM   27  N   UNL     1      41.366 -11.297  -4.348  1.00  0.00    -0.332 N 
HETATM   28  C   UNL     1      40.219 -10.640  -4.763  1.00  0.00     0.096 A 
HETATM   29  C   UNL     1      40.530  -9.783  -5.796  1.00  0.00     0.019 A 
HETATM   30  C   UNL     1      41.917  -9.884  -6.014  1.00  0.00     0.019 A 
HETATM   31  C   UNL     1      42.406 -10.800  -5.109  1.00  0.00     0.096 A 
ENDBRANCH  23  27
ENDBRANCH  17  20
ENDBRANCH   1  16
BRANCH   6  32
HETATM   32  O   UNL     1      44.550 -20.626   5.917  1.00  0.00    -0.346 OA
HETATM   33  H   UNL     1      43.983 -21.363   5.631  1.00  0.00     0.219 HD
ENDBRANCH   6  32
TORSDOF 4
ENDMDL
MODEL 2
REMARK VINA RESULT:      -9.1      5.949      9.624
REMARK  4 active torsions:
REMARK  status: ('A' for Active; 'I' for Inactive)
REMARK    1  A    between atoms: C_3  and  N_4 
REMARK    2  A    between atoms: C_11  and  C_12 
REMARK       I    between atoms: C_12  and  N_13 
REMARK    3  A    between atoms: N_13  and  C_14 
REMARK    4  A    between atoms: C_19  and  O_20 
ROOT
HETATM    1  C   UNL     1      41.109 -12.949   5.623  1.00  0.00     0.036 A 
HETATM    2  C   UNL     1      41.599 -12.202   6.693  1.00  0.00     0.049 A 
HETATM    3  C   UNL     1      40.998 -10.980   7.066  1.00  0.00     0.063 A 
HETATM    4  C   UNL     1      39.877 -10.497   6.369  1.00  0.00     0.075 A 
HETATM    5  N   UNL     1      39.182  -9.296   6.603  1.00  0.00    -0.226 NA
HETATM    6  C   UNL     1      38.950  -8.901   7.808  1.00  0.00     0.161 C 
HETATM    7  C   UNL     1      39.386  -9.572   9.094  1.00  0.00     0.164 C 
HETATM    8  N   UNL     1      40.845  -9.577   9.087  1.00  0.00    -0.336 N 
HETATM    9  C   UNL     1      41.644 -10.254   8.191  1.00  0.00     0.257 C 
HETATM   10  O   UNL     1      42.866 -10.301   8.309  1.00  0.00    -0.267 OA
HETATM   11  C   UNL     1      39.023  -8.822  10.381  1.00  0.00     0.035 C 
HETATM   12  C   UNL     1      40.237  -9.040  11.277  1.00  0.00     0.022 C 
HETATM   13  C   UNL     1      41.393  -8.987  10.293  1.00  0.00     0.127 C 
HETATM   14  C   UNL     1      39.413 -11.249   5.281  1.00  0.00     0.035 A 
HETATM   15  C   UNL     1      40.018 -12.453   4.907  1.00  0.00     0.032 A 
ENDROOT
BRANCH   1  16
HETATM   16  N   UNL     1      41.654 -14.178   5.192  1.00  0.00    -0.323 N 
HETATM   17  C   UNL     1      42.931 -14.402   4.708  1.00  0.00     0.256 C 
HETATM   18  O   UNL     1      43.821 -13.567   4.594  1.00  0.00    -0.267 OA
HETATM   19  H   UNL     1      41.024 -14.967   5.229  1.00  0.00     0.169 HD
BRANCH  17  20
HETATM   20  C   UNL     1      43.225 -15.804   4.282  1.00  0.00     0.033 A 
HETATM   21  C   UNL     1      43.417 -16.845   5.188  1.00  0.00     0.019 A 
HETATM   22  C   UNL     1      43.663 -18.142   4.720  1.00  0.00     0.031 A 
HETATM   23  C   UNL     1      43.734 -18.420   3.340  1.00  0.00     0.044 A 
HETATM   24  C   UNL     1      43.622 -17.359   2.418  1.00  0.00    -0.034 A 
HETATM   25  C   UNL     1      43.831 -17.476   0.931  1.00  0.00     0.050 C 
HETATM   26  C   UNL     1      43.344 -16.064   2.909  1.00  0.00     0.026 A 
BRANCH  23  27
HETATM   27  N   UNL     1      43.911 -19.785   2.947  1.00  0.00    -0.332 N 
HETATM   28  C   UNL     1      43.224 -20.432   1.932  1.00  0.00     0.096 A 
HETATM   29  C   UNL     1      43.680 -21.728   1.824  1.00  0.00     0.019 A 
HETATM   30  C   UNL     1      44.702 -21.888   2.778  1.00  0.00     0.019 A 
HETATM   31  C   UNL     1      44.835 -20.686   3.439  1.00  0.00     0.096 A 
ENDBRANCH  23  27
ENDBRANCH  17  20
ENDBRANCH   1  16
BRANCH   6  32
HETATM   32  O   UNL     1      38.226  -7.781   7.926  1.00  0.00    -0.346 OA
HETATM   33  H   UNL     1      38.810  -7.104   8.307  1.00  0.00     0.219 HD
ENDBRANCH   6  32
TORSDOF 4
ENDMDL
MODEL 3
REMARK VINA RESULT:      -9.0      5.876     10.633
REMARK  4 active torsions:
REMARK  status: ('A' for Active; 'I' for Inactive)
REMARK    1  A    between atoms: C_3  and  N_4 
REMARK    2  A    between atoms: C_11  and  C_12 
REMARK       I    between atoms: C_12  and  N_13 
REMARK    3  A    between atoms: N_13  and  C_14 
REMARK    4  A    between atoms: C_19  and  O_20 
ROOT
HETATM    1  C   UNL     1      41.767 -13.170   5.416  1.00  0.00     0.036 A 
HETATM    2  C   UNL     1      41.796 -14.552   5.232  1.00  0.00     0.049 A 
HETATM    3  C   UNL     1      41.734 -15.118   3.941  1.00  0.00     0.063 A 
HETATM    4  C   UNL     1      41.653 -14.293   2.806  1.00  0.00     0.075 A 
HETATM    5  N   UNL     1      41.563 -14.700   1.462  1.00  0.00    -0.226 NA
HETATM    6  C   UNL     1      42.265 -15.693   1.033  1.00  0.00     0.161 C 
HETATM    7  C   UNL     1      43.206 -16.568   1.836  1.00  0.00     0.164 C 
HETATM    8  N   UNL     1      42.393 -17.229   2.852  1.00  0.00    -0.336 N 
HETATM    9  C   UNL     1      41.723 -16.603   3.881  1.00  0.00     0.257 C 
HETATM   10  O   UNL     1      41.146 -17.233   4.764  1.00  0.00    -0.267 OA
HETATM   11  C   UNL     1      43.848 -17.724   1.062  1.00  0.00     0.035 C 
HETATM   12  C   UNL     1      43.868 -18.865   2.073  1.00  0.00     0.022 C 
HETATM   13  C   UNL     1      42.561 -18.669   2.823  1.00  0.00     0.127 C 
HETATM   14  C   UNL     1      41.600 -12.908   3.010  1.00  0.00     0.035 A 
HETATM   15  C   UNL     1      41.651 -12.350   4.292  1.00  0.00     0.032 A 
ENDROOT
BRANCH   1  16
HETATM   16  N   UNL     1      41.828 -12.531   6.672  1.00  0.00    -0.323 N 
HETATM   17  C   UNL     1      41.686 -11.178   6.931  1.00  0.00     0.256 C 
HETATM   18  O   UNL     1      41.455 -10.303   6.105  1.00  0.00    -0.267 OA
HETATM   19  H   UNL     1      42.016 -13.137   7.458  1.00  0.00     0.169 HD
BRANCH  17  20
HETATM   20  C   UNL     1      41.841 -10.772   8.360  1.00  0.00     0.033 A 
HETATM   21  C   UNL     1      40.827 -10.145   9.083  1.00  0.00     0.019 A 
HETATM   22  C   UNL     1      41.030  -9.815  10.428  1.00  0.00     0.031 A 
HETATM   23  C   UNL     1      42.252 -10.091  11.073  1.00  0.00     0.044 A 
HETATM   24  C   UNL     1      43.311 -10.652  10.328  1.00  0.00    -0.034 A 
HETATM   25  C   UNL     1      44.714 -10.858  10.836  1.00  0.00     0.050 C 
HETATM   26  C   UNL     1      43.076 -11.005   8.981  1.00  0.00     0.026 A 
BRANCH  23  27
HETATM   27  N   UNL     1      42.348  -9.793  12.469  1.00  0.00    -0.332 N 
HETATM   28  C   UNL     1      42.166 -10.694  13.506  1.00  0.00     0.096 A 
HETATM   29  C   UNL     1      42.366 -10.054  14.710  1.00  0.00     0.019 A 
HETATM   30  C   UNL     1      42.711  -8.721  14.417  1.00  0.00     0.019 A 
HETATM   31  C   UNL     1      42.709  -8.591  13.046  1.00  0.00     0.096 A 
ENDBRANCH  23  27
ENDBRANCH  17  20
ENDBRANCH   1  16
BRANCH   6  32
HETATM   32  O   UNL     1      42.159 -15.962  -0.274  1.00  0.00    -0.346 OA
HETATM   33  H   UNL     1      41.404 -15.449  -0.610  1.00  0.00     0.219 HD
ENDBRANCH   6  32
TORSDOF 4
ENDMDL
MODEL 4
REMARK VINA RESULT:      -8.9      5.851     10.693
REMARK  4 active torsions:
REMARK  status: ('A' for Active; 'I' for Inactive)
REMARK    1  A    between atoms: C_3  and  N_4 
REMARK    2  A    between atoms: C_11  and  C_12 
REMARK       I    between atoms: C_12  and  N_13 
REMARK    3  A    between atoms: N_13  and  C_14 
REMARK    4  A    between atoms: C_19  and  O_20 
ROOT
HETATM    1  C   UNL     1      43.681 -14.638   6.642  1.00  0.00     0.036 A 
HETATM    2  C   UNL     1      43.379 -14.397   5.303  1.00  0.00     0.049 A 
HETATM    3  C   UNL     1      43.468 -15.424   4.338  1.00  0.00     0.063 A 
HETATM    4  C   UNL     1      43.854 -16.722   4.715  1.00  0.00     0.075 A 
HETATM    5  N   UNL     1      44.010 -17.841   3.877  1.00  0.00    -0.226 NA
HETATM    6  C   UNL     1      43.166 -18.067   2.928  1.00  0.00     0.161 C 
HETATM    7  C   UNL     1      41.975 -17.218   2.536  1.00  0.00     0.164 C 
HETATM    8  N   UNL     1      42.505 -15.922   2.125  1.00  0.00    -0.336 N 
HETATM    9  C   UNL     1      43.169 -15.029   2.937  1.00  0.00     0.257 C 
HETATM   10  O   UNL     1      43.493 -13.908   2.550  1.00  0.00    -0.267 OA
HETATM   11  C   UNL     1      41.194 -17.707   1.311  1.00  0.00     0.035 C 
HETATM   12  C   UNL     1      40.815 -16.418   0.589  1.00  0.00     0.022 C 
HETATM   13  C   UNL     1      42.038 -15.543   0.805  1.00  0.00     0.127 C 
HETATM   14  C   UNL     1      44.177 -16.941   6.061  1.00  0.00     0.035 A 
HETATM   15  C   UNL     1      44.098 -15.918   7.012  1.00  0.00     0.032 A 
ENDROOT
BRANCH   1  16
HETATM   16  N   UNL     1      43.613 -13.666   7.663  1.00  0.00    -0.323 N 
HETATM   17  C   UNL     1      44.660 -12.924   8.183  1.00  0.00     0.256 C 
HETATM   18  O   UNL     1      45.830 -12.970   7.822  1.00  0.00    -0.267 OA
HETATM   19  H   UNL     1      42.696 -13.520   8.061  1.00  0.00     0.169 HD
BRANCH  17  20
HETATM   20  C   UNL     1      44.304 -11.992   9.295  1.00  0.00     0.033 A 
HETATM   21  C   UNL     1      45.238 -11.523  10.217  1.00  0.00     0.019 A 
HETATM   22  C   UNL     1      44.842 -10.629  11.219  1.00  0.00     0.031 A 
HETATM   23  C   UNL     1      43.505 -10.198  11.328  1.00  0.00     0.044 A 
HETATM   24  C   UNL     1      42.537 -10.730  10.449  1.00  0.00    -0.034 A 
HETATM   25  C   UNL     1      41.054 -10.485  10.543  1.00  0.00     0.050 C 
HETATM   26  C   UNL     1      42.963 -11.606   9.427  1.00  0.00     0.026 A 
BRANCH  23  27
HETATM   27  N   UNL     1      43.201  -9.224  12.332  1.00  0.00    -0.332 N 
HETATM   28  C   UNL     1      42.746  -7.935  12.101  1.00  0.00     0.096 A 
HETATM   29  C   UNL     1      42.536  -7.301  13.305  1.00  0.00     0.019 A 
HETATM   30  C   UNL     1      42.839  -8.228  14.320  1.00  0.00     0.019 A 
HETATM   31  C   UNL     1      43.227  -9.396  13.702  1.00  0.00     0.096 A 
ENDBRANCH  23  27
ENDBRANCH  17  20
ENDBRANCH   1  16
BRANCH   6  32
HETATM   32  O   UNL     1      43.364 -19.191   2.226  1.00  0.00    -0.346 OA
HETATM   33  H   UNL     1      43.217 -18.971   1.291  1.00  0.00     0.219 HD
ENDBRANCH   6  32
TORSDOF 4
ENDMDL
MODEL 5
REMARK VINA RESULT:      -8.9      5.896      9.631
REMARK  4 active torsions:
REMARK  status: ('A' for Active; 'I' for Inactive)
REMARK    1  A    between atoms: C_3  and  N_4 
REMARK    2  A    between atoms: C_11  and  C_12 
REMARK       I    between atoms: C_12  and  N_13 
REMARK    3  A    between atoms: N_13  and  C_14 
REMARK    4  A    between atoms: C_19  and  O_20 
ROOT
HETATM    1  C   UNL     1      42.287 -12.709   6.143  1.00  0.00     0.036 A 
HETATM    2  C   UNL     1      42.865 -12.258   7.329  1.00  0.00     0.049 A 
HETATM    3  C   UNL     1      42.528 -10.999   7.872  1.00  0.00     0.063 A 
HETATM    4  C   UNL     1      41.587 -10.176   7.229  1.00  0.00     0.075 A 
HETATM    5  N   UNL     1      41.162  -8.896   7.629  1.00  0.00    -0.226 NA
HETATM    6  C   UNL     1      40.951  -8.638   8.874  1.00  0.00     0.161 C 
HETATM    7  C   UNL     1      41.149  -9.570  10.052  1.00  0.00     0.164 C 
HETATM    8  N   UNL     1      42.569  -9.907  10.081  1.00  0.00    -0.336 N 
HETATM    9  C   UNL     1      43.250 -10.611   9.112  1.00  0.00     0.257 C 
HETATM   10  O   UNL     1      44.422 -10.952   9.254  1.00  0.00    -0.267 OA
HETATM   11  C   UNL     1      40.884  -8.953  11.430  1.00  0.00     0.035 C 
HETATM   12  C   UNL     1      41.962  -9.570  12.312  1.00  0.00     0.022 C 
HETATM   13  C   UNL     1      43.159  -9.639  11.379  1.00  0.00     0.127 C 
HETATM   14  C   UNL     1      41.034 -10.635   6.026  1.00  0.00     0.035 A 
HETATM   15  C   UNL     1      41.379 -11.879   5.486  1.00  0.00     0.032 A 
ENDROOT
BRANCH   1  16
HETATM   16  N   UNL     1      42.571 -13.954   5.542  1.00  0.00    -0.323 N 
HETATM   17  C   UNL     1      43.304 -14.178   4.388  1.00  0.00     0.256 C 
HETATM   18  O   UNL     1      43.857 -13.325   3.704  1.00  0.00    -0.267 OA
HETATM   19  H   UNL     1      42.172 -14.759   6.003  1.00  0.00     0.169 HD
BRANCH  17  20
HETATM   20  C   UNL     1      43.409 -15.603   3.954  1.00  0.00     0.033 A 
HETATM   21  C   UNL     1      43.567 -15.978   2.621  1.00  0.00     0.019 A 
HETATM   22  C   UNL     1      43.685 -17.332   2.285  1.00  0.00     0.031 A 
HETATM   23  C   UNL     1      43.635 -18.337   3.272  1.00  0.00     0.044 A 
HETATM   24  C   UNL     1      43.395 -17.972   4.614  1.00  0.00    -0.034 A 
HETATM   25  C   UNL     1      43.162 -18.938   5.746  1.00  0.00     0.050 C 
HETATM   26  C   UNL     1      43.309 -16.600   4.934  1.00  0.00     0.026 A 
BRANCH  23  27
HETATM   27  N   UNL     1      43.843 -19.690   2.853  1.00  0.00    -0.332 N 
HETATM   28  C   UNL     1      43.129 -20.353   1.867  1.00  0.00     0.096 A 
HETATM   29  C   UNL     1      43.628 -21.628   1.719  1.00  0.00     0.019 A 
HETATM   30  C   UNL     1      44.705 -21.758   2.617  1.00  0.00     0.019 A 
HETATM   31  C   UNL     1      44.825 -20.559   3.284  1.00  0.00     0.096 A 
ENDBRANCH  23  27
ENDBRANCH  17  20
ENDBRANCH   1  16
BRANCH   6  32
HETATM   32  O   UNL     1      40.488  -7.411   9.146  1.00  0.00    -0.346 OA
HETATM   33  H   UNL     1      40.329  -6.972   8.294  1.00  0.00     0.219 HD
ENDBRANCH   6  32
TORSDOF 4
ENDMDL
MODEL 6
REMARK VINA RESULT:      -8.9      2.819      3.837
REMARK  4 active torsions:
REMARK  status: ('A' for Active; 'I' for Inactive)
REMARK    1  A    between atoms: C_3  and  N_4 
REMARK    2  A    between atoms: C_11  and  C_12 
REMARK       I    between atoms: C_12  and  N_13 
REMARK    3  A    between atoms: N_13  and  C_14 
REMARK    4  A    between atoms: C_19  and  O_20 
ROOT
HETATM    1  C   UNL     1      41.409 -16.306   3.196  1.00  0.00     0.036 A 
HETATM    2  C   UNL     1      42.343 -17.340   3.195  1.00  0.00     0.049 A 
HETATM    3  C   UNL     1      43.001 -17.732   4.381  1.00  0.00     0.063 A 
HETATM    4  C   UNL     1      42.714 -17.090   5.598  1.00  0.00     0.075 A 
HETATM    5  N   UNL     1      43.294 -17.347   6.854  1.00  0.00    -0.226 NA
HETATM    6  C   UNL     1      43.528 -18.558   7.228  1.00  0.00     0.161 C 
HETATM    7  C   UNL     1      43.288 -19.827   6.436  1.00  0.00     0.164 C 
HETATM    8  N   UNL     1      44.132 -19.743   5.249  1.00  0.00    -0.336 N 
HETATM    9  C   UNL     1      44.011 -18.813   4.239  1.00  0.00     0.257 C 
HETATM   10  O   UNL     1      44.688 -18.868   3.215  1.00  0.00    -0.267 OA
HETATM   11  C   UNL     1      43.736 -21.123   7.121  1.00  0.00     0.035 C 
HETATM   12  C   UNL     1      44.300 -21.957   5.976  1.00  0.00     0.022 C 
HETATM   13  C   UNL     1      44.977 -20.912   5.104  1.00  0.00     0.127 C 
HETATM   14  C   UNL     1      41.790 -16.036   5.577  1.00  0.00     0.035 A 
HETATM   15  C   UNL     1      41.149 -15.644   4.397  1.00  0.00     0.032 A 
ENDROOT
BRANCH   1  16
HETATM   16  N   UNL     1      40.710 -15.861   2.054  1.00  0.00    -0.323 N 
HETATM   17  C   UNL     1      41.006 -14.759   1.269  1.00  0.00     0.256 C 
HETATM   18  O   UNL     1      41.950 -13.993   1.421  1.00  0.00    -0.267 OA
HETATM   19  H   UNL     1      39.895 -16.403   1.806  1.00  0.00     0.169 HD
BRANCH  17  20
HETATM   20  C   UNL     1      40.064 -14.497   0.139  1.00  0.00     0.033 A 
HETATM   21  C   UNL     1      38.751 -14.073   0.332  1.00  0.00     0.019 A 
HETATM   22  C   UNL     1      37.929 -13.820  -0.773  1.00  0.00     0.031 A 
HETATM   23  C   UNL     1      38.398 -13.998  -2.089  1.00  0.00     0.044 A 
HETATM   24  C   UNL     1      39.699 -14.504  -2.293  1.00  0.00    -0.034 A 
HETATM   25  C   UNL     1      40.279 -14.892  -3.628  1.00  0.00     0.050 C 
HETATM   26  C   UNL     1      40.522 -14.724  -1.167  1.00  0.00     0.026 A 
BRANCH  23  27
HETATM   27  N   UNL     1      37.519 -13.642  -3.161  1.00  0.00    -0.332 N 
HETATM   28  C   UNL     1      36.821 -14.528  -3.967  1.00  0.00     0.096 A 
HETATM   29  C   UNL     1      36.056 -13.821  -4.869  1.00  0.00     0.019 A 
HETATM   30  C   UNL     1      36.257 -12.454  -4.601  1.00  0.00     0.019 A 
HETATM   31  C   UNL     1      37.140 -12.371  -3.547  1.00  0.00     0.096 A 
ENDBRANCH  23  27
ENDBRANCH  17  20
ENDBRANCH   1  16
BRANCH   6  32
HETATM   32  O   UNL     1      44.022 -18.703   8.464  1.00  0.00    -0.346 OA
HETATM   33  H   UNL     1      43.538 -18.084   9.038  1.00  0.00     0.219 HD
ENDBRANCH   6  32
TORSDOF 4
ENDMDL
MODEL 7
REMARK VINA RESULT:      -8.8      2.467      2.959
REMARK  4 active torsions:
REMARK  status: ('A' for Active; 'I' for Inactive)
REMARK    1  A    between atoms: C_3  and  N_4 
REMARK    2  A    between atoms: C_11  and  C_12 
REMARK       I    between atoms: C_12  and  N_13 
REMARK    3  A    between atoms: N_13  and  C_14 
REMARK    4  A    between atoms: C_19  and  O_20 
ROOT
HETATM    1  C   UNL     1      41.604 -16.921   1.171  1.00  0.00     0.036 A 
HETATM    2  C   UNL     1      41.308 -16.962   2.532  1.00  0.00     0.049 A 
HETATM    3  C   UNL     1      42.135 -17.660   3.439  1.00  0.00     0.063 A 
HETATM    4  C   UNL     1      43.289 -18.321   2.983  1.00  0.00     0.075 A 
HETATM    5  N   UNL     1      44.198 -19.072   3.751  1.00  0.00    -0.226 NA
HETATM    6  C   UNL     1      44.555 -18.666   4.921  1.00  0.00     0.161 C 
HETATM    7  C   UNL     1      44.069 -17.431   5.653  1.00  0.00     0.164 C 
HETATM    8  N   UNL     1      42.633 -17.604   5.852  1.00  0.00    -0.336 N 
HETATM    9  C   UNL     1      41.685 -17.671   4.855  1.00  0.00     0.257 C 
HETATM   10  O   UNL     1      40.481 -17.709   5.099  1.00  0.00    -0.267 OA
HETATM   11  C   UNL     1      44.622 -17.248   7.070  1.00  0.00     0.035 C 
HETATM   12  C   UNL     1      43.434 -16.697   7.850  1.00  0.00     0.022 C 
HETATM   13  C   UNL     1      42.260 -17.446   7.244  1.00  0.00     0.127 C 
HETATM   14  C   UNL     1      43.558 -18.290   1.609  1.00  0.00     0.035 A 
HETATM   15  C   UNL     1      42.730 -17.606   0.712  1.00  0.00     0.032 A 
ENDROOT
BRANCH   1  16
HETATM   16  N   UNL     1      40.828 -16.243   0.206  1.00  0.00    -0.323 N 
HETATM   17  C   UNL     1      41.043 -14.971  -0.297  1.00  0.00     0.256 C 
HETATM   18  O   UNL     1      41.967 -14.222  -0.003  1.00  0.00    -0.267 OA
HETATM   19  H   UNL     1      40.020 -16.746  -0.131  1.00  0.00     0.169 HD
BRANCH  17  20
HETATM   20  C   UNL     1      40.031 -14.485  -1.283  1.00  0.00     0.033 A 
HETATM   21  C   UNL     1      40.041 -14.863  -2.625  1.00  0.00     0.019 A 
HETATM   22  C   UNL     1      39.047 -14.392  -3.491  1.00  0.00     0.031 A 
HETATM   23  C   UNL     1      38.033 -13.524  -3.037  1.00  0.00     0.044 A 
HETATM   24  C   UNL     1      38.063 -13.072  -1.701  1.00  0.00    -0.034 A 
HETATM   25  C   UNL     1      37.145 -12.029  -1.119  1.00  0.00     0.050 C 
HETATM   26  C   UNL     1      39.056 -13.583  -0.837  1.00  0.00     0.026 A 
BRANCH  23  27
HETATM   27  N   UNL     1      37.012 -13.152  -3.968  1.00  0.00    -0.332 N 
HETATM   28  C   UNL     1      36.825 -11.889  -4.506  1.00  0.00     0.096 A 
HETATM   29  C   UNL     1      35.764 -11.918  -5.384  1.00  0.00     0.019 A 
HETATM   30  C   UNL     1      35.292 -13.243  -5.420  1.00  0.00     0.019 A 
HETATM   31  C   UNL     1      36.077 -13.979  -4.561  1.00  0.00     0.096 A 
ENDBRANCH  23  27
ENDBRANCH  17  20
ENDBRANCH   1  16
BRANCH   6  32
HETATM   32  O   UNL     1      45.472 -19.415   5.545  1.00  0.00    -0.346 OA
HETATM   33  H   UNL     1      46.050 -18.807   6.037  1.00  0.00     0.219 HD
ENDBRANCH   6  32
TORSDOF 4
ENDMDL
MODEL 8
REMARK VINA RESULT:      -8.4      6.953     11.060
REMARK  4 active torsions:
REMARK  status: ('A' for Active; 'I' for Inactive)
REMARK    1  A    between atoms: C_3  and  N_4 
REMARK    2  A    between atoms: C_11  and  C_12 
REMARK       I    between atoms: C_12  and  N_13 
REMARK    3  A    between atoms: N_13  and  C_14 
REMARK    4  A    between atoms: C_19  and  O_20 
ROOT
HETATM    1  C   UNL     1      39.956 -12.808   6.188  1.00  0.00     0.036 A 
HETATM    2  C   UNL     1      40.451 -14.111   6.158  1.00  0.00     0.049 A 
HETATM    3  C   UNL     1      40.421 -14.877   4.972  1.00  0.00     0.063 A 
HETATM    4  C   UNL     1      39.898 -14.330   3.787  1.00  0.00     0.075 A 
HETATM    5  N   UNL     1      39.777 -14.966   2.537  1.00  0.00    -0.226 NA
HETATM    6  C   UNL     1      40.722 -15.726   2.099  1.00  0.00     0.161 C 
HETATM    7  C   UNL     1      42.013 -16.088   2.805  1.00  0.00     0.164 C 
HETATM    8  N   UNL     1      41.635 -16.799   4.022  1.00  0.00    -0.336 N 
HETATM    9  C   UNL     1      40.933 -16.267   5.081  1.00  0.00     0.257 C 
HETATM   10  O   UNL     1      40.744 -16.894   6.122  1.00  0.00    -0.267 OA
HETATM   11  C   UNL     1      42.914 -17.077   2.059  1.00  0.00     0.035 C 
HETATM   12  C   UNL     1      43.477 -17.957   3.170  1.00  0.00     0.022 C 
HETATM   13  C   UNL     1      42.300 -18.084   4.123  1.00  0.00     0.127 C 
HETATM   14  C   UNL     1      39.382 -13.029   3.841  1.00  0.00     0.035 A 
HETATM   15  C   UNL     1      39.404 -12.277   5.021  1.00  0.00     0.032 A 
ENDROOT
BRANCH   1  16
HETATM   16  N   UNL     1      39.955 -11.982   7.332  1.00  0.00    -0.323 N 
HETATM   17  C   UNL     1      40.825 -10.943   7.614  1.00  0.00     0.256 C 
HETATM   18  O   UNL     1      41.737 -10.546   6.898  1.00  0.00    -0.267 OA
HETATM   19  H   UNL     1      39.248 -12.197   8.021  1.00  0.00     0.169 HD
BRANCH  17  20
HETATM   20  C   UNL     1      40.617 -10.262   8.928  1.00  0.00     0.033 A 
HETATM   21  C   UNL     1      40.624  -8.876   9.071  1.00  0.00     0.019 A 
HETATM   22  C   UNL     1      40.396  -8.302  10.328  1.00  0.00     0.031 A 
HETATM   23  C   UNL     1      40.171  -9.101  11.466  1.00  0.00     0.044 A 
HETATM   24  C   UNL     1      40.243 -10.505  11.346  1.00  0.00    -0.034 A 
HETATM   25  C   UNL     1      40.179 -11.478  12.495  1.00  0.00     0.050 C 
HETATM   26  C   UNL     1      40.443 -11.063  10.065  1.00  0.00     0.026 A 
BRANCH  23  27
HETATM   27  N   UNL     1      39.868  -8.434  12.696  1.00  0.00    -0.332 N 
HETATM   28  C   UNL     1      38.601  -8.103  13.149  1.00  0.00     0.096 A 
HETATM   29  C   UNL     1      38.700  -7.497  14.383  1.00  0.00     0.019 A 
HETATM   30  C   UNL     1      40.065  -7.475  14.725  1.00  0.00     0.019 A 
HETATM   31  C   UNL     1      40.754  -8.065  13.689  1.00  0.00     0.096 A 
ENDBRANCH  23  27
ENDBRANCH  17  20
ENDBRANCH   1  16
BRANCH   6  32
HETATM   32  O   UNL     1      40.542 -16.233   0.873  1.00  0.00    -0.346 OA
HETATM   33  H   UNL     1      40.626 -15.495   0.245  1.00  0.00     0.219 HD
ENDBRANCH   6  32
TORSDOF 4
ENDMDL
MODEL 9
REMARK VINA RESULT:      -8.2      2.548     10.377
REMARK  4 active torsions:
REMARK  status: ('A' for Active; 'I' for Inactive)
REMARK    1  A    between atoms: C_3  and  N_4 
REMARK    2  A    between atoms: C_11  and  C_12 
REMARK       I    between atoms: C_12  and  N_13 
REMARK    3  A    between atoms: N_13  and  C_14 
REMARK    4  A    between atoms: C_19  and  O_20 
ROOT
HETATM    1  C   UNL     1      41.703 -14.367  -0.836  1.00  0.00     0.036 A 
HETATM    2  C   UNL     1      42.253 -13.092  -0.712  1.00  0.00     0.049 A 
HETATM    3  C   UNL     1      41.815 -12.026  -1.527  1.00  0.00     0.063 A 
HETATM    4  C   UNL     1      40.799 -12.228  -2.477  1.00  0.00     0.075 A 
HETATM    5  N   UNL     1      40.270 -11.281  -3.372  1.00  0.00    -0.226 NA
HETATM    6  C   UNL     1      40.051 -10.070  -2.986  1.00  0.00     0.161 C 
HETATM    7  C   UNL     1      40.342  -9.473  -1.625  1.00  0.00     0.164 C 
HETATM    8  N   UNL     1      41.785  -9.563  -1.430  1.00  0.00    -0.336 N 
HETATM    9  C   UNL     1      42.514 -10.729  -1.333  1.00  0.00     0.257 C 
HETATM   10  O   UNL     1      43.712 -10.730  -1.061  1.00  0.00    -0.267 OA
HETATM   11  C   UNL     1      40.039  -7.977  -1.485  1.00  0.00     0.035 C 
HETATM   12  C   UNL     1      41.177  -7.462  -0.611  1.00  0.00     0.022 C 
HETATM   13  C   UNL     1      42.365  -8.277  -1.093  1.00  0.00     0.127 C 
HETATM   14  C   UNL     1      40.275 -13.522  -2.605  1.00  0.00     0.035 A 
HETATM   15  C   UNL     1      40.719 -14.578  -1.803  1.00  0.00     0.032 A 
ENDROOT
BRANCH   1  16
HETATM   16  N   UNL     1      42.087 -15.480  -0.057  1.00  0.00    -0.323 N 
HETATM   17  C   UNL     1      42.177 -15.544   1.323  1.00  0.00     0.256 C 
HETATM   18  O   UNL     1      41.913 -14.642   2.109  1.00  0.00    -0.267 OA
HETATM   19  H   UNL     1      42.339 -16.307  -0.579  1.00  0.00     0.169 HD
BRANCH  17  20
HETATM   20  C   UNL     1      42.654 -16.845   1.881  1.00  0.00     0.033 A 
HETATM   21  C   UNL     1      43.286 -17.815   1.105  1.00  0.00     0.019 A 
HETATM   22  C   UNL     1      43.732 -19.003   1.697  1.00  0.00     0.031 A 
HETATM   23  C   UNL     1      43.545 -19.249   3.072  1.00  0.00     0.044 A 
HETATM   24  C   UNL     1      42.835 -18.309   3.849  1.00  0.00    -0.034 A 
HETATM   25  C   UNL     1      42.425 -18.505   5.285  1.00  0.00     0.050 C 
HETATM   26  C   UNL     1      42.421 -17.105   3.239  1.00  0.00     0.026 A 
BRANCH  23  27
HETATM   27  N   UNL     1      44.101 -20.453   3.612  1.00  0.00    -0.332 N 
HETATM   28  C   UNL     1      44.167 -21.677   2.967  1.00  0.00     0.096 A 
HETATM   29  C   UNL     1      44.793 -22.592   3.785  1.00  0.00     0.019 A 
HETATM   30  C   UNL     1      45.156 -21.914   4.963  1.00  0.00     0.019 A 
HETATM   31  C   UNL     1      44.737 -20.609   4.828  1.00  0.00     0.096 A 
ENDBRANCH  23  27
ENDBRANCH  17  20
ENDBRANCH   1  16
BRANCH   6  32
HETATM   32  O   UNL     1      39.487  -9.261  -3.892  1.00  0.00    -0.346 OA
HETATM   33  H   UNL     1      39.093  -9.830  -4.575  1.00  0.00     0.219 HD
ENDBRANCH   6  32
TORSDOF 4
ENDMDL
MODEL 10
REMARK VINA RESULT:      -8.2      3.191      4.273
REMARK  4 active torsions:
REMARK  status: ('A' for Active; 'I' for Inactive)
REMARK    1  A    between atoms: C_3  and  N_4 
REMARK    2  A    between atoms: C_11  and  C_12 
REMARK       I    between atoms: C_12  and  N_13 
REMARK    3  A    between atoms: N_13  and  C_14 
REMARK    4  A    between atoms: C_19  and  O_20 
ROOT
HETATM    1  C   UNL     1      41.422 -14.095   2.327  1.00  0.00     0.036 A 
HETATM    2  C   UNL     1      42.001 -15.275   2.790  1.00  0.00     0.049 A 
HETATM    3  C   UNL     1      42.831 -15.282   3.932  1.00  0.00     0.063 A 
HETATM    4  C   UNL     1      43.080 -14.091   4.636  1.00  0.00     0.075 A 
HETATM    5  N   UNL     1      43.896 -13.928   5.772  1.00  0.00    -0.226 NA
HETATM    6  C   UNL     1      43.886 -14.810   6.712  1.00  0.00     0.161 C 
HETATM    7  C   UNL     1      43.099 -16.104   6.751  1.00  0.00     0.164 C 
HETATM    8  N   UNL     1      43.569 -16.910   5.629  1.00  0.00    -0.336 N 
HETATM    9  C   UNL     1      43.428 -16.593   4.295  1.00  0.00     0.257 C 
HETATM   10  O   UNL     1      43.752 -17.371   3.400  1.00  0.00    -0.267 OA
HETATM   11  C   UNL     1      43.351 -16.989   7.977  1.00  0.00     0.035 C 
HETATM   12  C   UNL     1      43.325 -18.404   7.409  1.00  0.00     0.022 C 
HETATM   13  C   UNL     1      43.990 -18.231   6.053  1.00  0.00     0.127 C 
HETATM   14  C   UNL     1      42.510 -12.910   4.143  1.00  0.00     0.035 A 
HETATM   15  C   UNL     1      41.697 -12.906   3.004  1.00  0.00     0.032 A 
ENDROOT
BRANCH   1  16
HETATM   16  N   UNL     1      40.581 -14.009   1.197  1.00  0.00    -0.323 N 
HETATM   17  C   UNL     1      40.968 -13.900  -0.128  1.00  0.00     0.256 C 
HETATM   18  O   UNL     1      42.119 -13.885  -0.548  1.00  0.00    -0.267 OA
HETATM   19  H   UNL     1      39.590 -14.009   1.393  1.00  0.00     0.169 HD
BRANCH  17  20
HETATM   20  C   UNL     1      39.857 -13.783  -1.120  1.00  0.00     0.033 A 
HETATM   21  C   UNL     1      38.831 -12.847  -1.000  1.00  0.00     0.019 A 
HETATM   22  C   UNL     1      37.834 -12.772  -1.980  1.00  0.00     0.031 A 
HETATM   23  C   UNL     1      37.836 -13.639  -3.091  1.00  0.00     0.044 A 
HETATM   24  C   UNL     1      38.824 -14.642  -3.180  1.00  0.00    -0.034 A 
HETATM   25  C   UNL     1      38.862 -15.732  -4.219  1.00  0.00     0.050 C 
HETATM   26  C   UNL     1      39.837 -14.680  -2.197  1.00  0.00     0.026 A 
BRANCH  23  27
HETATM   27  N   UNL     1      36.825 -13.444  -4.086  1.00  0.00    -0.332 N 
HETATM   28  C   UNL     1      35.947 -14.410  -4.551  1.00  0.00     0.096 A 
HETATM   29  C   UNL     1      35.101 -13.849  -5.482  1.00  0.00     0.019 A 
HETATM   30  C   UNL     1      35.441 -12.487  -5.583  1.00  0.00     0.019 A 
HETATM   31  C   UNL     1      36.483 -12.262  -4.712  1.00  0.00     0.096 A 
ENDBRANCH  23  27
ENDBRANCH  17  20
ENDBRANCH   1  16
BRANCH   6  32
HETATM   32  O   UNL     1      44.647 -14.534   7.779  1.00  0.00    -0.346 OA
HETATM   33  H   UNL     1      45.059 -13.668   7.618  1.00  0.00     0.219 HD
ENDBRANCH   6  32
TORSDOF 4
ENDMDL
