MODEL 1
REMARK VINA RESULT:      -8.3      0.000      0.000
REMARK  6 active torsions:
REMARK  status: ('A' for Active; 'I' for Inactive)
REMARK    1  A    between atoms: CG_8  and  CB_9 
REMARK    2  A    between atoms: CB_9  and  CA_10 
REMARK    3  A    between atoms: CA_10  and  N_11 
REMARK    4  A    between atoms: CA_10  and  C_12 
REMARK       I    between atoms: N_11  and  C_18 
REMARK    5  A    between atoms: C_12  and  O_13 
REMARK       I    between atoms: C_18  and  N_19 
REMARK    6  A    between atoms: N_19  and  C_20 
ROOT
ATOM      1  CA  TRP A   1      41.003 -14.618   2.181  1.00  0.00     0.114 C 
ENDROOT
BRANCH   1   2
ATOM      2  CB  TRP A   1      40.589 -14.517   3.665  1.00  0.00     0.068 C 
BRANCH   2   3
ATOM      3  CG  TRP A   1      41.766 -14.380   4.591  1.00  0.00    -0.028 A 
ATOM      4  CD2 TRP A   1      42.169 -15.314   5.600  1.00  0.00    -0.002 A 
ATOM      5  CE3 TRP A   1      41.667 -16.554   6.045  1.00  0.00     0.014 A 
ATOM      6  CE2 TRP A   1      43.318 -14.804   6.206  1.00  0.00     0.042 A 
ATOM      7  CZ3 TRP A   1      42.331 -17.238   7.070  1.00  0.00     0.001 A 
ATOM      8  CH2 TRP A   1      43.477 -16.704   7.654  1.00  0.00     0.002 A 
ATOM      9  CZ2 TRP A   1      43.992 -15.474   7.236  1.00  0.00     0.030 A 
ATOM     10  NE1 TRP A   1      43.602 -13.607   5.593  1.00  0.00    -0.365 N 
ATOM     11  HE1 TRP A   1      44.392 -13.021   5.822  1.00  0.00     0.165 HD
ATOM     12  CD1 TRP A   1      42.678 -13.342   4.619  1.00  0.00     0.096 A 
ENDBRANCH   2   3
ENDBRANCH   1   2
BRANCH   1  13
ATOM     13  N   TRP A   1      42.126 -15.543   1.970  1.00  0.00    -0.336 N 
HETATM   14  C   UNK A   0      42.048 -16.873   2.333  1.00  0.00     0.321 C 
HETATM   15  N   UNK A   0      43.264 -17.497   2.161  1.00  0.00    -0.309 N 
HETATM   16  O   UNK A   0      41.014 -17.390   2.732  1.00  0.00    -0.247 OA
HETATM   17  H   UNK A   0      43.919 -17.006   1.572  1.00  0.00     0.170 HD
ATOM     18  H   TRP A   1      43.032 -15.122   2.117  1.00  0.00     0.164 HD
BRANCH  15  19
HETATM   19  C   UNK A   0      43.614 -18.806   2.551  1.00  0.00     0.036 A 
HETATM   20  C   UNK A   0      44.032 -19.138   3.843  1.00  0.00     0.039 A 
HETATM   21  C   UNK A   0      44.375 -20.454   4.115  1.00  0.00    -0.024 A 
HETATM   22  C   UNK A   0      44.308 -21.435   3.141  1.00  0.00    -0.026 A 
HETATM   23  C   UNK A   0      44.823 -21.059   5.394  1.00  0.00     0.207 C 
HETATM   24  C   UNK A   0      44.706 -22.738   3.731  1.00  0.00     0.207 C 
HETATM   25  C   UNK A   0      43.898 -21.135   1.856  1.00  0.00     0.012 A 
HETATM   26  O   UNK A   0      45.221 -22.406   5.041  1.00  0.00    -0.382 OA
HETATM   27  C   UNK A   0      43.556 -19.809   1.563  1.00  0.00     0.030 A 
ENDBRANCH  15  19
ENDBRANCH   1  13
BRANCH   1  28
ATOM     28  C   TRP A   1      39.787 -14.944   1.292  1.00  0.00     0.189 C 
BRANCH  28  29
ATOM     29  O   TRP A   1      38.837 -15.721   2.023  1.00  0.00    -0.399 OA
ATOM     30  H   TRP A   1      38.193 -15.092   2.393  1.00  0.00     0.209 HD
ENDBRANCH  28  29
ENDBRANCH   1  28
TORSDOF 6
ENDMDL
MODEL 2
REMARK VINA RESULT:      -8.3      3.680      5.622
REMARK  6 active torsions:
REMARK  status: ('A' for Active; 'I' for Inactive)
REMARK    1  A    between atoms: CG_8  and  CB_9 
REMARK    2  A    between atoms: CB_9  and  CA_10 
REMARK    3  A    between atoms: CA_10  and  N_11 
REMARK    4  A    between atoms: CA_10  and  C_12 
REMARK       I    between atoms: N_11  and  C_18 
REMARK    5  A    between atoms: C_12  and  O_13 
REMARK       I    between atoms: C_18  and  N_19 
REMARK    6  A    between atoms: N_19  and  C_20 
ROOT
ATOM      1  CA  TRP A   1      41.167 -15.151  -1.299  1.00  0.00     0.114 C 
ENDROOT
BRANCH   1   2
ATOM      2  CB  TRP A   1      40.286 -13.958  -0.865  1.00  0.00     0.068 C 
BRANCH   2   3
ATOM      3  CG  TRP A   1      41.086 -12.814  -0.307  1.00  0.00    -0.028 A 
ATOM      4  CD2 TRP A   1      41.812 -11.836  -1.059  1.00  0.00    -0.002 A 
ATOM      5  CE3 TRP A   1      42.024 -11.616  -2.436  1.00  0.00     0.014 A 
ATOM      6  CE2 TRP A   1      42.389 -10.950  -0.148  1.00  0.00     0.042 A 
ATOM      7  CZ3 TRP A   1      42.792 -10.522  -2.849  1.00  0.00     0.001 A 
ATOM      8  CH2 TRP A   1      43.353  -9.654  -1.915  1.00  0.00     0.002 A 
ATOM      9  CZ2 TRP A   1      43.165  -9.853  -0.544  1.00  0.00     0.030 A 
ATOM     10  NE1 TRP A   1      42.029 -11.373   1.110  1.00  0.00    -0.365 N 
ATOM     11  HE1 TRP A   1      42.295 -10.909   1.967  1.00  0.00     0.165 HD
ATOM     12  CD1 TRP A   1      41.245 -12.492   1.028  1.00  0.00     0.096 A 
ENDBRANCH   2   3
ENDBRANCH   1   2
BRANCH   1  13
ATOM     13  N   TRP A   1      41.042 -16.304  -0.396  1.00  0.00    -0.336 N 
HETATM   14  C   UNK A   0      41.922 -16.505   0.648  1.00  0.00     0.321 C 
HETATM   15  N   UNK A   0      41.682 -17.716   1.262  1.00  0.00    -0.309 N 
HETATM   16  O   UNK A   0      42.774 -15.686   0.963  1.00  0.00    -0.247 OA
HETATM   17  H   UNK A   0      40.785 -18.128   1.060  1.00  0.00     0.170 HD
ATOM     18  H   TRP A   1      40.739 -17.150  -0.857  1.00  0.00     0.164 HD
BRANCH  15  19
HETATM   19  C   UNK A   0      42.456 -18.330   2.267  1.00  0.00     0.036 A 
HETATM   20  C   UNK A   0      42.332 -18.028   3.626  1.00  0.00     0.039 A 
HETATM   21  C   UNK A   0      43.159 -18.675   4.532  1.00  0.00    -0.024 A 
HETATM   22  C   UNK A   0      44.094 -19.608   4.118  1.00  0.00    -0.026 A 
HETATM   23  C   UNK A   0      43.210 -18.548   6.009  1.00  0.00     0.207 C 
HETATM   24  C   UNK A   0      44.805 -20.146   5.304  1.00  0.00     0.207 C 
HETATM   25  C   UNK A   0      44.238 -19.927   2.782  1.00  0.00     0.012 A 
HETATM   26  O   UNK A   0      44.382 -19.304   6.401  1.00  0.00    -0.382 OA
HETATM   27  C   UNK A   0      43.416 -19.275   1.854  1.00  0.00     0.030 A 
ENDBRANCH  15  19
ENDBRANCH   1  13
BRANCH   1  28
ATOM     28  C   TRP A   1      40.908 -15.517  -2.773  1.00  0.00     0.189 C 
BRANCH  28  29
ATOM     29  O   TRP A   1      42.019 -15.126  -3.581  1.00  0.00    -0.399 OA
ATOM     30  H   TRP A   1      41.750 -14.313  -4.043  1.00  0.00     0.209 HD
ENDBRANCH  28  29
ENDBRANCH   1  28
TORSDOF 6
ENDMDL
MODEL 3
REMARK VINA RESULT:      -8.3      6.446     10.400
REMARK  6 active torsions:
REMARK  status: ('A' for Active; 'I' for Inactive)
REMARK    1  A    between atoms: CG_8  and  CB_9 
REMARK    2  A    between atoms: CB_9  and  CA_10 
REMARK    3  A    between atoms: CA_10  and  N_11 
REMARK    4  A    between atoms: CA_10  and  C_12 
REMARK       I    between atoms: N_11  and  C_18 
REMARK    5  A    between atoms: C_12  and  O_13 
REMARK       I    between atoms: C_18  and  N_19 
REMARK    6  A    between atoms: N_19  and  C_20 
ROOT
ATOM      1  CA  TRP A   1      45.131 -12.839   7.814  1.00  0.00     0.114 C 
ENDROOT
BRANCH   1   2
ATOM      2  CB  TRP A   1      45.049 -14.197   7.083  1.00  0.00     0.068 C 
BRANCH   2   3
ATOM      3  CG  TRP A   1      43.745 -14.391   6.359  1.00  0.00    -0.028 A 
ATOM      4  CD2 TRP A   1      43.159 -15.642   5.981  1.00  0.00    -0.002 A 
ATOM      5  CE3 TRP A   1      43.545 -16.990   6.126  1.00  0.00     0.014 A 
ATOM      6  CE2 TRP A   1      41.945 -15.362   5.352  1.00  0.00     0.042 A 
ATOM      7  CZ3 TRP A   1      42.708 -18.003   5.647  1.00  0.00     0.001 A 
ATOM      8  CH2 TRP A   1      41.501 -17.692   5.026  1.00  0.00     0.002 A 
ATOM      9  CZ2 TRP A   1      41.096 -16.363   4.863  1.00  0.00     0.030 A 
ATOM     10  NE1 TRP A   1      41.798 -13.995   5.346  1.00  0.00    -0.365 N 
ATOM     11  HE1 TRP A   1      41.000 -13.508   4.965  1.00  0.00     0.165 HD
ATOM     12  CD1 TRP A   1      42.872 -13.400   5.950  1.00  0.00     0.096 A 
ENDBRANCH   2   3
ENDBRANCH   1   2
BRANCH   1  13
ATOM     13  N   TRP A   1      44.396 -12.837   9.087  1.00  0.00    -0.336 N 
HETATM   14  C   UNK A   0      43.762 -11.704   9.556  1.00  0.00     0.321 C 
HETATM   15  N   UNK A   0      43.261 -11.914  10.823  1.00  0.00    -0.309 N 
HETATM   16  O   UNK A   0      43.665 -10.679   8.896  1.00  0.00    -0.247 OA
HETATM   17  H   UNK A   0      43.186 -12.880  11.099  1.00  0.00     0.170 HD
ATOM     18  H   TRP A   1      44.825 -13.403   9.805  1.00  0.00     0.164 HD
BRANCH  15  19
HETATM   19  C   UNK A   0      42.678 -10.958  11.678  1.00  0.00     0.036 A 
HETATM   20  C   UNK A   0      41.322 -10.619  11.643  1.00  0.00     0.039 A 
HETATM   21  C   UNK A   0      40.854  -9.647  12.515  1.00  0.00    -0.024 A 
HETATM   22  C   UNK A   0      41.697  -9.015  13.412  1.00  0.00    -0.026 A 
HETATM   23  C   UNK A   0      39.474  -9.131  12.687  1.00  0.00     0.207 C 
HETATM   24  C   UNK A   0      40.913  -8.052  14.224  1.00  0.00     0.207 C 
HETATM   25  C   UNK A   0      43.041  -9.329  13.469  1.00  0.00     0.012 A 
HETATM   26  O   UNK A   0      39.615  -8.006  13.588  1.00  0.00    -0.382 OA
HETATM   27  C   UNK A   0      43.531 -10.303  12.589  1.00  0.00     0.030 A 
ENDBRANCH  15  19
ENDBRANCH   1  13
BRANCH   1  28
ATOM     28  C   TRP A   1      46.596 -12.388   7.972  1.00  0.00     0.189 C 
BRANCH  28  29
ATOM     29  O   TRP A   1      46.650 -11.040   8.439  1.00  0.00    -0.399 OA
ATOM     30  H   TRP A   1      46.152 -10.506   7.796  1.00  0.00     0.209 HD
ENDBRANCH  28  29
ENDBRANCH   1  28
TORSDOF 6
ENDMDL
MODEL 4
REMARK VINA RESULT:      -8.2      2.642      5.733
REMARK  6 active torsions:
REMARK  status: ('A' for Active; 'I' for Inactive)
REMARK    1  A    between atoms: CG_8  and  CB_9 
REMARK    2  A    between atoms: CB_9  and  CA_10 
REMARK    3  A    between atoms: CA_10  and  N_11 
REMARK    4  A    between atoms: CA_10  and  C_12 
REMARK       I    between atoms: N_11  and  C_18 
REMARK    5  A    between atoms: C_12  and  O_13 
REMARK       I    between atoms: C_18  and  N_19 
REMARK    6  A    between atoms: N_19  and  C_20 
ROOT
ATOM      1  CA  TRP A   1      40.660 -14.350   1.728  1.00  0.00     0.114 C 
ENDROOT
BRANCH   1   2
ATOM      2  CB  TRP A   1      40.708 -13.219   0.678  1.00  0.00     0.068 C 
BRANCH   2   3
ATOM      3  CG  TRP A   1      39.688 -13.392  -0.414  1.00  0.00    -0.028 A 
ATOM      4  CD2 TRP A   1      39.781 -14.280  -1.534  1.00  0.00    -0.002 A 
ATOM      5  CE3 TRP A   1      40.751 -15.203  -1.975  1.00  0.00     0.014 A 
ATOM      6  CE2 TRP A   1      38.612 -14.135  -2.281  1.00  0.00     0.042 A 
ATOM      7  CZ3 TRP A   1      40.517 -15.949  -3.135  1.00  0.00     0.001 A 
ATOM      8  CH2 TRP A   1      39.338 -15.784  -3.859  1.00  0.00     0.002 A 
ATOM      9  CZ2 TRP A   1      38.363 -14.870  -3.447  1.00  0.00     0.030 A 
ATOM     10  NE1 TRP A   1      37.838 -13.196  -1.643  1.00  0.00    -0.365 N 
ATOM     11  HE1 TRP A   1      36.924 -12.901  -1.956  1.00  0.00     0.165 HD
ATOM     12  CD1 TRP A   1      38.472 -12.743  -0.518  1.00  0.00     0.096 A 
ENDBRANCH   2   3
ENDBRANCH   1   2
BRANCH   1  13
ATOM     13  N   TRP A   1      41.914 -15.115   1.793  1.00  0.00    -0.336 N 
HETATM   14  C   UNK A   0      41.930 -16.453   2.129  1.00  0.00     0.321 C 
HETATM   15  N   UNK A   0      43.224 -16.909   2.254  1.00  0.00    -0.309 N 
HETATM   16  O   UNK A   0      40.909 -17.113   2.269  1.00  0.00    -0.247 OA
HETATM   17  H   UNK A   0      43.929 -16.319   1.839  1.00  0.00     0.170 HD
ATOM     18  H   TRP A   1      42.694 -14.584   2.153  1.00  0.00     0.164 HD
BRANCH  15  19
HETATM   19  C   UNK A   0      43.643 -18.172   2.718  1.00  0.00     0.036 A 
HETATM   20  C   UNK A   0      43.698 -19.310   1.907  1.00  0.00     0.039 A 
HETATM   21  C   UNK A   0      44.102 -20.512   2.470  1.00  0.00    -0.024 A 
HETATM   22  C   UNK A   0      44.452 -20.603   3.806  1.00  0.00    -0.026 A 
HETATM   23  C   UNK A   0      44.262 -21.839   1.827  1.00  0.00     0.207 C 
HETATM   24  C   UNK A   0      44.864 -21.995   4.110  1.00  0.00     0.207 C 
HETATM   25  C   UNK A   0      44.407 -19.495   4.630  1.00  0.00     0.012 A 
HETATM   26  O   UNK A   0      44.515 -22.749   2.925  1.00  0.00    -0.382 OA
HETATM   27  C   UNK A   0      43.992 -18.276   4.079  1.00  0.00     0.030 A 
ENDBRANCH  15  19
ENDBRANCH   1  13
BRANCH   1  28
ATOM     28  C   TRP A   1      40.221 -13.807   3.101  1.00  0.00     0.189 C 
BRANCH  28  29
ATOM     29  O   TRP A   1      39.620 -14.847   3.874  1.00  0.00    -0.399 OA
ATOM     30  H   TRP A   1      38.678 -14.862   3.630  1.00  0.00     0.209 HD
ENDBRANCH  28  29
ENDBRANCH   1  28
TORSDOF 6
ENDMDL
MODEL 5
REMARK VINA RESULT:      -8.1      2.515      5.205
REMARK  6 active torsions:
REMARK  status: ('A' for Active; 'I' for Inactive)
REMARK    1  A    between atoms: CG_8  and  CB_9 
REMARK    2  A    between atoms: CB_9  and  CA_10 
REMARK    3  A    between atoms: CA_10  and  N_11 
REMARK    4  A    between atoms: CA_10  and  C_12 
REMARK       I    between atoms: N_11  and  C_18 
REMARK    5  A    between atoms: C_12  and  O_13 
REMARK       I    between atoms: C_18  and  N_19 
REMARK    6  A    between atoms: N_19  and  C_20 
ROOT
ATOM      1  CA  TRP A   1      40.848 -14.513   3.114  1.00  0.00     0.114 C 
ENDROOT
BRANCH   1   2
ATOM      2  CB  TRP A   1      40.880 -13.321   2.132  1.00  0.00     0.068 C 
BRANCH   2   3
ATOM      3  CG  TRP A   1      40.804 -13.749   0.692  1.00  0.00    -0.028 A 
ATOM      4  CD2 TRP A   1      41.499 -13.157  -0.411  1.00  0.00    -0.002 A 
ATOM      5  CE3 TRP A   1      42.398 -12.078  -0.538  1.00  0.00     0.014 A 
ATOM      6  CE2 TRP A   1      41.157 -13.876  -1.556  1.00  0.00     0.042 A 
ATOM      7  CZ3 TRP A   1      42.925 -11.763  -1.795  1.00  0.00     0.001 A 
ATOM      8  CH2 TRP A   1      42.566 -12.502  -2.920  1.00  0.00     0.002 A 
ATOM      9  CZ2 TRP A   1      41.671 -13.572  -2.824  1.00  0.00     0.030 A 
ATOM     10  NE1 TRP A   1      40.288 -14.867  -1.167  1.00  0.00    -0.365 N 
ATOM     11  HE1 TRP A   1      39.886 -15.552  -1.791  1.00  0.00     0.165 HD
ATOM     12  CD1 TRP A   1      40.069 -14.803   0.182  1.00  0.00     0.096 A 
ENDBRANCH   2   3
ENDBRANCH   1   2
BRANCH   1  13
ATOM     13  N   TRP A   1      42.110 -15.266   3.130  1.00  0.00    -0.336 N 
HETATM   14  C   UNK A   0      42.131 -16.643   3.224  1.00  0.00     0.321 C 
HETATM   15  N   UNK A   0      43.424 -17.103   3.357  1.00  0.00    -0.309 N 
HETATM   16  O   UNK A   0      41.118 -17.325   3.174  1.00  0.00    -0.247 OA
HETATM   17  H   UNK A   0      44.142 -16.442   3.103  1.00  0.00     0.170 HD
ATOM     18  H   TRP A   1      42.854 -14.801   3.632  1.00  0.00     0.164 HD
BRANCH  15  19
HETATM   19  C   UNK A   0      43.836 -18.425   3.618  1.00  0.00     0.036 A 
HETATM   20  C   UNK A   0      43.890 -19.421   2.639  1.00  0.00     0.039 A 
HETATM   21  C   UNK A   0      44.289 -20.698   3.007  1.00  0.00    -0.024 A 
HETATM   22  C   UNK A   0      44.633 -20.999   4.314  1.00  0.00    -0.026 A 
HETATM   23  C   UNK A   0      44.447 -21.908   2.164  1.00  0.00     0.207 C 
HETATM   24  C   UNK A   0      45.039 -22.424   4.397  1.00  0.00     0.207 C 
HETATM   25  C   UNK A   0      44.587 -20.034   5.302  1.00  0.00     0.012 A 
HETATM   26  O   UNK A   0      44.693 -22.980   3.107  1.00  0.00    -0.382 OA
HETATM   27  C   UNK A   0      44.179 -18.742   4.947  1.00  0.00     0.030 A 
ENDBRANCH  15  19
ENDBRANCH   1  13
BRANCH   1  28
ATOM     28  C   TRP A   1      40.408 -14.055   4.518  1.00  0.00     0.189 C 
BRANCH  28  29
ATOM     29  O   TRP A   1      39.817 -15.144   5.228  1.00  0.00    -0.399 OA
ATOM     30  H   TRP A   1      39.902 -15.926   4.655  1.00  0.00     0.209 HD
ENDBRANCH  28  29
ENDBRANCH   1  28
TORSDOF 6
ENDMDL
MODEL 6
REMARK VINA RESULT:      -8.1      5.146      7.567
REMARK  6 active torsions:
REMARK  status: ('A' for Active; 'I' for Inactive)
REMARK    1  A    between atoms: CG_8  and  CB_9 
REMARK    2  A    between atoms: CB_9  and  CA_10 
REMARK    3  A    between atoms: CA_10  and  N_11 
REMARK    4  A    between atoms: CA_10  and  C_12 
REMARK       I    between atoms: N_11  and  C_18 
REMARK    5  A    between atoms: C_12  and  O_13 
REMARK       I    between atoms: C_18  and  N_19 
REMARK    6  A    between atoms: N_19  and  C_20 
ROOT
ATOM      1  CA  TRP A   1      45.584 -12.478   8.673  1.00  0.00     0.114 C 
ENDROOT
BRANCH   1   2
ATOM      2  CB  TRP A   1      45.488 -11.327   9.699  1.00  0.00     0.068 C 
BRANCH   2   3
ATOM      3  CG  TRP A   1      44.599 -11.659  10.865  1.00  0.00    -0.028 A 
ATOM      4  CD2 TRP A   1      43.776 -10.743  11.597  1.00  0.00    -0.002 A 
ATOM      5  CE3 TRP A   1      43.532  -9.357  11.506  1.00  0.00     0.014 A 
ATOM      6  CE2 TRP A   1      43.106 -11.474  12.578  1.00  0.00     0.042 A 
ATOM      7  CZ3 TRP A   1      42.627  -8.757  12.389  1.00  0.00     0.001 A 
ATOM      8  CH2 TRP A   1      41.972  -9.515  13.357  1.00  0.00     0.002 A 
ATOM      9  CZ2 TRP A   1      42.201 -10.889  13.473  1.00  0.00     0.030 A 
ATOM     10  NE1 TRP A   1      43.505 -12.783  12.451  1.00  0.00    -0.365 N 
ATOM     11  HE1 TRP A   1      43.168 -13.542  13.025  1.00  0.00     0.165 HD
ATOM     12  CD1 TRP A   1      44.401 -12.908  11.423  1.00  0.00     0.096 A 
ENDBRANCH   2   3
ENDBRANCH   1   2
BRANCH   1  13
ATOM     13  N   TRP A   1      44.332 -12.678   7.930  1.00  0.00    -0.336 N 
HETATM   14  C   UNK A   0      44.126 -13.794   7.144  1.00  0.00     0.321 C 
HETATM   15  N   UNK A   0      42.941 -13.688   6.448  1.00  0.00    -0.309 N 
HETATM   16  O   UNK A   0      44.906 -14.735   7.114  1.00  0.00    -0.247 OA
HETATM   17  H   UNK A   0      42.300 -12.992   6.796  1.00  0.00     0.170 HD
ATOM     18  H   TRP A   1      43.941 -11.825   7.555  1.00  0.00     0.164 HD
BRANCH  15  19
HETATM   19  C   UNK A   0      42.460 -14.556   5.447  1.00  0.00     0.036 A 
HETATM   20  C   UNK A   0      42.639 -14.328   4.079  1.00  0.00     0.039 A 
HETATM   21  C   UNK A   0      42.104 -15.235   3.176  1.00  0.00    -0.024 A 
HETATM   22  C   UNK A   0      41.406 -16.352   3.601  1.00  0.00    -0.026 A 
HETATM   23  C   UNK A   0      42.172 -15.230   1.694  1.00  0.00     0.207 C 
HETATM   24  C   UNK A   0      40.983 -17.142   2.418  1.00  0.00     0.207 C 
HETATM   25  C   UNK A   0      41.215 -16.602   4.946  1.00  0.00     0.012 A 
HETATM   26  O   UNK A   0      41.283 -16.297   1.284  1.00  0.00    -0.382 OA
HETATM   27  C   UNK A   0      41.741 -15.692   5.870  1.00  0.00     0.030 A 
ENDBRANCH  15  19
ENDBRANCH   1  13
BRANCH   1  28
ATOM     28  C   TRP A   1      46.802 -12.288   7.748  1.00  0.00     0.189 C 
BRANCH  28  29
ATOM     29  O   TRP A   1      47.323 -10.965   7.883  1.00  0.00    -0.399 OA
ATOM     30  H   TRP A   1      46.584 -10.408   8.185  1.00  0.00     0.209 HD
ENDBRANCH  28  29
ENDBRANCH   1  28
TORSDOF 6
ENDMDL
MODEL 7
REMARK VINA RESULT:      -8.1      3.683      8.352
REMARK  6 active torsions:
REMARK  status: ('A' for Active; 'I' for Inactive)
REMARK    1  A    between atoms: CG_8  and  CB_9 
REMARK    2  A    between atoms: CB_9  and  CA_10 
REMARK    3  A    between atoms: CA_10  and  N_11 
REMARK    4  A    between atoms: CA_10  and  C_12 
REMARK       I    between atoms: N_11  and  C_18 
REMARK    5  A    between atoms: C_12  and  O_13 
REMARK       I    between atoms: C_18  and  N_19 
REMARK    6  A    between atoms: N_19  and  C_20 
ROOT
ATOM      1  CA  TRP A   1      42.232 -16.857   0.987  1.00  0.00     0.114 C 
ENDROOT
BRANCH   1   2
ATOM      2  CB  TRP A   1      43.545 -17.671   1.004  1.00  0.00     0.068 C 
BRANCH   2   3
ATOM      3  CG  TRP A   1      43.842 -18.270   2.351  1.00  0.00    -0.028 A 
ATOM      4  CD2 TRP A   1      44.069 -19.656   2.635  1.00  0.00    -0.002 A 
ATOM      5  CE3 TRP A   1      44.089 -20.827   1.851  1.00  0.00     0.014 A 
ATOM      6  CE2 TRP A   1      44.328 -19.765   4.002  1.00  0.00     0.042 A 
ATOM      7  CZ3 TRP A   1      44.372 -22.057   2.456  1.00  0.00     0.001 A 
ATOM      8  CH2 TRP A   1      44.628 -22.134   3.823  1.00  0.00     0.002 A 
ATOM      9  CZ2 TRP A   1      44.608 -20.989   4.624  1.00  0.00     0.030 A 
ATOM     10  NE1 TRP A   1      44.260 -18.498   4.530  1.00  0.00    -0.365 N 
ATOM     11  HE1 TRP A   1      44.419 -18.274   5.502  1.00  0.00     0.165 HD
ATOM     12  CD1 TRP A   1      43.971 -17.590   3.547  1.00  0.00     0.096 A 
ENDBRANCH   2   3
ENDBRANCH   1   2
BRANCH   1  13
ATOM     13  N   TRP A   1      41.964 -16.245  -0.322  1.00  0.00    -0.336 N 
HETATM   14  C   UNK A   0      40.937 -15.341  -0.502  1.00  0.00     0.321 C 
HETATM   15  N   UNK A   0      40.802 -15.015  -1.835  1.00  0.00    -0.309 N 
HETATM   16  O   UNK A   0      40.273 -14.900   0.425  1.00  0.00    -0.247 OA
HETATM   17  H   UNK A   0      41.594 -15.247  -2.415  1.00  0.00     0.170 HD
ATOM     18  H   TRP A   1      42.111 -16.871  -1.101  1.00  0.00     0.164 HD
BRANCH  15  19
HETATM   19  C   UNK A   0      39.785 -14.238  -2.424  1.00  0.00     0.036 A 
HETATM   20  C   UNK A   0      38.681 -14.788  -3.084  1.00  0.00     0.039 A 
HETATM   21  C   UNK A   0      37.748 -13.932  -3.649  1.00  0.00    -0.024 A 
HETATM   22  C   UNK A   0      37.886 -12.558  -3.571  1.00  0.00    -0.026 A 
HETATM   23  C   UNK A   0      36.496 -14.261  -4.375  1.00  0.00     0.207 C 
HETATM   24  C   UNK A   0      36.729 -11.910  -4.238  1.00  0.00     0.207 C 
HETATM   25  C   UNK A   0      38.967 -11.987  -2.925  1.00  0.00     0.012 A 
HETATM   26  O   UNK A   0      36.035 -12.993  -4.900  1.00  0.00    -0.382 OA
HETATM   27  C   UNK A   0      39.922 -12.837  -2.356  1.00  0.00     0.030 A 
ENDBRANCH  15  19
ENDBRANCH   1  13
BRANCH   1  28
ATOM     28  C   TRP A   1      41.054 -17.706   1.501  1.00  0.00     0.189 C 
BRANCH  28  29
ATOM     29  O   TRP A   1      40.338 -16.994   2.512  1.00  0.00    -0.399 OA
ATOM     30  H   TRP A   1      40.888 -16.228   2.751  1.00  0.00     0.209 HD
ENDBRANCH  28  29
ENDBRANCH   1  28
TORSDOF 6
ENDMDL
MODEL 8
REMARK VINA RESULT:      -8.1      4.045      6.395
REMARK  6 active torsions:
REMARK  status: ('A' for Active; 'I' for Inactive)
REMARK    1  A    between atoms: CG_8  and  CB_9 
REMARK    2  A    between atoms: CB_9  and  CA_10 
REMARK    3  A    between atoms: CA_10  and  N_11 
REMARK    4  A    between atoms: CA_10  and  C_12 
REMARK       I    between atoms: N_11  and  C_18 
REMARK    5  A    between atoms: C_12  and  O_13 
REMARK       I    between atoms: C_18  and  N_19 
REMARK    6  A    between atoms: N_19  and  C_20 
ROOT
ATOM      1  CA  TRP A   1      40.987 -15.122  -1.520  1.00  0.00     0.114 C 
ENDROOT
BRANCH   1   2
ATOM      2  CB  TRP A   1      39.934 -14.024  -1.248  1.00  0.00     0.068 C 
BRANCH   2   3
ATOM      3  CG  TRP A   1      40.166 -12.780  -2.060  1.00  0.00    -0.028 A 
ATOM      4  CD2 TRP A   1      41.275 -11.881  -1.944  1.00  0.00    -0.002 A 
ATOM      5  CE3 TRP A   1      42.417 -11.835  -1.118  1.00  0.00     0.014 A 
ATOM      6  CE2 TRP A   1      41.103 -10.878  -2.898  1.00  0.00     0.042 A 
ATOM      7  CZ3 TRP A   1      43.344 -10.799  -1.280  1.00  0.00     0.001 A 
ATOM      8  CH2 TRP A   1      43.145  -9.813  -2.244  1.00  0.00     0.002 A 
ATOM      9  CZ2 TRP A   1      42.018  -9.831  -3.071  1.00  0.00     0.030 A 
ATOM     10  NE1 TRP A   1      39.935 -11.154  -3.569  1.00  0.00    -0.365 N 
ATOM     11  HE1 TRP A   1      39.567 -10.599  -4.328  1.00  0.00     0.165 HD
ATOM     12  CD1 TRP A   1      39.364 -12.296  -3.076  1.00  0.00     0.096 A 
ENDBRANCH   2   3
ENDBRANCH   1   2
BRANCH   1  13
ATOM     13  N   TRP A   1      40.879 -16.251  -0.586  1.00  0.00    -0.336 N 
HETATM   14  C   UNK A   0      41.712 -16.367   0.509  1.00  0.00     0.321 C 
HETATM   15  N   UNK A   0      41.509 -17.570   1.151  1.00  0.00    -0.309 N 
HETATM   16  O   UNK A   0      42.497 -15.490   0.840  1.00  0.00    -0.247 OA
HETATM   17  H   UNK A   0      40.649 -18.041   0.916  1.00  0.00     0.170 HD
ATOM     18  H   TRP A   1      40.652 -17.128  -1.033  1.00  0.00     0.164 HD
BRANCH  15  19
HETATM   19  C   UNK A   0      42.260 -18.106   2.215  1.00  0.00     0.036 A 
HETATM   20  C   UNK A   0      43.222 -19.108   2.051  1.00  0.00     0.039 A 
HETATM   21  C   UNK A   0      43.890 -19.582   3.171  1.00  0.00    -0.024 A 
HETATM   22  C   UNK A   0      43.626 -19.083   4.435  1.00  0.00    -0.026 A 
HETATM   23  C   UNK A   0      44.953 -20.612   3.259  1.00  0.00     0.207 C 
HETATM   24  C   UNK A   0      44.507 -19.758   5.420  1.00  0.00     0.207 C 
HETATM   25  C   UNK A   0      42.681 -18.093   4.626  1.00  0.00     0.012 A 
HETATM   26  O   UNK A   0      45.131 -20.832   4.680  1.00  0.00    -0.382 OA
HETATM   27  C   UNK A   0      41.993 -17.610   3.507  1.00  0.00     0.030 A 
ENDBRANCH  15  19
ENDBRANCH   1  13
BRANCH   1  28
ATOM     28  C   TRP A   1      40.950 -15.563  -2.996  1.00  0.00     0.189 C 
BRANCH  28  29
ATOM     29  O   TRP A   1      42.176 -15.219  -3.644  1.00  0.00    -0.399 OA
ATOM     30  H   TRP A   1      42.712 -14.744  -2.985  1.00  0.00     0.209 HD
ENDBRANCH  28  29
ENDBRANCH   1  28
TORSDOF 6
ENDMDL
MODEL 9
REMARK VINA RESULT:      -8.0      2.587      4.123
REMARK  6 active torsions:
REMARK  status: ('A' for Active; 'I' for Inactive)
REMARK    1  A    between atoms: CG_8  and  CB_9 
REMARK    2  A    between atoms: CB_9  and  CA_10 
REMARK    3  A    between atoms: CA_10  and  N_11 
REMARK    4  A    between atoms: CA_10  and  C_12 
REMARK       I    between atoms: N_11  and  C_18 
REMARK    5  A    between atoms: C_12  and  O_13 
REMARK       I    between atoms: C_18  and  N_19 
REMARK    6  A    between atoms: N_19  and  C_20 
ROOT
ATOM      1  CA  TRP A   1      41.085 -15.075  -1.361  1.00  0.00     0.114 C 
ENDROOT
BRANCH   1   2
ATOM      2  CB  TRP A   1      40.168 -13.880  -1.021  1.00  0.00     0.068 C 
BRANCH   2   3
ATOM      3  CG  TRP A   1      40.752 -12.977   0.030  1.00  0.00    -0.028 A 
ATOM      4  CD2 TRP A   1      40.493 -13.030   1.438  1.00  0.00    -0.002 A 
ATOM      5  CE3 TRP A   1      39.687 -13.847   2.257  1.00  0.00     0.014 A 
ATOM      6  CE2 TRP A   1      41.255 -12.028   2.042  1.00  0.00     0.042 A 
ATOM      7  CZ3 TRP A   1      39.677 -13.640   3.641  1.00  0.00     0.001 A 
ATOM      8  CH2 TRP A   1      40.450 -12.633   4.214  1.00  0.00     0.002 A 
ATOM      9  CZ2 TRP A   1      41.253 -11.804   3.424  1.00  0.00     0.030 A 
ATOM     10  NE1 TRP A   1      41.949 -11.390   1.042  1.00  0.00    -0.365 N 
ATOM     11  HE1 TRP A   1      42.594 -10.628   1.191  1.00  0.00     0.165 HD
ATOM     12  CD1 TRP A   1      41.657 -11.952  -0.172  1.00  0.00     0.096 A 
ENDBRANCH   2   3
ENDBRANCH   1   2
BRANCH   1  13
ATOM     13  N   TRP A   1      40.932 -16.191  -0.417  1.00  0.00    -0.336 N 
HETATM   14  C   UNK A   0      41.825 -16.393   0.617  1.00  0.00     0.321 C 
HETATM   15  N   UNK A   0      41.549 -17.572   1.276  1.00  0.00    -0.309 N 
HETATM   16  O   UNK A   0      42.715 -15.600   0.887  1.00  0.00    -0.247 OA
HETATM   17  H   UNK A   0      40.631 -17.954   1.104  1.00  0.00     0.170 HD
ATOM     18  H   TRP A   1      40.587 -17.039  -0.843  1.00  0.00     0.164 HD
BRANCH  15  19
HETATM   19  C   UNK A   0      42.317 -18.184   2.286  1.00  0.00     0.036 A 
HETATM   20  C   UNK A   0      43.236 -19.209   2.041  1.00  0.00     0.039 A 
HETATM   21  C   UNK A   0      43.924 -19.758   3.112  1.00  0.00    -0.024 A 
HETATM   22  C   UNK A   0      43.722 -19.313   4.407  1.00  0.00    -0.026 A 
HETATM   23  C   UNK A   0      44.953 -20.827   3.114  1.00  0.00     0.207 C 
HETATM   24  C   UNK A   0      44.611 -20.064   5.327  1.00  0.00     0.207 C 
HETATM   25  C   UNK A   0      42.821 -18.301   4.679  1.00  0.00     0.012 A 
HETATM   26  O   UNK A   0      45.171 -21.121   4.515  1.00  0.00    -0.382 OA
HETATM   27  C   UNK A   0      42.111 -17.742   3.609  1.00  0.00     0.030 A 
ENDBRANCH  15  19
ENDBRANCH   1  13
BRANCH   1  28
ATOM     28  C   TRP A   1      40.903 -15.506  -2.829  1.00  0.00     0.189 C 
BRANCH  28  29
ATOM     29  O   TRP A   1      42.070 -15.184  -3.586  1.00  0.00    -0.399 OA
ATOM     30  H   TRP A   1      41.779 -14.590  -4.300  1.00  0.00     0.209 HD
ENDBRANCH  28  29
ENDBRANCH   1  28
TORSDOF 6
ENDMDL
MODEL 10
REMARK VINA RESULT:      -7.8      2.567      7.238
REMARK  6 active torsions:
REMARK  status: ('A' for Active; 'I' for Inactive)
REMARK    1  A    between atoms: CG_8  and  CB_9 
REMARK    2  A    between atoms: CB_9  and  CA_10 
REMARK    3  A    between atoms: CA_10  and  N_11 
REMARK    4  A    between atoms: CA_10  and  C_12 
REMARK       I    between atoms: N_11  and  C_18 
REMARK    5  A    between atoms: C_12  and  O_13 
REMARK       I    between atoms: C_18  and  N_19 
REMARK    6  A    between atoms: N_19  and  C_20 
ROOT
ATOM      1  CA  TRP A   1      41.758 -16.031   5.378  1.00  0.00     0.114 C 
ENDROOT
BRANCH   1   2
ATOM      2  CB  TRP A   1      43.289 -16.125   5.197  1.00  0.00     0.068 C 
BRANCH   2   3
ATOM      3  CG  TRP A   1      43.787 -17.543   5.173  1.00  0.00    -0.028 A 
ATOM      4  CD2 TRP A   1      43.785 -18.428   4.047  1.00  0.00    -0.002 A 
ATOM      5  CE3 TRP A   1      43.359 -18.310   2.708  1.00  0.00     0.014 A 
ATOM      6  CE2 TRP A   1      44.354 -19.633   4.460  1.00  0.00     0.042 A 
ATOM      7  CZ3 TRP A   1      43.523 -19.390   1.834  1.00  0.00     0.001 A 
ATOM      8  CH2 TRP A   1      44.098 -20.580   2.276  1.00  0.00     0.002 A 
ATOM      9  CZ2 TRP A   1      44.522 -20.726   3.600  1.00  0.00     0.030 A 
ATOM     10  NE1 TRP A   1      44.689 -19.489   5.786  1.00  0.00    -0.365 N 
ATOM     11  HE1 TRP A   1      45.134 -20.203   6.344  1.00  0.00     0.165 HD
ATOM     12  CD1 TRP A   1      44.355 -18.236   6.225  1.00  0.00     0.096 A 
ENDBRANCH   2   3
ENDBRANCH   1   2
BRANCH   1  13
ATOM     13  N   TRP A   1      41.025 -16.272   4.127  1.00  0.00    -0.336 N 
HETATM   14  C   UNK A   0      40.782 -15.258   3.222  1.00  0.00     0.321 C 
HETATM   15  N   UNK A   0      39.966 -15.699   2.203  1.00  0.00    -0.309 N 
HETATM   16  O   UNK A   0      41.260 -14.139   3.339  1.00  0.00    -0.247 OA
HETATM   17  H   UNK A   0      39.895 -16.701   2.114  1.00  0.00     0.170 HD
ATOM     18  H   TRP A   1      40.272 -16.939   4.220  1.00  0.00     0.164 HD
BRANCH  15  19
HETATM   19  C   UNK A   0      39.390 -14.925   1.176  1.00  0.00     0.036 A 
HETATM   20  C   UNK A   0      40.068 -14.570   0.006  1.00  0.00     0.039 A 
HETATM   21  C   UNK A   0      39.414 -13.785  -0.932  1.00  0.00    -0.024 A 
HETATM   22  C   UNK A   0      38.115 -13.352  -0.733  1.00  0.00    -0.026 A 
HETATM   23  C   UNK A   0      39.901 -13.297  -2.245  1.00  0.00     0.207 C 
HETATM   24  C   UNK A   0      37.678 -12.559  -1.909  1.00  0.00     0.207 C 
HETATM   25  C   UNK A   0      37.421 -13.687   0.414  1.00  0.00     0.012 A 
HETATM   26  O   UNK A   0      38.879 -12.373  -2.693  1.00  0.00    -0.382 OA
HETATM   27  C   UNK A   0      38.070 -14.473   1.374  1.00  0.00     0.030 A 
ENDBRANCH  15  19
ENDBRANCH   1  13
BRANCH   1  28
ATOM     28  C   TRP A   1      41.284 -16.937   6.531  1.00  0.00     0.189 C 
BRANCH  28  29
ATOM     29  O   TRP A   1      39.857 -16.955   6.589  1.00  0.00    -0.399 OA
ATOM     30  H   TRP A   1      39.597 -17.890   6.665  1.00  0.00     0.209 HD
ENDBRANCH  28  29
ENDBRANCH   1  28
TORSDOF 6
ENDMDL
