MODEL 1
REMARK VINA RESULT:      -8.5      0.000      0.000
REMARK  6 active torsions:
REMARK  status: ('A' for Active; 'I' for Inactive)
REMARK    1  A    between atoms: C_5  and  N_6 
REMARK    2  A    between atoms: N_6  and  C_7 
REMARK    3  A    between atoms: C_7  and  C_8 
REMARK    4  A    between atoms: N_10  and  C_12 
REMARK    5  A    between atoms: C_12  and  C_13 
REMARK    6  A    between atoms: C_14  and  C_15 
ROOT
HETATM    1  C   UNL     1      41.984 -17.398   1.108  1.00  0.00     0.031 C 
HETATM    2  C   UNL     1      41.268 -16.741   2.294  1.00  0.00     0.241 C 
HETATM    3  N   UNL     1      41.213 -15.260   1.967  1.00  0.00    -0.067 N 
HETATM    4  H   UNL     1      40.220 -14.987   1.920  1.00  0.00     0.280 HD
HETATM    5  C   UNL     1      41.773 -15.070   0.574  1.00  0.00     0.235 C 
HETATM    6  C   UNL     1      41.654 -16.450  -0.043  1.00  0.00     0.035 C 
ENDROOT
BRANCH   3   7
HETATM    7  C   UNL     1      41.807 -14.368   3.036  1.00  0.00     0.277 C 
BRANCH   7   8
HETATM    8  C   UNL     1      40.977 -14.243   4.258  1.00  0.00     0.016 A 
HETATM    9  C   UNL     1      41.178 -14.893   5.518  1.00  0.00     0.102 A 
HETATM   10  N   UNL     1      40.257 -14.496   6.403  1.00  0.00    -0.174 NA
HETATM   11  N   UNL     1      39.413 -13.720   5.719  1.00  0.00    -0.288 N 
HETATM   12  H   UNL     1      38.591 -13.361   6.200  1.00  0.00     0.188 HD
HETATM   13  C   UNL     1      39.813 -13.512   4.429  1.00  0.00     0.120 A 
BRANCH   9  14
HETATM   14  C   UNL     1      42.198 -15.853   5.915  1.00  0.00     0.072 A 
HETATM   15  C   UNL     1      41.970 -17.230   5.864  1.00  0.00     0.132 A 
HETATM   16  F   UNL     1      40.768 -17.709   5.494  1.00  0.00    -0.205 F 
HETATM   17  C   UNL     1      42.961 -18.145   6.228  1.00  0.00     0.043 A 
HETATM   18  C   UNL     1      44.206 -17.685   6.653  1.00  0.00     0.006 A 
HETATM   19  C   UNL     1      44.449 -16.314   6.720  1.00  0.00     0.043 A 
HETATM   20  C   UNL     1      43.451 -15.413   6.353  1.00  0.00     0.132 A 
HETATM   21  F   UNL     1      43.708 -14.101   6.473  1.00  0.00    -0.205 F 
ENDBRANCH   9  14
ENDBRANCH   7   8
ENDBRANCH   3   7
BRANCH   1  22
HETATM   22  C   UNL     1      43.501 -17.549   1.358  1.00  0.00     0.127 C 
BRANCH  22  23
HETATM   23  N   UNL     1      43.734 -18.254   2.622  1.00  0.00    -0.376 N 
HETATM   24  H   UNL     1      44.218 -17.693   3.319  1.00  0.00     0.161 HD
BRANCH  23  25
HETATM   25  C   UNL     1      43.982 -19.618   2.652  1.00  0.00     0.101 A 
HETATM   26  N   UNL     1      44.387 -20.162   3.816  1.00  0.00    -0.347 N 
HETATM   27  C   UNL     1      44.629 -21.475   3.996  1.00  0.00     0.007 A 
HETATM   28  H   UNL     1      44.504 -19.543   4.612  1.00  0.00     0.167 HD
HETATM   29  C   UNL     1      45.076 -21.955   5.340  1.00  0.00     0.068 C 
HETATM   30  C   UNL     1      44.442 -22.354   2.932  1.00  0.00     0.025 A 
HETATM   31  C   UNL     1      44.002 -21.854   1.715  1.00  0.00     0.006 A 
HETATM   32  C   UNL     1      43.765 -20.488   1.577  1.00  0.00     0.048 A 
ENDBRANCH  23  25
ENDBRANCH  22  23
ENDBRANCH   1  22
TORSDOF 6
ENDMDL
MODEL 2
REMARK VINA RESULT:      -8.5      1.640      4.310
REMARK  6 active torsions:
REMARK  status: ('A' for Active; 'I' for Inactive)
REMARK    1  A    between atoms: C_5  and  N_6 
REMARK    2  A    between atoms: N_6  and  C_7 
REMARK    3  A    between atoms: C_7  and  C_8 
REMARK    4  A    between atoms: N_10  and  C_12 
REMARK    5  A    between atoms: C_12  and  C_13 
REMARK    6  A    between atoms: C_14  and  C_15 
ROOT
HETATM    1  C   UNL     1      44.198 -16.839   6.285  1.00  0.00     0.031 C 
HETATM    2  C   UNL     1      43.322 -15.615   5.999  1.00  0.00     0.241 C 
HETATM    3  N   UNL     1      41.986 -15.906   6.657  1.00  0.00    -0.067 N 
HETATM    4  H   UNL     1      41.822 -15.176   7.366  1.00  0.00     0.280 HD
HETATM    5  C   UNL     1      42.115 -17.211   7.412  1.00  0.00     0.235 C 
HETATM    6  C   UNL     1      43.612 -17.364   7.594  1.00  0.00     0.035 C 
ENDROOT
BRANCH   3   7
HETATM    7  C   UNL     1      40.800 -15.808   5.722  1.00  0.00     0.277 C 
BRANCH   7   8
HETATM    8  C   UNL     1      40.837 -14.640   4.810  1.00  0.00     0.016 A 
HETATM    9  C   UNL     1      41.274 -14.612   3.447  1.00  0.00     0.102 A 
HETATM   10  N   UNL     1      41.113 -13.391   2.927  1.00  0.00    -0.174 NA
HETATM   11  N   UNL     1      40.708 -12.620   3.939  1.00  0.00    -0.288 N 
HETATM   12  H   UNL     1      40.587 -11.624   3.768  1.00  0.00     0.188 HD
HETATM   13  C   UNL     1      40.501 -13.326   5.090  1.00  0.00     0.120 A 
BRANCH   9  14
HETATM   14  C   UNL     1      41.823 -15.682   2.626  1.00  0.00     0.072 A 
HETATM   15  C   UNL     1      43.195 -15.797   2.390  1.00  0.00     0.132 A 
HETATM   16  F   UNL     1      44.050 -14.880   2.876  1.00  0.00    -0.205 F 
HETATM   17  C   UNL     1      43.715 -16.839   1.617  1.00  0.00     0.043 A 
HETATM   18  C   UNL     1      42.855 -17.787   1.064  1.00  0.00     0.006 A 
HETATM   19  C   UNL     1      41.482 -17.683   1.280  1.00  0.00     0.043 A 
HETATM   20  C   UNL     1      40.978 -16.639   2.055  1.00  0.00     0.132 A 
HETATM   21  F   UNL     1      39.647 -16.546   2.202  1.00  0.00    -0.205 F 
ENDBRANCH   9  14
ENDBRANCH   7   8
ENDBRANCH   3   7
BRANCH   1  22
HETATM   22  C   UNL     1      44.148 -17.870   5.137  1.00  0.00     0.127 C 
BRANCH  22  23
HETATM   23  N   UNL     1      45.033 -18.999   5.437  1.00  0.00    -0.376 N 
HETATM   24  H   UNL     1      46.002 -18.729   5.588  1.00  0.00     0.161 HD
BRANCH  23  25
HETATM   25  C   UNL     1      44.827 -20.248   4.872  1.00  0.00     0.101 A 
HETATM   26  N   UNL     1      44.592 -20.314   3.547  1.00  0.00    -0.347 N 
HETATM   27  C   UNL     1      44.410 -21.461   2.864  1.00  0.00     0.007 A 
HETATM   28  H   UNL     1      44.564 -19.442   3.029  1.00  0.00     0.167 HD
HETATM   29  C   UNL     1      44.154 -21.399   1.392  1.00  0.00     0.068 C 
HETATM   30  C   UNL     1      44.479 -22.675   3.543  1.00  0.00     0.025 A 
HETATM   31  C   UNL     1      44.743 -22.672   4.904  1.00  0.00     0.006 A 
HETATM   32  C   UNL     1      44.924 -21.460   5.568  1.00  0.00     0.048 A 
ENDBRANCH  23  25
ENDBRANCH  22  23
ENDBRANCH   1  22
TORSDOF 6
ENDMDL
MODEL 3
REMARK VINA RESULT:      -8.4      2.781      6.514
REMARK  6 active torsions:
REMARK  status: ('A' for Active; 'I' for Inactive)
REMARK    1  A    between atoms: C_5  and  N_6 
REMARK    2  A    between atoms: N_6  and  C_7 
REMARK    3  A    between atoms: C_7  and  C_8 
REMARK    4  A    between atoms: N_10  and  C_12 
REMARK    5  A    between atoms: C_12  and  C_13 
REMARK    6  A    between atoms: C_14  and  C_15 
ROOT
HETATM    1  C   UNL     1      41.008 -15.500   1.783  1.00  0.00     0.031 C 
HETATM    2  C   UNL     1      40.656 -16.087   3.154  1.00  0.00     0.241 C 
HETATM    3  N   UNL     1      41.980 -16.271   3.872  1.00  0.00    -0.067 N 
HETATM    4  H   UNL     1      41.958 -15.690   4.723  1.00  0.00     0.280 HD
HETATM    5  C   UNL     1      43.069 -15.695   2.992  1.00  0.00     0.235 C 
HETATM    6  C   UNL     1      42.315 -14.762   2.066  1.00  0.00     0.035 C 
ENDROOT
BRANCH   3   7
HETATM    7  C   UNL     1      42.222 -17.679   4.373  1.00  0.00     0.277 C 
BRANCH   7   8
HETATM    8  C   UNL     1      43.470 -17.842   5.155  1.00  0.00     0.016 A 
HETATM    9  C   UNL     1      44.453 -18.875   5.023  1.00  0.00     0.102 A 
HETATM   10  N   UNL     1      45.471 -18.664   5.864  1.00  0.00    -0.174 NA
HETATM   11  N   UNL     1      45.114 -17.612   6.604  1.00  0.00    -0.288 N 
HETATM   12  H   UNL     1      45.732 -17.323   7.359  1.00  0.00     0.188 HD
HETATM   13  C   UNL     1      43.930 -17.061   6.203  1.00  0.00     0.120 A 
BRANCH   9  14
HETATM   14  C   UNL     1      44.471 -20.032   4.140  1.00  0.00     0.072 A 
HETATM   15  C   UNL     1      44.534 -21.335   4.638  1.00  0.00     0.132 A 
HETATM   16  F   UNL     1      44.638 -21.556   5.960  1.00  0.00    -0.205 F 
HETATM   17  C   UNL     1      44.531 -22.441   3.783  1.00  0.00     0.043 A 
HETATM   18  C   UNL     1      44.463 -22.251   2.404  1.00  0.00     0.006 A 
HETATM   19  C   UNL     1      44.408 -20.957   1.887  1.00  0.00     0.043 A 
HETATM   20  C   UNL     1      44.412 -19.863   2.753  1.00  0.00     0.132 A 
HETATM   21  F   UNL     1      44.404 -18.633   2.216  1.00  0.00    -0.205 F 
ENDBRANCH   9  14
ENDBRANCH   7   8
ENDBRANCH   3   7
BRANCH   1  22
HETATM   22  C   UNL     1      41.148 -16.595   0.702  1.00  0.00     0.127 C 
BRANCH  22  23
HETATM   23  N   UNL     1      41.861 -16.062  -0.463  1.00  0.00    -0.376 N 
HETATM   24  H   UNL     1      42.823 -15.798  -0.266  1.00  0.00     0.161 HD
BRANCH  23  25
HETATM   25  C   UNL     1      41.206 -15.317  -1.431  1.00  0.00     0.101 A 
HETATM   26  N   UNL     1      40.462 -15.974  -2.341  1.00  0.00    -0.347 N 
HETATM   27  C   UNL     1      39.747 -15.375  -3.313  1.00  0.00     0.007 A 
HETATM   28  H   UNL     1      40.428 -16.987  -2.281  1.00  0.00     0.167 HD
HETATM   29  C   UNL     1      38.960 -16.220  -4.265  1.00  0.00     0.068 C 
HETATM   30  C   UNL     1      39.746 -13.985  -3.398  1.00  0.00     0.025 A 
HETATM   31  C   UNL     1      40.475 -13.253  -2.473  1.00  0.00     0.006 A 
HETATM   32  C   UNL     1      41.199 -13.917  -1.485  1.00  0.00     0.048 A 
ENDBRANCH  23  25
ENDBRANCH  22  23
ENDBRANCH   1  22
TORSDOF 6
ENDMDL
MODEL 4
REMARK VINA RESULT:      -8.4      2.312      6.330
REMARK  6 active torsions:
REMARK  status: ('A' for Active; 'I' for Inactive)
REMARK    1  A    between atoms: C_5  and  N_6 
REMARK    2  A    between atoms: N_6  and  C_7 
REMARK    3  A    between atoms: C_7  and  C_8 
REMARK    4  A    between atoms: N_10  and  C_12 
REMARK    5  A    between atoms: C_12  and  C_13 
REMARK    6  A    between atoms: C_14  and  C_15 
ROOT
HETATM    1  C   UNL     1      42.910 -14.097   5.479  1.00  0.00     0.031 C 
HETATM    2  C   UNL     1      42.801 -15.552   5.949  1.00  0.00     0.241 C 
HETATM    3  N   UNL     1      44.007 -15.783   6.842  1.00  0.00    -0.067 N 
HETATM    4  H   UNL     1      43.658 -16.027   7.780  1.00  0.00     0.280 HD
HETATM    5  C   UNL     1      44.736 -14.465   6.988  1.00  0.00     0.235 C 
HETATM    6  C   UNL     1      43.683 -13.439   6.620  1.00  0.00     0.035 C 
ENDROOT
BRANCH   3   7
HETATM    7  C   UNL     1      44.864 -16.961   6.431  1.00  0.00     0.277 C 
BRANCH   7   8
HETATM    8  C   UNL     1      44.379 -18.271   6.927  1.00  0.00     0.016 A 
HETATM    9  C   UNL     1      43.976 -19.403   6.148  1.00  0.00     0.102 A 
HETATM   10  N   UNL     1      43.650 -20.428   6.942  1.00  0.00    -0.174 NA
HETATM   11  N   UNL     1      43.713 -19.951   8.187  1.00  0.00    -0.288 N 
HETATM   12  H   UNL     1      43.434 -20.562   8.952  1.00  0.00     0.188 HD
HETATM   13  C   UNL     1      44.171 -18.665   8.238  1.00  0.00     0.120 A 
BRANCH   9  14
HETATM   14  C   UNL     1      43.897 -19.554   4.702  1.00  0.00     0.072 A 
HETATM   15  C   UNL     1      42.932 -18.886   3.945  1.00  0.00     0.132 A 
HETATM   16  F   UNL     1      42.004 -18.120   4.546  1.00  0.00    -0.205 F 
HETATM   17  C   UNL     1      42.876 -19.022   2.555  1.00  0.00     0.043 A 
HETATM   18  C   UNL     1      43.797 -19.837   1.901  1.00  0.00     0.006 A 
HETATM   19  C   UNL     1      44.763 -20.520   2.640  1.00  0.00     0.043 A 
HETATM   20  C   UNL     1      44.807 -20.374   4.026  1.00  0.00     0.132 A 
HETATM   21  F   UNL     1      45.721 -21.082   4.707  1.00  0.00    -0.205 F 
ENDBRANCH   9  14
ENDBRANCH   7   8
ENDBRANCH   3   7
BRANCH   1  22
HETATM   22  C   UNL     1      43.621 -13.981   4.113  1.00  0.00     0.127 C 
BRANCH  22  23
HETATM   23  N   UNL     1      42.716 -13.387   3.124  1.00  0.00    -0.376 N 
HETATM   24  H   UNL     1      42.131 -12.645   3.501  1.00  0.00     0.161 HD
BRANCH  23  25
HETATM   25  C   UNL     1      42.163 -14.146   2.104  1.00  0.00     0.101 A 
HETATM   26  N   UNL     1      42.117 -13.610   0.869  1.00  0.00    -0.347 N 
HETATM   27  C   UNL     1      41.641 -14.248  -0.218  1.00  0.00     0.007 A 
HETATM   28  H   UNL     1      42.479 -12.670   0.749  1.00  0.00     0.167 HD
HETATM   29  C   UNL     1      41.644 -13.540  -1.536  1.00  0.00     0.068 C 
HETATM   30  C   UNL     1      41.171 -15.552  -0.090  1.00  0.00     0.025 A 
HETATM   31  C   UNL     1      41.215 -16.166   1.153  1.00  0.00     0.006 A 
HETATM   32  C   UNL     1      41.717 -15.466   2.249  1.00  0.00     0.048 A 
ENDBRANCH  23  25
ENDBRANCH  22  23
ENDBRANCH   1  22
TORSDOF 6
ENDMDL
MODEL 5
REMARK VINA RESULT:      -8.4      3.028      7.119
REMARK  6 active torsions:
REMARK  status: ('A' for Active; 'I' for Inactive)
REMARK    1  A    between atoms: C_5  and  N_6 
REMARK    2  A    between atoms: N_6  and  C_7 
REMARK    3  A    between atoms: C_7  and  C_8 
REMARK    4  A    between atoms: N_10  and  C_12 
REMARK    5  A    between atoms: C_12  and  C_13 
REMARK    6  A    between atoms: C_14  and  C_15 
ROOT
HETATM    1  C   UNL     1      42.275 -14.812   4.804  1.00  0.00     0.031 C 
HETATM    2  C   UNL     1      42.109 -16.149   4.073  1.00  0.00     0.241 C 
HETATM    3  N   UNL     1      41.197 -16.985   4.953  1.00  0.00    -0.067 N 
HETATM    4  H   UNL     1      40.352 -17.205   4.407  1.00  0.00     0.280 HD
HETATM    5  C   UNL     1      40.745 -16.118   6.108  1.00  0.00     0.235 C 
HETATM    6  C   UNL     1      40.976 -14.708   5.600  1.00  0.00     0.035 C 
ENDROOT
BRANCH   3   7
HETATM    7  C   UNL     1      41.771 -18.332   5.335  1.00  0.00     0.277 C 
BRANCH   7   8
HETATM    8  C   UNL     1      43.198 -18.297   5.733  1.00  0.00     0.016 A 
HETATM    9  C   UNL     1      44.286 -19.012   5.138  1.00  0.00     0.102 A 
HETATM   10  N   UNL     1      45.441 -18.688   5.730  1.00  0.00    -0.174 NA
HETATM   11  N   UNL     1      45.110 -17.895   6.751  1.00  0.00    -0.288 N 
HETATM   12  H   UNL     1      45.848 -17.584   7.379  1.00  0.00     0.188 HD
HETATM   13  C   UNL     1      43.775 -17.605   6.785  1.00  0.00     0.120 A 
BRANCH   9  14
HETATM   14  C   UNL     1      44.279 -19.969   4.040  1.00  0.00     0.072 A 
HETATM   15  C   UNL     1      44.554 -21.323   4.244  1.00  0.00     0.132 A 
HETATM   16  F   UNL     1      44.890 -21.774   5.466  1.00  0.00    -0.205 F 
HETATM   17  C   UNL     1      44.525 -22.238   3.189  1.00  0.00     0.043 A 
HETATM   18  C   UNL     1      44.218 -21.801   1.901  1.00  0.00     0.006 A 
HETATM   19  C   UNL     1      43.951 -20.451   1.676  1.00  0.00     0.043 A 
HETATM   20  C   UNL     1      43.982 -19.550   2.739  1.00  0.00     0.132 A 
HETATM   21  F   UNL     1      43.764 -18.253   2.475  1.00  0.00    -0.205 F 
ENDBRANCH   9  14
ENDBRANCH   7   8
ENDBRANCH   3   7
BRANCH   1  22
HETATM   22  C   UNL     1      43.539 -14.790   5.692  1.00  0.00     0.127 C 
BRANCH  22  23
HETATM   23  N   UNL     1      43.292 -13.991   6.896  1.00  0.00    -0.376 N 
HETATM   24  H   UNL     1      42.352 -13.607   6.945  1.00  0.00     0.161 HD
BRANCH  23  25
HETATM   25  C   UNL     1      44.296 -13.231   7.477  1.00  0.00     0.101 A 
HETATM   26  N   UNL     1      43.964 -12.418   8.498  1.00  0.00    -0.347 N 
HETATM   27  C   UNL     1      44.843 -11.652   9.175  1.00  0.00     0.007 A 
HETATM   28  H   UNL     1      42.991 -12.391   8.783  1.00  0.00     0.167 HD
HETATM   29  C   UNL     1      44.346 -10.789  10.291  1.00  0.00     0.068 C 
HETATM   30  C   UNL     1      46.191 -11.696   8.829  1.00  0.00     0.025 A 
HETATM   31  C   UNL     1      46.596 -12.535   7.801  1.00  0.00     0.006 A 
HETATM   32  C   UNL     1      45.651 -13.307   7.130  1.00  0.00     0.048 A 
ENDBRANCH  23  25
ENDBRANCH  22  23
ENDBRANCH   1  22
TORSDOF 6
ENDMDL
MODEL 6
REMARK VINA RESULT:      -8.3      1.434      2.382
REMARK  6 active torsions:
REMARK  status: ('A' for Active; 'I' for Inactive)
REMARK    1  A    between atoms: C_5  and  N_6 
REMARK    2  A    between atoms: N_6  and  C_7 
REMARK    3  A    between atoms: C_7  and  C_8 
REMARK    4  A    between atoms: N_10  and  C_12 
REMARK    5  A    between atoms: C_12  and  C_13 
REMARK    6  A    between atoms: C_14  and  C_15 
ROOT
HETATM    1  C   UNL     1      41.392 -16.643   1.025  1.00  0.00     0.031 C 
HETATM    2  C   UNL     1      41.199 -15.815   2.300  1.00  0.00     0.241 C 
HETATM    3  N   UNL     1      41.544 -14.388   1.917  1.00  0.00    -0.067 N 
HETATM    4  H   UNL     1      40.703 -13.812   2.070  1.00  0.00     0.280 HD
HETATM    5  C   UNL     1      41.815 -14.359   0.429  1.00  0.00     0.235 C 
HETATM    6  C   UNL     1      41.134 -15.616  -0.076  1.00  0.00     0.035 C 
ENDROOT
BRANCH   3   7
HETATM    7  C   UNL     1      42.609 -13.754   2.787  1.00  0.00     0.277 C 
BRANCH   7   8
HETATM    8  C   UNL     1      42.078 -12.969   3.926  1.00  0.00     0.016 A 
HETATM    9  C   UNL     1      42.012 -13.365   5.301  1.00  0.00     0.102 A 
HETATM   10  N   UNL     1      41.520 -12.373   6.052  1.00  0.00    -0.174 NA
HETATM   11  N   UNL     1      41.161 -11.416   5.193  1.00  0.00    -0.288 N 
HETATM   12  H   UNL     1      40.699 -10.588   5.560  1.00  0.00     0.188 HD
HETATM   13  C   UNL     1      41.498 -11.712   3.902  1.00  0.00     0.120 A 
BRANCH   9  14
HETATM   14  C   UNL     1      42.397 -14.623   5.925  1.00  0.00     0.072 A 
HETATM   15  C   UNL     1      43.688 -14.836   6.412  1.00  0.00     0.132 A 
HETATM   16  F   UNL     1      44.637 -13.893   6.267  1.00  0.00    -0.205 F 
HETATM   17  C   UNL     1      44.044 -16.039   7.028  1.00  0.00     0.043 A 
HETATM   18  C   UNL     1      43.098 -17.054   7.163  1.00  0.00     0.006 A 
HETATM   19  C   UNL     1      41.806 -16.864   6.673  1.00  0.00     0.043 A 
HETATM   20  C   UNL     1      41.466 -15.657   6.062  1.00  0.00     0.132 A 
HETATM   21  F   UNL     1      40.227 -15.529   5.564  1.00  0.00    -0.205 F 
ENDBRANCH   9  14
ENDBRANCH   7   8
ENDBRANCH   3   7
BRANCH   1  22
HETATM   22  C   UNL     1      42.800 -17.275   0.951  1.00  0.00     0.127 C 
BRANCH  22  23
HETATM   23  N   UNL     1      43.414 -17.289   2.281  1.00  0.00    -0.376 N 
HETATM   24  H   UNL     1      43.986 -16.471   2.476  1.00  0.00     0.161 HD
BRANCH  23  25
HETATM   25  C   UNL     1      43.817 -18.474   2.878  1.00  0.00     0.101 A 
HETATM   26  N   UNL     1      43.837 -19.590   2.122  1.00  0.00    -0.347 N 
HETATM   27  C   UNL     1      44.239 -20.798   2.562  1.00  0.00     0.007 A 
HETATM   28  H   UNL     1      43.542 -19.509   1.154  1.00  0.00     0.167 HD
HETATM   29  C   UNL     1      44.212 -21.961   1.621  1.00  0.00     0.068 C 
HETATM   30  C   UNL     1      44.684 -20.930   3.874  1.00  0.00     0.025 A 
HETATM   31  C   UNL     1      44.710 -19.811   4.694  1.00  0.00     0.006 A 
HETATM   32  C   UNL     1      44.284 -18.582   4.194  1.00  0.00     0.048 A 
ENDBRANCH  23  25
ENDBRANCH  22  23
ENDBRANCH   1  22
TORSDOF 6
ENDMDL
MODEL 7
REMARK VINA RESULT:      -8.2      2.462      6.395
REMARK  6 active torsions:
REMARK  status: ('A' for Active; 'I' for Inactive)
REMARK    1  A    between atoms: C_5  and  N_6 
REMARK    2  A    between atoms: N_6  and  C_7 
REMARK    3  A    between atoms: C_7  and  C_8 
REMARK    4  A    between atoms: N_10  and  C_12 
REMARK    5  A    between atoms: C_12  and  C_13 
REMARK    6  A    between atoms: C_14  and  C_15 
ROOT
HETATM    1  C   UNL     1      40.405 -14.481   5.048  1.00  0.00     0.031 C 
HETATM    2  C   UNL     1      41.071 -15.539   5.934  1.00  0.00     0.241 C 
HETATM    3  N   UNL     1      42.432 -14.971   6.295  1.00  0.00    -0.067 N 
HETATM    4  H   UNL     1      42.469 -14.877   7.320  1.00  0.00     0.280 HD
HETATM    5  C   UNL     1      42.513 -13.567   5.734  1.00  0.00     0.235 C 
HETATM    6  C   UNL     1      41.059 -13.188   5.530  1.00  0.00     0.035 C 
ENDROOT
BRANCH   3   7
HETATM    7  C   UNL     1      43.593 -15.879   5.949  1.00  0.00     0.277 C 
BRANCH   7   8
HETATM    8  C   UNL     1      43.574 -17.186   6.647  1.00  0.00     0.016 A 
HETATM    9  C   UNL     1      43.585 -18.490   6.057  1.00  0.00     0.102 A 
HETATM   10  N   UNL     1      43.617 -19.434   7.003  1.00  0.00    -0.174 NA
HETATM   11  N   UNL     1      43.503 -18.783   8.163  1.00  0.00    -0.288 N 
HETATM   12  H   UNL     1      43.441 -19.331   9.019  1.00  0.00     0.188 HD
HETATM   13  C   UNL     1      43.499 -17.426   8.009  1.00  0.00     0.120 A 
BRANCH   9  14
HETATM   14  C   UNL     1      43.576 -18.873   4.652  1.00  0.00     0.072 A 
HETATM   15  C   UNL     1      42.529 -18.516   3.800  1.00  0.00     0.132 A 
HETATM   16  F   UNL     1      41.463 -17.846   4.273  1.00  0.00    -0.205 F 
HETATM   17  C   UNL     1      42.538 -18.871   2.448  1.00  0.00     0.043 A 
HETATM   18  C   UNL     1      43.608 -19.598   1.930  1.00  0.00     0.006 A 
HETATM   19  C   UNL     1      44.658 -19.973   2.768  1.00  0.00     0.043 A 
HETATM   20  C   UNL     1      44.636 -19.610   4.114  1.00  0.00     0.132 A 
HETATM   21  F   UNL     1      45.642 -20.028   4.897  1.00  0.00    -0.205 F 
ENDBRANCH   9  14
ENDBRANCH   7   8
ENDBRANCH   3   7
BRANCH   1  22
HETATM   22  C   UNL     1      40.632 -14.756   3.545  1.00  0.00     0.127 C 
BRANCH  22  23
HETATM   23  N   UNL     1      39.350 -15.011   2.882  1.00  0.00    -0.376 N 
HETATM   24  H   UNL     1      38.919 -15.892   3.152  1.00  0.00     0.161 HD
BRANCH  23  25
HETATM   25  C   UNL     1      39.110 -14.584   1.585  1.00  0.00     0.101 A 
HETATM   26  N   UNL     1      40.129 -14.625   0.705  1.00  0.00    -0.347 N 
HETATM   27  C   UNL     1      40.028 -14.274  -0.592  1.00  0.00     0.007 A 
HETATM   28  H   UNL     1      41.029 -14.955   1.040  1.00  0.00     0.167 HD
HETATM   29  C   UNL     1      41.238 -14.364  -1.466  1.00  0.00     0.068 C 
HETATM   30  C   UNL     1      38.797 -13.853  -1.088  1.00  0.00     0.025 A 
HETATM   31  C   UNL     1      37.704 -13.813  -0.234  1.00  0.00     0.006 A 
HETATM   32  C   UNL     1      37.858 -14.185   1.099  1.00  0.00     0.048 A 
ENDBRANCH  23  25
ENDBRANCH  22  23
ENDBRANCH   1  22
TORSDOF 6
ENDMDL
MODEL 8
REMARK VINA RESULT:      -8.2      2.277      5.986
REMARK  6 active torsions:
REMARK  status: ('A' for Active; 'I' for Inactive)
REMARK    1  A    between atoms: C_5  and  N_6 
REMARK    2  A    between atoms: N_6  and  C_7 
REMARK    3  A    between atoms: C_7  and  C_8 
REMARK    4  A    between atoms: N_10  and  C_12 
REMARK    5  A    between atoms: C_12  and  C_13 
REMARK    6  A    between atoms: C_14  and  C_15 
ROOT
HETATM    1  C   UNL     1      43.308 -16.634   1.559  1.00  0.00     0.031 C 
HETATM    2  C   UNL     1      43.287 -16.563   3.089  1.00  0.00     0.241 C 
HETATM    3  N   UNL     1      43.687 -17.946   3.568  1.00  0.00    -0.067 N 
HETATM    4  H   UNL     1      44.552 -17.848   4.120  1.00  0.00     0.280 HD
HETATM    5  C   UNL     1      44.050 -18.771   2.352  1.00  0.00     0.235 C 
HETATM    6  C   UNL     1      44.342 -17.726   1.294  1.00  0.00     0.035 C 
ENDROOT
BRANCH   3   7
HETATM    7  C   UNL     1      42.695 -18.584   4.517  1.00  0.00     0.277 C 
BRANCH   7   8
HETATM    8  C   UNL     1      43.021 -18.406   5.951  1.00  0.00     0.016 A 
HETATM    9  C   UNL     1      42.821 -17.235   6.751  1.00  0.00     0.102 A 
HETATM   10  N   UNL     1      43.186 -17.464   8.017  1.00  0.00    -0.174 NA
HETATM   11  N   UNL     1      43.721 -18.687   8.021  1.00  0.00    -0.288 N 
HETATM   12  H   UNL     1      44.126 -19.033   8.889  1.00  0.00     0.188 HD
HETATM   13  C   UNL     1      43.624 -19.310   6.809  1.00  0.00     0.120 A 
BRANCH   9  14
HETATM   14  C   UNL     1      42.297 -15.930   6.373  1.00  0.00     0.072 A 
HETATM   15  C   UNL     1      43.134 -14.826   6.195  1.00  0.00     0.132 A 
HETATM   16  F   UNL     1      44.455 -14.928   6.425  1.00  0.00    -0.205 F 
HETATM   17  C   UNL     1      42.625 -13.583   5.813  1.00  0.00     0.043 A 
HETATM   18  C   UNL     1      41.255 -13.429   5.603  1.00  0.00     0.006 A 
HETATM   19  C   UNL     1      40.403 -14.517   5.785  1.00  0.00     0.043 A 
HETATM   20  C   UNL     1      40.925 -15.753   6.166  1.00  0.00     0.132 A 
HETATM   21  F   UNL     1      40.069 -16.764   6.375  1.00  0.00    -0.205 F 
ENDBRANCH   9  14
ENDBRANCH   7   8
ENDBRANCH   3   7
BRANCH   1  22
HETATM   22  C   UNL     1      41.915 -16.958   0.974  1.00  0.00     0.127 C 
BRANCH  22  23
HETATM   23  N   UNL     1      41.732 -16.260  -0.302  1.00  0.00    -0.376 N 
HETATM   24  H   UNL     1      42.526 -16.347  -0.932  1.00  0.00     0.161 HD
BRANCH  23  25
HETATM   25  C   UNL     1      41.013 -15.078  -0.382  1.00  0.00     0.101 A 
HETATM   26  N   UNL     1      39.771 -15.055   0.140  1.00  0.00    -0.347 N 
HETATM   27  C   UNL     1      38.977 -13.966   0.163  1.00  0.00     0.007 A 
HETATM   28  H   UNL     1      39.418 -15.910   0.556  1.00  0.00     0.167 HD
HETATM   29  C   UNL     1      37.616 -14.072   0.772  1.00  0.00     0.068 C 
HETATM   30  C   UNL     1      39.450 -12.769  -0.367  1.00  0.00     0.025 A 
HETATM   31  C   UNL     1      40.731 -12.725  -0.897  1.00  0.00     0.006 A 
HETATM   32  C   UNL     1      41.515 -13.876  -0.899  1.00  0.00     0.048 A 
ENDBRANCH  23  25
ENDBRANCH  22  23
ENDBRANCH   1  22
TORSDOF 6
ENDMDL
MODEL 9
REMARK VINA RESULT:      -8.1      3.066      7.090
REMARK  6 active torsions:
REMARK  status: ('A' for Active; 'I' for Inactive)
REMARK    1  A    between atoms: C_5  and  N_6 
REMARK    2  A    between atoms: N_6  and  C_7 
REMARK    3  A    between atoms: C_7  and  C_8 
REMARK    4  A    between atoms: N_10  and  C_12 
REMARK    5  A    between atoms: C_12  and  C_13 
REMARK    6  A    between atoms: C_14  and  C_15 
ROOT
HETATM    1  C   UNL     1      41.048 -15.217   1.863  1.00  0.00     0.031 C 
HETATM    2  C   UNL     1      42.128 -15.565   2.894  1.00  0.00     0.241 C 
HETATM    3  N   UNL     1      42.266 -17.076   2.848  1.00  0.00    -0.067 N 
HETATM    4  H   UNL     1      43.233 -17.293   2.569  1.00  0.00     0.280 HD
HETATM    5  C   UNL     1      41.377 -17.589   1.735  1.00  0.00     0.235 C 
HETATM    6  C   UNL     1      41.165 -16.366   0.864  1.00  0.00     0.035 C 
ENDROOT
BRANCH   3   7
HETATM    7  C   UNL     1      42.089 -17.755   4.189  1.00  0.00     0.277 C 
BRANCH   7   8
HETATM    8  C   UNL     1      43.298 -17.739   5.045  1.00  0.00     0.016 A 
HETATM    9  C   UNL     1      44.317 -18.741   5.133  1.00  0.00     0.102 A 
HETATM   10  N   UNL     1      45.283 -18.356   5.973  1.00  0.00    -0.174 NA
HETATM   11  N   UNL     1      44.857 -17.211   6.510  1.00  0.00    -0.288 N 
HETATM   12  H   UNL     1      45.425 -16.777   7.235  1.00  0.00     0.188 HD
HETATM   13  C   UNL     1      43.679 -16.779   5.968  1.00  0.00     0.120 A 
BRANCH   9  14
HETATM   14  C   UNL     1      44.416 -20.027   4.457  1.00  0.00     0.072 A 
HETATM   15  C   UNL     1      44.540 -20.119   3.069  1.00  0.00     0.132 A 
HETATM   16  F   UNL     1      44.517 -19.012   2.306  1.00  0.00    -0.205 F 
HETATM   17  C   UNL     1      44.655 -21.357   2.430  1.00  0.00     0.043 A 
HETATM   18  C   UNL     1      44.645 -22.529   3.184  1.00  0.00     0.006 A 
HETATM   19  C   UNL     1      44.511 -22.458   4.570  1.00  0.00     0.043 A 
HETATM   20  C   UNL     1      44.399 -21.215   5.193  1.00  0.00     0.132 A 
HETATM   21  F   UNL     1      44.227 -21.189   6.524  1.00  0.00    -0.205 F 
ENDBRANCH   9  14
ENDBRANCH   7   8
ENDBRANCH   3   7
BRANCH   1  22
HETATM   22  C   UNL     1      39.648 -15.107   2.505  1.00  0.00     0.127 C 
BRANCH  22  23
HETATM   23  N   UNL     1      38.613 -15.214   1.473  1.00  0.00    -0.376 N 
HETATM   24  H   UNL     1      38.575 -16.128   1.027  1.00  0.00     0.161 HD
BRANCH  23  25
HETATM   25  C   UNL     1      38.268 -14.130   0.680  1.00  0.00     0.101 A 
HETATM   26  N   UNL     1      38.339 -14.275  -0.657  1.00  0.00    -0.347 N 
HETATM   27  C   UNL     1      38.001 -13.318  -1.544  1.00  0.00     0.007 A 
HETATM   28  H   UNL     1      38.655 -15.169  -1.019  1.00  0.00     0.167 HD
HETATM   29  C   UNL     1      38.127 -13.604  -3.006  1.00  0.00     0.068 C 
HETATM   30  C   UNL     1      37.530 -12.094  -1.076  1.00  0.00     0.025 A 
HETATM   31  C   UNL     1      37.411 -11.895   0.291  1.00  0.00     0.006 A 
HETATM   32  C   UNL     1      37.774 -12.914   1.170  1.00  0.00     0.048 A 
ENDBRANCH  23  25
ENDBRANCH  22  23
ENDBRANCH   1  22
TORSDOF 6
ENDMDL
MODEL 10
REMARK VINA RESULT:      -8.0      3.732      6.561
REMARK  6 active torsions:
REMARK  status: ('A' for Active; 'I' for Inactive)
REMARK    1  A    between atoms: C_5  and  N_6 
REMARK    2  A    between atoms: N_6  and  C_7 
REMARK    3  A    between atoms: C_7  and  C_8 
REMARK    4  A    between atoms: N_10  and  C_12 
REMARK    5  A    between atoms: C_12  and  C_13 
REMARK    6  A    between atoms: C_14  and  C_15 
ROOT
HETATM    1  C   UNL     1      41.235 -17.189   2.308  1.00  0.00     0.031 C 
HETATM    2  C   UNL     1      40.006 -16.309   2.050  1.00  0.00     0.241 C 
HETATM    3  N   UNL     1      40.271 -15.614   0.727  1.00  0.00    -0.067 N 
HETATM    4  H   UNL     1      39.528 -15.896   0.072  1.00  0.00     0.280 HD
HETATM    5  C   UNL     1      41.565 -16.163   0.166  1.00  0.00     0.235 C 
HETATM    6  C   UNL     1      41.731 -17.482   0.894  1.00  0.00     0.035 C 
ENDROOT
BRANCH   3   7
HETATM    7  C   UNL     1      40.176 -14.105   0.791  1.00  0.00     0.277 C 
BRANCH   7   8
HETATM    8  C   UNL     1      40.989 -13.399  -0.227  1.00  0.00     0.016 A 
HETATM    9  C   UNL     1      40.821 -13.428  -1.649  1.00  0.00     0.102 A 
HETATM   10  N   UNL     1      41.709 -12.624  -2.243  1.00  0.00    -0.174 NA
HETATM   11  N   UNL     1      42.505 -12.184  -1.266  1.00  0.00    -0.288 N 
HETATM   12  H   UNL     1      43.300 -11.600  -1.518  1.00  0.00     0.188 HD
HETATM   13  C   UNL     1      42.102 -12.599  -0.029  1.00  0.00     0.120 A 
BRANCH   9  14
HETATM   14  C   UNL     1      39.863 -14.170  -2.456  1.00  0.00     0.072 A 
HETATM   15  C   UNL     1      40.235 -15.305  -3.180  1.00  0.00     0.132 A 
HETATM   16  F   UNL     1      41.516 -15.715  -3.195  1.00  0.00    -0.205 F 
HETATM   17  C   UNL     1      39.305 -16.023  -3.936  1.00  0.00     0.043 A 
HETATM   18  C   UNL     1      37.975 -15.606  -3.976  1.00  0.00     0.006 A 
HETATM   19  C   UNL     1      37.586 -14.470  -3.268  1.00  0.00     0.043 A 
HETATM   20  C   UNL     1      38.526 -13.764  -2.517  1.00  0.00     0.132 A 
HETATM   21  F   UNL     1      38.123 -12.651  -1.886  1.00  0.00    -0.205 F 
ENDBRANCH   9  14
ENDBRANCH   7   8
ENDBRANCH   3   7
BRANCH   1  22
HETATM   22  C   UNL     1      42.285 -16.475   3.187  1.00  0.00     0.127 C 
BRANCH  22  23
HETATM   23  N   UNL     1      43.608 -17.066   2.969  1.00  0.00    -0.376 N 
HETATM   24  H   UNL     1      43.990 -16.880   2.045  1.00  0.00     0.161 HD
BRANCH  23  25
HETATM   25  C   UNL     1      43.963 -18.275   3.547  1.00  0.00     0.101 A 
HETATM   26  N   UNL     1      44.071 -19.353   2.747  1.00  0.00    -0.347 N 
HETATM   27  C   UNL     1      44.441 -20.578   3.169  1.00  0.00     0.007 A 
HETATM   28  H   UNL     1      43.873 -19.230   1.759  1.00  0.00     0.167 HD
HETATM   29  C   UNL     1      44.521 -21.695   2.178  1.00  0.00     0.068 C 
HETATM   30  C   UNL     1      44.754 -20.769   4.512  1.00  0.00     0.025 A 
HETATM   31  C   UNL     1      44.686 -19.689   5.380  1.00  0.00     0.006 A 
HETATM   32  C   UNL     1      44.297 -18.441   4.898  1.00  0.00     0.048 A 
ENDBRANCH  23  25
ENDBRANCH  22  23
ENDBRANCH   1  22
TORSDOF 6
ENDMDL
