MODEL 1
REMARK VINA RESULT:      -8.7      0.000      0.000
REMARK  6 active torsions:
REMARK  status: ('A' for Active; 'I' for Inactive)
REMARK    1  A    between atoms: C_3  and  C_4 
REMARK    2  A    between atoms: C_4  and  C_5 
REMARK       I    between atoms: C_5  and  N_6 
REMARK    3  A    between atoms: N_6  and  C_7 
REMARK    4  A    between atoms: C_9  and  C_10 
REMARK    5  A    between atoms: C_11  and  C_12 
REMARK    6  A    between atoms: C_22  and  O_23 
ROOT
HETATM    1  C   UNL     1      43.597 -14.286   6.484  1.00  0.00     0.036 A 
HETATM    2  C   UNL     1      43.777 -15.584   6.000  1.00  0.00     0.050 A 
HETATM    3  C   UNL     1      43.208 -15.972   4.781  1.00  0.00     0.020 A 
HETATM    4  C   UNL     1      42.448 -15.066   4.042  1.00  0.00     0.021 A 
HETATM    5  C   UNL     1      42.260 -13.769   4.518  1.00  0.00     0.004 A 
HETATM    6  C   UNL     1      42.837 -13.381   5.730  1.00  0.00     0.029 A 
ENDROOT
BRANCH   1   7
HETATM    7  N   UNL     1      44.172 -13.804   7.680  1.00  0.00    -0.327 N 
HETATM    8  C   UNL     1      45.367 -13.122   7.819  1.00  0.00     0.226 C 
HETATM    9  O   UNL     1      46.210 -12.934   6.945  1.00  0.00    -0.273 OA
HETATM   10  H   UNL     1      43.667 -14.021   8.530  1.00  0.00     0.169 HD
BRANCH   8  11
HETATM   11  C   UNL     1      45.606 -12.590   9.222  1.00  0.00     0.144 C 
BRANCH  11  12
HETATM   12  C   UNL     1      44.387 -11.944   9.833  1.00  0.00    -0.016 A 
HETATM   13  C   UNL     1      43.763 -10.882   9.153  1.00  0.00     0.010 A 
HETATM   14  C   UNL     1      42.676 -10.209   9.717  1.00  0.00     0.001 A 
HETATM   15  C   UNL     1      42.200 -10.581  10.970  1.00  0.00     0.003 A 
HETATM   16  C   UNL     1      42.806 -11.630  11.657  1.00  0.00     0.037 A 
HETATM   17  C   UNL     1      43.881 -12.311  11.088  1.00  0.00     0.072 A 
BRANCH  17  18
HETATM   18  O   UNL     1      44.411 -13.321  11.839  1.00  0.00    -0.360 OA
HETATM   19  H   UNL     1      44.435 -13.060  12.784  1.00  0.00     0.217 HD
ENDBRANCH  17  18
ENDBRANCH  11  12
ENDBRANCH   8  11
ENDBRANCH   1   7
BRANCH   3  20
HETATM   20  C   UNL     1      43.431 -17.295   4.282  1.00  0.00    -0.060 C 
HETATM   21  C   UNL     1      43.641 -18.409   3.887  1.00  0.00    -0.041 C 
BRANCH  21  22
HETATM   22  C   UNL     1      43.915 -19.736   3.437  1.00  0.00     0.110 A 
HETATM   23  N   UNL     1      44.516 -20.531   4.347  1.00  0.00    -0.252 NA
HETATM   24  C   UNL     1      44.800 -21.792   3.958  1.00  0.00     0.118 A 
HETATM   25  C   UNL     1      44.511 -22.293   2.699  1.00  0.00     0.019 A 
HETATM   26  C   UNL     1      43.892 -21.451   1.780  1.00  0.00     0.004 A 
HETATM   27  C   UNL     1      43.585 -20.144   2.153  1.00  0.00     0.041 A 
ENDBRANCH  21  22
ENDBRANCH   3  20
TORSDOF 6
ENDMDL
MODEL 2
REMARK VINA RESULT:      -8.4      2.585      9.948
REMARK  6 active torsions:
REMARK  status: ('A' for Active; 'I' for Inactive)
REMARK    1  A    between atoms: C_3  and  C_4 
REMARK    2  A    between atoms: C_4  and  C_5 
REMARK       I    between atoms: C_5  and  N_6 
REMARK    3  A    between atoms: N_6  and  C_7 
REMARK    4  A    between atoms: C_9  and  C_10 
REMARK    5  A    between atoms: C_11  and  C_12 
REMARK    6  A    between atoms: C_22  and  O_23 
ROOT
HETATM    1  C   UNL     1      44.554 -13.956   7.065  1.00  0.00     0.036 A 
HETATM    2  C   UNL     1      44.022 -13.363   8.212  1.00  0.00     0.050 A 
HETATM    3  C   UNL     1      44.777 -12.443   8.951  1.00  0.00     0.020 A 
HETATM    4  C   UNL     1      46.073 -12.118   8.552  1.00  0.00     0.021 A 
HETATM    5  C   UNL     1      46.614 -12.707   7.410  1.00  0.00     0.004 A 
HETATM    6  C   UNL     1      45.856 -13.617   6.669  1.00  0.00     0.029 A 
ENDROOT
BRANCH   1   7
HETATM    7  N   UNL     1      43.845 -14.858   6.242  1.00  0.00    -0.327 N 
HETATM    8  C   UNL     1      43.901 -16.239   6.271  1.00  0.00     0.226 C 
HETATM    9  O   UNL     1      44.682 -16.928   6.925  1.00  0.00    -0.273 OA
HETATM   10  H   UNL     1      43.264 -14.438   5.528  1.00  0.00     0.169 HD
BRANCH   8  11
HETATM   11  C   UNL     1      42.877 -16.910   5.371  1.00  0.00     0.144 C 
BRANCH  11  12
HETATM   12  C   UNL     1      43.485 -17.895   4.403  1.00  0.00    -0.016 A 
HETATM   13  C   UNL     1      43.621 -17.530   3.052  1.00  0.00     0.010 A 
HETATM   14  C   UNL     1      44.111 -18.437   2.109  1.00  0.00     0.001 A 
HETATM   15  C   UNL     1      44.467 -19.724   2.500  1.00  0.00     0.003 A 
HETATM   16  C   UNL     1      44.340 -20.102   3.834  1.00  0.00     0.037 A 
HETATM   17  C   UNL     1      43.863 -19.193   4.777  1.00  0.00     0.072 A 
BRANCH  17  18
HETATM   18  O   UNL     1      43.769 -19.657   6.058  1.00  0.00    -0.360 OA
HETATM   19  H   UNL     1      42.859 -19.977   6.233  1.00  0.00     0.217 HD
ENDBRANCH  17  18
ENDBRANCH  11  12
ENDBRANCH   8  11
ENDBRANCH   1   7
BRANCH   3  20
HETATM   20  C   UNL     1      44.204 -11.819  10.105  1.00  0.00    -0.060 C 
HETATM   21  C   UNL     1      43.712 -11.324  11.082  1.00  0.00    -0.041 C 
BRANCH  21  22
HETATM   22  C   UNL     1      43.116 -10.764  12.252  1.00  0.00     0.110 A 
HETATM   23  N   UNL     1      41.921 -11.296  12.589  1.00  0.00    -0.252 NA
HETATM   24  C   UNL     1      41.319 -10.787  13.685  1.00  0.00     0.118 A 
HETATM   25  C   UNL     1      41.857  -9.770  14.458  1.00  0.00     0.019 A 
HETATM   26  C   UNL     1      43.089  -9.241  14.086  1.00  0.00     0.004 A 
HETATM   27  C   UNL     1      43.736  -9.746  12.960  1.00  0.00     0.041 A 
ENDBRANCH  21  22
ENDBRANCH   3  20
TORSDOF 6
ENDMDL
MODEL 3
REMARK VINA RESULT:      -8.2      5.397      8.865
REMARK  6 active torsions:
REMARK  status: ('A' for Active; 'I' for Inactive)
REMARK    1  A    between atoms: C_3  and  C_4 
REMARK    2  A    between atoms: C_4  and  C_5 
REMARK       I    between atoms: C_5  and  N_6 
REMARK    3  A    between atoms: N_6  and  C_7 
REMARK    4  A    between atoms: C_9  and  C_10 
REMARK    5  A    between atoms: C_11  and  C_12 
REMARK    6  A    between atoms: C_22  and  O_23 
ROOT
HETATM    1  C   UNL     1      42.180 -14.348   1.676  1.00  0.00     0.036 A 
HETATM    2  C   UNL     1      42.572 -15.675   1.870  1.00  0.00     0.050 A 
HETATM    3  C   UNL     1      43.241 -16.054   3.041  1.00  0.00     0.020 A 
HETATM    4  C   UNL     1      43.529 -15.105   4.022  1.00  0.00     0.021 A 
HETATM    5  C   UNL     1      43.145 -13.778   3.836  1.00  0.00     0.004 A 
HETATM    6  C   UNL     1      42.470 -13.404   2.671  1.00  0.00     0.029 A 
ENDROOT
BRANCH   1   7
HETATM    7  N   UNL     1      41.466 -13.894   0.546  1.00  0.00    -0.327 N 
HETATM    8  C   UNL     1      40.104 -13.980   0.327  1.00  0.00     0.226 C 
HETATM    9  O   UNL     1      39.288 -14.592   1.014  1.00  0.00    -0.273 OA
HETATM   10  H   UNL     1      42.026 -13.499  -0.199  1.00  0.00     0.169 HD
BRANCH   8  11
HETATM   11  C   UNL     1      39.637 -13.234  -0.912  1.00  0.00     0.144 C 
BRANCH  11  12
HETATM   12  C   UNL     1      39.291 -14.145  -2.064  1.00  0.00    -0.016 A 
HETATM   13  C   UNL     1      37.955 -14.220  -2.499  1.00  0.00     0.010 A 
HETATM   14  C   UNL     1      37.579 -15.104  -3.514  1.00  0.00     0.001 A 
HETATM   15  C   UNL     1      38.529 -15.932  -4.104  1.00  0.00     0.003 A 
HETATM   16  C   UNL     1      39.856 -15.871  -3.684  1.00  0.00     0.037 A 
HETATM   17  C   UNL     1      40.233 -14.980  -2.682  1.00  0.00     0.072 A 
BRANCH  17  18
HETATM   18  O   UNL     1      41.555 -14.997  -2.336  1.00  0.00    -0.360 OA
HETATM   19  H   UNL     1      41.785 -14.176  -1.852  1.00  0.00     0.217 HD
ENDBRANCH  17  18
ENDBRANCH  11  12
ENDBRANCH   8  11
ENDBRANCH   1   7
BRANCH   3  20
HETATM   20  C   UNL     1      43.605 -17.423   3.239  1.00  0.00    -0.060 C 
HETATM   21  C   UNL     1      43.881 -18.582   3.392  1.00  0.00    -0.041 C 
BRANCH  21  22
HETATM   22  C   UNL     1      44.183 -19.967   3.562  1.00  0.00     0.110 A 
HETATM   23  N   UNL     1      44.555 -20.317   4.812  1.00  0.00    -0.252 NA
HETATM   24  C   UNL     1      44.857 -21.617   5.012  1.00  0.00     0.118 A 
HETATM   25  C   UNL     1      44.806 -22.582   4.019  1.00  0.00     0.019 A 
HETATM   26  C   UNL     1      44.420 -22.193   2.740  1.00  0.00     0.004 A 
HETATM   27  C   UNL     1      44.101 -20.858   2.502  1.00  0.00     0.041 A 
ENDBRANCH  21  22
ENDBRANCH   3  20
TORSDOF 6
ENDMDL
MODEL 4
REMARK VINA RESULT:      -8.2      5.736      9.176
REMARK  6 active torsions:
REMARK  status: ('A' for Active; 'I' for Inactive)
REMARK    1  A    between atoms: C_3  and  C_4 
REMARK    2  A    between atoms: C_4  and  C_5 
REMARK       I    between atoms: C_5  and  N_6 
REMARK    3  A    between atoms: N_6  and  C_7 
REMARK    4  A    between atoms: C_9  and  C_10 
REMARK    5  A    between atoms: C_11  and  C_12 
REMARK    6  A    between atoms: C_22  and  O_23 
ROOT
HETATM    1  C   UNL     1      41.809 -13.887   0.965  1.00  0.00     0.036 A 
HETATM    2  C   UNL     1      42.139 -15.238   1.104  1.00  0.00     0.050 A 
HETATM    3  C   UNL     1      42.830 -15.687   2.236  1.00  0.00     0.020 A 
HETATM    4  C   UNL     1      43.205 -14.786   3.232  1.00  0.00     0.021 A 
HETATM    5  C   UNL     1      42.883 -13.436   3.101  1.00  0.00     0.004 A 
HETATM    6  C   UNL     1      42.185 -12.992   1.976  1.00  0.00     0.029 A 
ENDROOT
BRANCH   1   7
HETATM    7  N   UNL     1      41.077 -13.362  -0.122  1.00  0.00    -0.327 N 
HETATM    8  C   UNL     1      41.575 -12.942  -1.342  1.00  0.00     0.226 C 
HETATM    9  O   UNL     1      42.759 -12.822  -1.648  1.00  0.00    -0.273 OA
HETATM   10  H   UNL     1      40.084 -13.245   0.032  1.00  0.00     0.169 HD
BRANCH   8  11
HETATM   11  C   UNL     1      40.496 -12.597  -2.355  1.00  0.00     0.144 C 
BRANCH  11  12
HETATM   12  C   UNL     1      39.801 -13.809  -2.924  1.00  0.00    -0.016 A 
HETATM   13  C   UNL     1      38.398 -13.882  -2.868  1.00  0.00     0.010 A 
HETATM   14  C   UNL     1      37.719 -15.017  -3.318  1.00  0.00     0.001 A 
HETATM   15  C   UNL     1      38.431 -16.100  -3.824  1.00  0.00     0.003 A 
HETATM   16  C   UNL     1      39.822 -16.045  -3.886  1.00  0.00     0.037 A 
HETATM   17  C   UNL     1      40.498 -14.907  -3.450  1.00  0.00     0.072 A 
BRANCH  17  18
HETATM   18  O   UNL     1      41.860 -14.950  -3.547  1.00  0.00    -0.360 OA
HETATM   19  H   UNL     1      42.250 -14.145  -3.143  1.00  0.00     0.217 HD
ENDBRANCH  17  18
ENDBRANCH  11  12
ENDBRANCH   8  11
ENDBRANCH   1   7
BRANCH   3  20
HETATM   20  C   UNL     1      43.130 -17.079   2.378  1.00  0.00    -0.060 C 
HETATM   21  C   UNL     1      43.411 -18.240   2.510  1.00  0.00    -0.041 C 
BRANCH  21  22
HETATM   22  C   UNL     1      43.774 -19.610   2.676  1.00  0.00     0.110 A 
HETATM   23  N   UNL     1      44.416 -19.891   3.830  1.00  0.00    -0.252 NA
HETATM   24  C   UNL     1      44.785 -21.175   4.022  1.00  0.00     0.118 A 
HETATM   25  C   UNL     1      44.541 -22.191   3.111  1.00  0.00     0.019 A 
HETATM   26  C   UNL     1      43.877 -21.873   1.930  1.00  0.00     0.004 A 
HETATM   27  C   UNL     1      43.483 -20.556   1.704  1.00  0.00     0.041 A 
ENDBRANCH  21  22
ENDBRANCH   3  20
TORSDOF 6
ENDMDL
MODEL 5
REMARK VINA RESULT:      -8.0      3.016      9.210
REMARK  6 active torsions:
REMARK  status: ('A' for Active; 'I' for Inactive)
REMARK    1  A    between atoms: C_3  and  C_4 
REMARK    2  A    between atoms: C_4  and  C_5 
REMARK       I    between atoms: C_5  and  N_6 
REMARK    3  A    between atoms: N_6  and  C_7 
REMARK    4  A    between atoms: C_9  and  C_10 
REMARK    5  A    between atoms: C_11  and  C_12 
REMARK    6  A    between atoms: C_22  and  O_23 
ROOT
HETATM    1  C   UNL     1      42.112 -16.697   3.311  1.00  0.00     0.036 A 
HETATM    2  C   UNL     1      42.837 -15.993   4.276  1.00  0.00     0.050 A 
HETATM    3  C   UNL     1      42.315 -14.823   4.841  1.00  0.00     0.020 A 
HETATM    4  C   UNL     1      41.068 -14.345   4.438  1.00  0.00     0.021 A 
HETATM    5  C   UNL     1      40.339 -15.039   3.473  1.00  0.00     0.004 A 
HETATM    6  C   UNL     1      40.858 -16.211   2.918  1.00  0.00     0.029 A 
ENDROOT
BRANCH   1   7
HETATM    7  N   UNL     1      42.547 -17.906   2.724  1.00  0.00    -0.327 N 
HETATM    8  C   UNL     1      43.690 -18.107   1.972  1.00  0.00     0.226 C 
HETATM    9  O   UNL     1      44.461 -17.241   1.563  1.00  0.00    -0.273 OA
HETATM   10  H   UNL     1      41.928 -18.698   2.838  1.00  0.00     0.169 HD
BRANCH   8  11
HETATM   11  C   UNL     1      43.953 -19.567   1.642  1.00  0.00     0.144 C 
BRANCH  11  12
HETATM   12  C   UNL     1      44.216 -20.418   2.860  1.00  0.00    -0.016 A 
HETATM   13  C   UNL     1      44.373 -19.792   4.110  1.00  0.00     0.010 A 
HETATM   14  C   UNL     1      44.689 -20.536   5.250  1.00  0.00     0.001 A 
HETATM   15  C   UNL     1      44.859 -21.914   5.158  1.00  0.00     0.003 A 
HETATM   16  C   UNL     1      44.706 -22.549   3.928  1.00  0.00     0.037 A 
HETATM   17  C   UNL     1      44.378 -21.809   2.794  1.00  0.00     0.072 A 
BRANCH  17  18
HETATM   18  O   UNL     1      44.255 -22.520   1.634  1.00  0.00    -0.360 OA
HETATM   19  H   UNL     1      44.558 -21.978   0.875  1.00  0.00     0.217 HD
ENDBRANCH  17  18
ENDBRANCH  11  12
ENDBRANCH   8  11
ENDBRANCH   1   7
BRANCH   3  20
HETATM   20  C   UNL     1      43.054 -14.132   5.853  1.00  0.00    -0.060 C 
HETATM   21  C   UNL     1      43.654 -13.527   6.700  1.00  0.00    -0.041 C 
BRANCH  21  22
HETATM   22  C   UNL     1      44.347 -12.785   7.703  1.00  0.00     0.110 A 
HETATM   23  N   UNL     1      43.569 -11.958   8.435  1.00  0.00    -0.252 NA
HETATM   24  C   UNL     1      44.188 -11.231   9.389  1.00  0.00     0.118 A 
HETATM   25  C   UNL     1      45.549 -11.292   9.644  1.00  0.00     0.019 A 
HETATM   26  C   UNL     1      46.326 -12.152   8.873  1.00  0.00     0.004 A 
HETATM   27  C   UNL     1      45.715 -12.917   7.882  1.00  0.00     0.041 A 
ENDBRANCH  21  22
ENDBRANCH   3  20
TORSDOF 6
ENDMDL
MODEL 6
REMARK VINA RESULT:      -7.9      3.527      8.893
REMARK  6 active torsions:
REMARK  status: ('A' for Active; 'I' for Inactive)
REMARK    1  A    between atoms: C_3  and  C_4 
REMARK    2  A    between atoms: C_4  and  C_5 
REMARK       I    between atoms: C_5  and  N_6 
REMARK    3  A    between atoms: N_6  and  C_7 
REMARK    4  A    between atoms: C_9  and  C_10 
REMARK    5  A    between atoms: C_11  and  C_12 
REMARK    6  A    between atoms: C_22  and  O_23 
ROOT
HETATM    1  C   UNL     1      43.197 -16.902   4.211  1.00  0.00     0.036 A 
HETATM    2  C   UNL     1      43.447 -15.831   5.073  1.00  0.00     0.050 A 
HETATM    3  C   UNL     1      44.154 -16.031   6.265  1.00  0.00     0.020 A 
HETATM    4  C   UNL     1      44.606 -17.305   6.608  1.00  0.00     0.021 A 
HETATM    5  C   UNL     1      44.358 -18.380   5.756  1.00  0.00     0.004 A 
HETATM    6  C   UNL     1      43.661 -18.177   4.562  1.00  0.00     0.029 A 
ENDROOT
BRANCH   1   7
HETATM    7  N   UNL     1      42.531 -16.778   2.972  1.00  0.00    -0.327 N 
HETATM    8  C   UNL     1      43.079 -16.918   1.710  1.00  0.00     0.226 C 
HETATM    9  O   UNL     1      44.271 -17.040   1.437  1.00  0.00    -0.273 OA
HETATM   10  H   UNL     1      41.555 -16.517   3.021  1.00  0.00     0.169 HD
BRANCH   8  11
HETATM   11  C   UNL     1      42.049 -16.897   0.593  1.00  0.00     0.144 C 
BRANCH  11  12
HETATM   12  C   UNL     1      41.102 -15.726   0.674  1.00  0.00    -0.016 A 
HETATM   13  C   UNL     1      41.430 -14.535   0.001  1.00  0.00     0.010 A 
HETATM   14  C   UNL     1      40.617 -13.403   0.109  1.00  0.00     0.001 A 
HETATM   15  C   UNL     1      39.470 -13.441   0.896  1.00  0.00     0.003 A 
HETATM   16  C   UNL     1      39.131 -14.612   1.568  1.00  0.00     0.037 A 
HETATM   17  C   UNL     1      39.934 -15.745   1.449  1.00  0.00     0.072 A 
BRANCH  17  18
HETATM   18  O   UNL     1      39.522 -16.843   2.150  1.00  0.00    -0.360 OA
HETATM   19  H   UNL     1      38.569 -16.766   2.364  1.00  0.00     0.217 HD
ENDBRANCH  17  18
ENDBRANCH  11  12
ENDBRANCH   8  11
ENDBRANCH   1   7
BRANCH   3  20
HETATM   20  C   UNL     1      44.432 -14.918   7.120  1.00  0.00    -0.060 C 
HETATM   21  C   UNL     1      44.675 -14.004   7.862  1.00  0.00    -0.041 C 
BRANCH  21  22
HETATM   22  C   UNL     1      44.969 -12.939   8.766  1.00  0.00     0.110 A 
HETATM   23  N   UNL     1      44.260 -12.958   9.914  1.00  0.00    -0.252 NA
HETATM   24  C   UNL     1      44.502 -11.962  10.792  1.00  0.00     0.118 A 
HETATM   25  C   UNL     1      45.422 -10.948  10.573  1.00  0.00     0.019 A 
HETATM   26  C   UNL     1      46.138 -10.954   9.381  1.00  0.00     0.004 A 
HETATM   27  C   UNL     1      45.911 -11.970   8.455  1.00  0.00     0.041 A 
ENDBRANCH  21  22
ENDBRANCH   3  20
TORSDOF 6
ENDMDL
MODEL 7
REMARK VINA RESULT:      -7.8      5.416      9.893
REMARK  6 active torsions:
REMARK  status: ('A' for Active; 'I' for Inactive)
REMARK    1  A    between atoms: C_3  and  C_4 
REMARK    2  A    between atoms: C_4  and  C_5 
REMARK       I    between atoms: C_5  and  N_6 
REMARK    3  A    between atoms: N_6  and  C_7 
REMARK    4  A    between atoms: C_9  and  C_10 
REMARK    5  A    between atoms: C_11  and  C_12 
REMARK    6  A    between atoms: C_22  and  O_23 
ROOT
HETATM    1  C   UNL     1      41.307 -16.934   2.727  1.00  0.00     0.036 A 
HETATM    2  C   UNL     1      40.495 -16.139   1.913  1.00  0.00     0.050 A 
HETATM    3  C   UNL     1      39.826 -15.029   2.445  1.00  0.00     0.020 A 
HETATM    4  C   UNL     1      39.958 -14.713   3.798  1.00  0.00     0.021 A 
HETATM    5  C   UNL     1      40.762 -15.502   4.618  1.00  0.00     0.004 A 
HETATM    6  C   UNL     1      41.436 -16.603   4.083  1.00  0.00     0.029 A 
ENDROOT
BRANCH   1   7
HETATM    7  N   UNL     1      42.048 -18.041   2.260  1.00  0.00    -0.327 N 
HETATM    8  C   UNL     1      43.398 -18.079   1.963  1.00  0.00     0.226 C 
HETATM    9  O   UNL     1      44.166 -17.121   1.920  1.00  0.00    -0.273 OA
HETATM   10  H   UNL     1      41.517 -18.885   2.088  1.00  0.00     0.169 HD
BRANCH   8  11
HETATM   11  C   UNL     1      43.915 -19.474   1.655  1.00  0.00     0.144 C 
BRANCH  11  12
HETATM   12  C   UNL     1      44.171 -20.303   2.889  1.00  0.00    -0.016 A 
HETATM   13  C   UNL     1      44.300 -19.657   4.131  1.00  0.00     0.010 A 
HETATM   14  C   UNL     1      44.610 -20.379   5.287  1.00  0.00     0.001 A 
HETATM   15  C   UNL     1      44.803 -21.755   5.219  1.00  0.00     0.003 A 
HETATM   16  C   UNL     1      44.679 -22.411   3.996  1.00  0.00     0.037 A 
HETATM   17  C   UNL     1      44.357 -21.693   2.846  1.00  0.00     0.072 A 
BRANCH  17  18
HETATM   18  O   UNL     1      44.263 -22.422   1.695  1.00  0.00    -0.360 OA
HETATM   19  H   UNL     1      43.555 -22.057   1.123  1.00  0.00     0.217 HD
ENDBRANCH  17  18
ENDBRANCH  11  12
ENDBRANCH   8  11
ENDBRANCH   1   7
BRANCH   3  20
HETATM   20  C   UNL     1      39.026 -14.206   1.591  1.00  0.00    -0.060 C 
HETATM   21  C   UNL     1      38.342 -13.500   0.901  1.00  0.00    -0.041 C 
BRANCH  21  22
HETATM   22  C   UNL     1      37.517 -12.648   0.106  1.00  0.00     0.110 A 
HETATM   23  N   UNL     1      37.830 -12.621  -1.207  1.00  0.00    -0.252 NA
HETATM   24  C   UNL     1      37.078 -11.821  -1.993  1.00  0.00     0.118 A 
HETATM   25  C   UNL     1      36.029 -11.045  -1.524  1.00  0.00     0.019 A 
HETATM   26  C   UNL     1      35.730 -11.092  -0.166  1.00  0.00     0.004 A 
HETATM   27  C   UNL     1      36.487 -11.910   0.671  1.00  0.00     0.041 A 
ENDBRANCH  21  22
ENDBRANCH   3  20
TORSDOF 6
ENDMDL
MODEL 8
REMARK VINA RESULT:      -7.7      4.582      7.715
REMARK  6 active torsions:
REMARK  status: ('A' for Active; 'I' for Inactive)
REMARK    1  A    between atoms: C_3  and  C_4 
REMARK    2  A    between atoms: C_4  and  C_5 
REMARK       I    between atoms: C_5  and  N_6 
REMARK    3  A    between atoms: N_6  and  C_7 
REMARK    4  A    between atoms: C_9  and  C_10 
REMARK    5  A    between atoms: C_11  and  C_12 
REMARK    6  A    between atoms: C_22  and  O_23 
ROOT
HETATM    1  C   UNL     1      42.626 -13.632   2.914  1.00  0.00     0.036 A 
HETATM    2  C   UNL     1      42.893 -14.985   2.693  1.00  0.00     0.050 A 
HETATM    3  C   UNL     1      43.262 -15.818   3.757  1.00  0.00     0.020 A 
HETATM    4  C   UNL     1      43.375 -15.300   5.047  1.00  0.00     0.021 A 
HETATM    5  C   UNL     1      43.114 -13.950   5.277  1.00  0.00     0.004 A 
HETATM    6  C   UNL     1      42.736 -13.123   4.216  1.00  0.00     0.029 A 
ENDROOT
BRANCH   1   7
HETATM    7  N   UNL     1      42.207 -12.736   1.906  1.00  0.00    -0.327 N 
HETATM    8  C   UNL     1      40.922 -12.554   1.429  1.00  0.00     0.226 C 
HETATM    9  O   UNL     1      39.936 -13.237   1.700  1.00  0.00    -0.273 OA
HETATM   10  H   UNL     1      42.941 -12.201   1.460  1.00  0.00     0.169 HD
BRANCH   8  11
HETATM   11  C   UNL     1      40.788 -11.385   0.468  1.00  0.00     0.144 C 
BRANCH  11  12
HETATM   12  C   UNL     1      41.120 -11.744  -0.959  1.00  0.00    -0.016 A 
HETATM   13  C   UNL     1      40.097 -12.213  -1.803  1.00  0.00     0.010 A 
HETATM   14  C   UNL     1      40.376 -12.624  -3.109  1.00  0.00     0.001 A 
HETATM   15  C   UNL     1      41.680 -12.580  -3.591  1.00  0.00     0.003 A 
HETATM   16  C   UNL     1      42.705 -12.118  -2.768  1.00  0.00     0.037 A 
HETATM   17  C   UNL     1      42.426 -11.695  -1.470  1.00  0.00     0.072 A 
BRANCH  17  18
HETATM   18  O   UNL     1      43.497 -11.264  -0.740  1.00  0.00    -0.360 OA
HETATM   19  H   UNL     1      44.164 -11.979  -0.669  1.00  0.00     0.217 HD
ENDBRANCH  17  18
ENDBRANCH  11  12
ENDBRANCH   8  11
ENDBRANCH   1   7
BRANCH   3  20
HETATM   20  C   UNL     1      43.499 -17.210   3.520  1.00  0.00    -0.060 C 
HETATM   21  C   UNL     1      43.710 -18.380   3.352  1.00  0.00    -0.041 C 
BRANCH  21  22
HETATM   22  C   UNL     1      43.972 -19.773   3.181  1.00  0.00     0.110 A 
HETATM   23  N   UNL     1      44.514 -20.384   4.256  1.00  0.00    -0.252 NA
HETATM   24  C   UNL     1      44.786 -21.700   4.131  1.00  0.00     0.118 A 
HETATM   25  C   UNL     1      44.541 -22.433   2.980  1.00  0.00     0.019 A 
HETATM   26  C   UNL     1      43.983 -21.776   1.888  1.00  0.00     0.004 A 
HETATM   27  C   UNL     1      43.690 -20.418   1.986  1.00  0.00     0.041 A 
ENDBRANCH  21  22
ENDBRANCH   3  20
TORSDOF 6
ENDMDL
MODEL 9
REMARK VINA RESULT:      -7.5      4.575      8.731
REMARK  6 active torsions:
REMARK  status: ('A' for Active; 'I' for Inactive)
REMARK    1  A    between atoms: C_3  and  C_4 
REMARK    2  A    between atoms: C_4  and  C_5 
REMARK       I    between atoms: C_5  and  N_6 
REMARK    3  A    between atoms: N_6  and  C_7 
REMARK    4  A    between atoms: C_9  and  C_10 
REMARK    5  A    between atoms: C_11  and  C_12 
REMARK    6  A    between atoms: C_22  and  O_23 
ROOT
HETATM    1  C   UNL     1      42.660 -15.854   4.449  1.00  0.00     0.036 A 
HETATM    2  C   UNL     1      42.113 -15.660   3.178  1.00  0.00     0.050 A 
HETATM    3  C   UNL     1      41.146 -14.669   2.966  1.00  0.00     0.020 A 
HETATM    4  C   UNL     1      40.715 -13.871   4.026  1.00  0.00     0.021 A 
HETATM    5  C   UNL     1      41.254 -14.059   5.298  1.00  0.00     0.004 A 
HETATM    6  C   UNL     1      42.225 -15.042   5.505  1.00  0.00     0.029 A 
ENDROOT
BRANCH   1   7
HETATM    7  N   UNL     1      43.668 -16.800   4.737  1.00  0.00    -0.327 N 
HETATM    8  C   UNL     1      43.517 -18.013   5.383  1.00  0.00     0.226 C 
HETATM    9  O   UNL     1      42.503 -18.423   5.945  1.00  0.00    -0.273 OA
HETATM   10  H   UNL     1      44.608 -16.535   4.474  1.00  0.00     0.169 HD
BRANCH   8  11
HETATM   11  C   UNL     1      44.772 -18.870   5.373  1.00  0.00     0.144 C 
BRANCH  11  12
HETATM   12  C   UNL     1      44.634 -20.122   4.543  1.00  0.00    -0.016 A 
HETATM   13  C   UNL     1      44.780 -21.375   5.165  1.00  0.00     0.010 A 
HETATM   14  C   UNL     1      44.732 -22.557   4.421  1.00  0.00     0.001 A 
HETATM   15  C   UNL     1      44.544 -22.506   3.043  1.00  0.00     0.003 A 
HETATM   16  C   UNL     1      44.397 -21.273   2.411  1.00  0.00     0.037 A 
HETATM   17  C   UNL     1      44.431 -20.095   3.155  1.00  0.00     0.072 A 
BRANCH  17  18
HETATM   18  O   UNL     1      44.283 -18.938   2.445  1.00  0.00    -0.360 OA
HETATM   19  H   UNL     1      45.162 -18.593   2.179  1.00  0.00     0.217 HD
ENDBRANCH  17  18
ENDBRANCH  11  12
ENDBRANCH   8  11
ENDBRANCH   1   7
BRANCH   3  20
HETATM   20  C   UNL     1      40.620 -14.460   1.651  1.00  0.00    -0.060 C 
HETATM   21  C   UNL     1      40.182 -14.318   0.542  1.00  0.00    -0.041 C 
BRANCH  21  22
HETATM   22  C   UNL     1      39.665 -14.179  -0.781  1.00  0.00     0.110 A 
HETATM   23  N   UNL     1      40.540 -14.476  -1.765  1.00  0.00    -0.252 NA
HETATM   24  C   UNL     1      40.093 -14.348  -3.033  1.00  0.00     0.118 A 
HETATM   25  C   UNL     1      38.811 -13.936  -3.360  1.00  0.00     0.019 A 
HETATM   26  C   UNL     1      37.931 -13.636  -2.325  1.00  0.00     0.004 A 
HETATM   27  C   UNL     1      38.363 -13.759  -1.006  1.00  0.00     0.041 A 
ENDBRANCH  21  22
ENDBRANCH   3  20
TORSDOF 6
ENDMDL
MODEL 10
REMARK VINA RESULT:      -7.5      6.166     10.013
REMARK  6 active torsions:
REMARK  status: ('A' for Active; 'I' for Inactive)
REMARK    1  A    between atoms: C_3  and  C_4 
REMARK    2  A    between atoms: C_4  and  C_5 
REMARK       I    between atoms: C_5  and  N_6 
REMARK    3  A    between atoms: N_6  and  C_7 
REMARK    4  A    between atoms: C_9  and  C_10 
REMARK    5  A    between atoms: C_11  and  C_12 
REMARK    6  A    between atoms: C_22  and  O_23 
ROOT
HETATM    1  C   UNL     1      42.540 -15.935   1.416  1.00  0.00     0.036 A 
HETATM    2  C   UNL     1      41.564 -15.719   0.439  1.00  0.00     0.050 A 
HETATM    3  C   UNL     1      40.789 -14.553   0.456  1.00  0.00     0.020 A 
HETATM    4  C   UNL     1      40.979 -13.599   1.456  1.00  0.00     0.021 A 
HETATM    5  C   UNL     1      41.947 -13.808   2.437  1.00  0.00     0.004 A 
HETATM    6  C   UNL     1      42.726 -14.967   2.413  1.00  0.00     0.029 A 
ENDROOT
BRANCH   1   7
HETATM    7  N   UNL     1      43.391 -17.062   1.445  1.00  0.00    -0.327 N 
HETATM    8  C   UNL     1      43.158 -18.271   2.075  1.00  0.00     0.226 C 
HETATM    9  O   UNL     1      42.230 -18.534   2.837  1.00  0.00    -0.273 OA
HETATM   10  H   UNL     1      44.285 -16.949   0.986  1.00  0.00     0.169 HD
BRANCH   8  11
HETATM   11  C   UNL     1      44.198 -19.332   1.760  1.00  0.00     0.144 C 
BRANCH  11  12
HETATM   12  C   UNL     1      44.349 -20.364   2.851  1.00  0.00    -0.016 A 
HETATM   13  C   UNL     1      44.577 -19.935   4.170  1.00  0.00     0.010 A 
HETATM   14  C   UNL     1      44.794 -20.857   5.198  1.00  0.00     0.001 A 
HETATM   15  C   UNL     1      44.794 -22.221   4.922  1.00  0.00     0.003 A 
HETATM   16  C   UNL     1      44.569 -22.662   3.620  1.00  0.00     0.037 A 
HETATM   17  C   UNL     1      44.339 -21.743   2.598  1.00  0.00     0.072 A 
BRANCH  17  18
HETATM   18  O   UNL     1      44.134 -22.273   1.356  1.00  0.00    -0.360 OA
HETATM   19  H   UNL     1      44.751 -23.019   1.204  1.00  0.00     0.217 HD
ENDBRANCH  17  18
ENDBRANCH  11  12
ENDBRANCH   8  11
ENDBRANCH   1   7
BRANCH   3  20
HETATM   20  C   UNL     1      39.818 -14.331  -0.572  1.00  0.00    -0.060 C 
HETATM   21  C   UNL     1      39.022 -14.119  -1.446  1.00  0.00    -0.041 C 
BRANCH  21  22
HETATM   22  C   UNL     1      38.091 -13.843  -2.492  1.00  0.00     0.110 A 
HETATM   23  N   UNL     1      37.741 -12.545  -2.610  1.00  0.00    -0.252 NA
HETATM   24  C   UNL     1      36.855 -12.242  -3.584  1.00  0.00     0.118 A 
HETATM   25  C   UNL     1      36.304 -13.180  -4.443  1.00  0.00     0.019 A 
HETATM   26  C   UNL     1      36.683 -14.511  -4.297  1.00  0.00     0.004 A 
HETATM   27  C   UNL     1      37.597 -14.854  -3.302  1.00  0.00     0.041 A 
ENDBRANCH  21  22
ENDBRANCH   3  20
TORSDOF 6
ENDMDL
