MODEL 1
REMARK VINA RESULT:      -8.3      0.000      0.000
REMARK  9 active torsions:
REMARK  status: ('A' for Active; 'I' for Inactive)
REMARK    1  A    between atoms: C_2  and  O_3 
REMARK    2  A    between atoms: O_3  and  C_4 
REMARK    3  A    between atoms: C_5  and  C_6 
REMARK    4  A    between atoms: N_7  and  C_9 
REMARK    5  A    between atoms: C_9  and  C_10 
REMARK       I    between atoms: C_10  and  N_11 
REMARK    6  A    between atoms: N_11  and  C_12 
REMARK    7  A    between atoms: C_20  and  C_21 
REMARK    8  A    between atoms: C_21  and  O_22 
REMARK    9  A    between atoms: C_28  and  O_29 
ROOT
HETATM    1  C   UNL     1      40.018 -12.733   2.951  1.00  0.00     0.231 C 
HETATM    2  N   UNL     1      40.406 -14.015   3.708  1.00  0.00    -0.054 N 
HETATM    3  H   UNL     1      39.870 -14.696   3.144  1.00  0.00     0.281 HD
HETATM    4  C   UNL     1      39.859 -14.107   5.096  1.00  0.00     0.239 C 
HETATM    5  C   UNL     1      40.248 -12.886   5.908  1.00  0.00     0.066 C 
HETATM    6  C   UNL     1      39.706 -11.626   5.238  1.00  0.00     0.065 C 
HETATM    7  C   UNL     1      40.304 -11.476   3.817  1.00  0.00     0.055 C 
HETATM    8  C   UNL     1      39.995 -10.376   6.085  1.00  0.00     0.038 C 
HETATM    9  C   UNL     1      39.450  -9.109   5.427  1.00  0.00     0.003 C 
HETATM   10  C   UNL     1      39.967  -8.954   4.002  1.00  0.00     0.001 C 
HETATM   11  C   UNL     1      39.718 -10.202   3.157  1.00  0.00     0.010 C 
ENDROOT
BRANCH   2  12
HETATM   12  C   UNL     1      41.866 -14.492   3.574  1.00  0.00     0.338 C 
BRANCH  12  13
HETATM   13  C   UNL     1      41.944 -15.975   3.164  1.00  0.00     0.248 C 
HETATM   14  N   UNL     1      43.246 -16.454   3.270  1.00  0.00    -0.319 N 
HETATM   15  H   UNL     1      44.018 -15.795   3.261  1.00  0.00     0.169 HD
HETATM   16  O   UNL     1      40.943 -16.582   2.811  1.00  0.00    -0.271 OA
BRANCH  14  17
HETATM   17  C   UNL     1      43.655 -17.776   3.375  1.00  0.00     0.094 A 
HETATM   18  S   UNL     1      43.788 -18.758   1.996  1.00  0.00    -0.075 SA
HETATM   19  C   UNL     1      44.232 -20.109   2.915  1.00  0.00    -0.008 A 
HETATM   20  C   UNL     1      44.315 -19.829   4.265  1.00  0.00    -0.026 A 
HETATM   21  C   UNL     1      44.508 -21.442   2.289  1.00  0.00     0.047 C 
HETATM   22  C   UNL     1      44.674 -20.895   5.269  1.00  0.00     0.041 C 
HETATM   23  C   UNL     1      43.936 -18.460   4.554  1.00  0.00     0.080 A 
HETATM   24  C   UNL     1      45.230 -22.164   4.608  1.00  0.00     0.005 C 
HETATM   25  C   UNL     1      44.441 -22.549   3.352  1.00  0.00     0.005 C 
BRANCH  23  26
HETATM   26  C   UNL     1      43.817 -17.908   5.910  1.00  0.00     0.296 C 
HETATM   27  O   UNL     1      44.769 -17.754   6.659  1.00  0.00    -0.259 OA
BRANCH  26  28
HETATM   28  O   UNL     1      42.516 -17.639   6.270  1.00  0.00    -0.322 OA
HETATM   29  C   UNL     1      42.295 -16.337   6.835  1.00  0.00     0.213 C 
ENDBRANCH  26  28
ENDBRANCH  23  26
ENDBRANCH  14  17
ENDBRANCH  12  13
ENDBRANCH   2  12
BRANCH   1  30
HETATM   30  C   UNL     1      40.576 -12.766   1.531  1.00  0.00     0.006 A 
HETATM   31  C   UNL     1      39.926 -13.556   0.557  1.00  0.00     0.077 A 
HETATM   32  C   UNL     1      40.450 -13.654  -0.736  1.00  0.00     0.037 A 
HETATM   33  C   UNL     1      41.613 -12.964  -1.077  1.00  0.00     0.003 A 
HETATM   34  C   UNL     1      42.266 -12.187  -0.129  1.00  0.00     0.001 A 
HETATM   35  C   UNL     1      41.759 -12.095   1.167  1.00  0.00     0.012 A 
BRANCH  31  36
HETATM   36  O   UNL     1      38.823 -14.251   0.995  1.00  0.00    -0.351 OA
BRANCH  36  37
HETATM   37  C   UNL     1      37.611 -14.021   0.263  1.00  0.00     0.171 C 
HETATM   38  C   UNL     1      37.084 -12.654   0.659  1.00  0.00     0.034 C 
ENDBRANCH  36  37
ENDBRANCH  31  36
ENDBRANCH   1  30
BRANCH   6  39
HETATM   39  O   UNL     1      38.287 -11.802   5.122  1.00  0.00    -0.389 OA
HETATM   40  H   UNL     1      37.920 -12.069   5.988  1.00  0.00     0.210 HD
ENDBRANCH   6  39
TORSDOF 9
ENDMDL
MODEL 2
REMARK VINA RESULT:      -7.9      2.721      5.456
REMARK  9 active torsions:
REMARK  status: ('A' for Active; 'I' for Inactive)
REMARK    1  A    between atoms: C_2  and  O_3 
REMARK    2  A    between atoms: O_3  and  C_4 
REMARK    3  A    between atoms: C_5  and  C_6 
REMARK    4  A    between atoms: N_7  and  C_9 
REMARK    5  A    between atoms: C_9  and  C_10 
REMARK       I    between atoms: C_10  and  N_11 
REMARK    6  A    between atoms: N_11  and  C_12 
REMARK    7  A    between atoms: C_20  and  C_21 
REMARK    8  A    between atoms: C_21  and  O_22 
REMARK    9  A    between atoms: C_28  and  O_29 
ROOT
HETATM    1  C   UNL     1      39.611 -13.093  -1.360  1.00  0.00     0.231 C 
HETATM    2  N   UNL     1      40.662 -13.501  -0.313  1.00  0.00    -0.054 N 
HETATM    3  H   UNL     1      41.106 -12.578  -0.171  1.00  0.00     0.281 HD
HETATM    4  C   UNL     1      41.738 -14.401  -0.829  1.00  0.00     0.239 C 
HETATM    5  C   UNL     1      41.139 -15.638  -1.472  1.00  0.00     0.066 C 
HETATM    6  C   UNL     1      40.230 -15.230  -2.629  1.00  0.00     0.065 C 
HETATM    7  C   UNL     1      39.072 -14.342  -2.111  1.00  0.00     0.055 C 
HETATM    8  C   UNL     1      39.683 -16.461  -3.369  1.00  0.00     0.038 C 
HETATM    9  C   UNL     1      38.776 -16.064  -4.533  1.00  0.00     0.003 C 
HETATM   10  C   UNL     1      37.656 -15.138  -4.078  1.00  0.00     0.001 C 
HETATM   11  C   UNL     1      38.181 -13.928  -3.309  1.00  0.00     0.010 C 
ENDROOT
BRANCH   2  12
HETATM   12  C   UNL     1      40.143 -13.879   1.089  1.00  0.00     0.338 C 
BRANCH  12  13
HETATM   13  C   UNL     1      41.257 -14.486   1.962  1.00  0.00     0.248 C 
HETATM   14  N   UNL     1      40.975 -15.810   2.283  1.00  0.00    -0.319 N 
HETATM   15  H   UNL     1      40.014 -16.137   2.234  1.00  0.00     0.169 HD
HETATM   16  O   UNL     1      42.234 -13.824   2.283  1.00  0.00    -0.271 OA
BRANCH  14  17
HETATM   17  C   UNL     1      41.866 -16.790   2.695  1.00  0.00     0.094 A 
HETATM   18  S   UNL     1      42.672 -17.765   1.563  1.00  0.00    -0.075 SA
HETATM   19  C   UNL     1      43.442 -18.660   2.776  1.00  0.00    -0.008 A 
HETATM   20  C   UNL     1      43.126 -18.217   4.045  1.00  0.00    -0.026 A 
HETATM   21  C   UNL     1      44.369 -19.795   2.462  1.00  0.00     0.047 C 
HETATM   22  C   UNL     1      43.684 -18.886   5.275  1.00  0.00     0.041 C 
HETATM   23  C   UNL     1      42.161 -17.135   4.011  1.00  0.00     0.080 A 
HETATM   24  C   UNL     1      44.840 -19.844   4.951  1.00  0.00     0.005 C 
HETATM   25  C   UNL     1      44.555 -20.684   3.701  1.00  0.00     0.005 C 
BRANCH  23  26
HETATM   26  C   UNL     1      41.551 -16.538   5.206  1.00  0.00     0.296 C 
HETATM   27  O   UNL     1      40.804 -17.149   5.956  1.00  0.00    -0.259 OA
BRANCH  26  28
HETATM   28  O   UNL     1      41.859 -15.206   5.361  1.00  0.00    -0.322 OA
HETATM   29  C   UNL     1      43.191 -14.936   5.825  1.00  0.00     0.213 C 
ENDBRANCH  26  28
ENDBRANCH  23  26
ENDBRANCH  14  17
ENDBRANCH  12  13
ENDBRANCH   2  12
BRANCH   1  30
HETATM   30  C   UNL     1      38.597 -12.132  -0.748  1.00  0.00     0.006 A 
HETATM   31  C   UNL     1      38.960 -10.780  -0.561  1.00  0.00     0.077 A 
HETATM   32  C   UNL     1      38.074  -9.890   0.054  1.00  0.00     0.037 A 
HETATM   33  C   UNL     1      36.820 -10.328   0.476  1.00  0.00     0.003 A 
HETATM   34  C   UNL     1      36.450 -11.655   0.304  1.00  0.00     0.001 A 
HETATM   35  C   UNL     1      37.333 -12.553  -0.295  1.00  0.00     0.012 A 
BRANCH  31  36
HETATM   36  O   UNL     1      40.237 -10.448  -0.950  1.00  0.00    -0.351 OA
BRANCH  36  37
HETATM   37  C   UNL     1      41.095  -9.951   0.087  1.00  0.00     0.171 C 
HETATM   38  C   UNL     1      42.511 -10.392  -0.233  1.00  0.00     0.034 C 
ENDBRANCH  36  37
ENDBRANCH  31  36
ENDBRANCH   1  30
BRANCH   6  39
HETATM   39  O   UNL     1      41.034 -14.455  -3.529  1.00  0.00    -0.389 OA
HETATM   40  H   UNL     1      41.673 -13.919  -3.016  1.00  0.00     0.210 HD
ENDBRANCH   6  39
TORSDOF 9
ENDMDL
MODEL 3
REMARK VINA RESULT:      -7.9      1.659      2.324
REMARK  9 active torsions:
REMARK  status: ('A' for Active; 'I' for Inactive)
REMARK    1  A    between atoms: C_2  and  O_3 
REMARK    2  A    between atoms: O_3  and  C_4 
REMARK    3  A    between atoms: C_5  and  C_6 
REMARK    4  A    between atoms: N_7  and  C_9 
REMARK    5  A    between atoms: C_9  and  C_10 
REMARK       I    between atoms: C_10  and  N_11 
REMARK    6  A    between atoms: N_11  and  C_12 
REMARK    7  A    between atoms: C_20  and  C_21 
REMARK    8  A    between atoms: C_21  and  O_22 
REMARK    9  A    between atoms: C_28  and  O_29 
ROOT
HETATM    1  C   UNL     1      39.617 -12.079   3.149  1.00  0.00     0.231 C 
HETATM    2  N   UNL     1      39.827 -13.063   4.312  1.00  0.00    -0.054 N 
HETATM    3  H   UNL     1      39.294 -13.865   3.936  1.00  0.00     0.281 HD
HETATM    4  C   UNL     1      39.145 -12.675   5.585  1.00  0.00     0.239 C 
HETATM    5  C   UNL     1      39.553 -11.277   6.007  1.00  0.00     0.066 C 
HETATM    6  C   UNL     1      39.179 -10.278   4.915  1.00  0.00     0.065 C 
HETATM    7  C   UNL     1      39.919 -10.623   3.599  1.00  0.00     0.055 C 
HETATM    8  C   UNL     1      39.487  -8.835   5.350  1.00  0.00     0.038 C 
HETATM    9  C   UNL     1      39.110  -7.826   4.266  1.00  0.00     0.003 C 
HETATM   10  C   UNL     1      39.770  -8.165   2.935  1.00  0.00     0.001 C 
HETATM   11  C   UNL     1      39.503  -9.606   2.507  1.00  0.00     0.010 C 
ENDROOT
BRANCH   2  12
HETATM   12  C   UNL     1      41.250 -13.624   4.506  1.00  0.00     0.338 C 
BRANCH  12  13
HETATM   13  C   UNL     1      41.347 -15.093   4.055  1.00  0.00     0.248 C 
HETATM   14  N   UNL     1      42.661 -15.549   4.120  1.00  0.00    -0.319 N 
HETATM   15  H   UNL     1      43.419 -14.874   4.112  1.00  0.00     0.169 HD
HETATM   16  O   UNL     1      40.351 -15.711   3.708  1.00  0.00    -0.271 OA
BRANCH  14  17
HETATM   17  C   UNL     1      43.098 -16.864   4.180  1.00  0.00     0.094 A 
HETATM   18  S   UNL     1      43.211 -17.676   5.667  1.00  0.00    -0.075 SA
HETATM   19  C   UNL     1      43.832 -19.072   4.938  1.00  0.00    -0.008 A 
HETATM   20  C   UNL     1      43.933 -18.955   3.566  1.00  0.00    -0.026 A 
HETATM   21  C   UNL     1      44.207 -20.286   5.733  1.00  0.00     0.047 C 
HETATM   22  C   UNL     1      44.483 -20.074   2.718  1.00  0.00     0.041 C 
HETATM   23  C   UNL     1      43.539 -17.636   3.109  1.00  0.00     0.080 A 
HETATM   24  C   UNL     1      44.591 -21.397   3.489  1.00  0.00     0.005 C 
HETATM   25  C   UNL     1      45.133 -21.193   4.908  1.00  0.00     0.005 C 
BRANCH  23  26
HETATM   26  C   UNL     1      43.650 -17.180   1.717  1.00  0.00     0.296 C 
HETATM   27  O   UNL     1      44.693 -17.210   1.081  1.00  0.00    -0.259 OA
BRANCH  26  28
HETATM   28  O   UNL     1      42.475 -16.661   1.225  1.00  0.00    -0.322 OA
HETATM   29  C   UNL     1      41.412 -17.611   1.053  1.00  0.00     0.213 C 
ENDBRANCH  26  28
ENDBRANCH  23  26
ENDBRANCH  14  17
ENDBRANCH  12  13
ENDBRANCH   2  12
BRANCH   1  30
HETATM   30  C   UNL     1      40.302 -12.595   1.887  1.00  0.00     0.006 A 
HETATM   31  C   UNL     1      39.666 -13.597   1.122  1.00  0.00     0.077 A 
HETATM   32  C   UNL     1      40.298 -14.133  -0.004  1.00  0.00     0.037 A 
HETATM   33  C   UNL     1      41.558 -13.673  -0.388  1.00  0.00     0.003 A 
HETATM   34  C   UNL     1      42.198 -12.692   0.357  1.00  0.00     0.001 A 
HETATM   35  C   UNL     1      41.582 -12.162   1.491  1.00  0.00     0.012 A 
BRANCH  31  36
HETATM   36  O   UNL     1      38.455 -14.035   1.606  1.00  0.00    -0.351 OA
BRANCH  36  37
HETATM   37  C   UNL     1      37.360 -13.984   0.683  1.00  0.00     0.171 C 
HETATM   38  C   UNL     1      36.914 -12.538   0.573  1.00  0.00     0.034 C 
ENDBRANCH  36  37
ENDBRANCH  31  36
ENDBRANCH   1  30
BRANCH   6  39
HETATM   39  O   UNL     1      37.768 -10.416   4.698  1.00  0.00    -0.389 OA
HETATM   40  H   UNL     1      37.522  -9.969   3.864  1.00  0.00     0.210 HD
ENDBRANCH   6  39
TORSDOF 9
ENDMDL
MODEL 4
REMARK VINA RESULT:      -7.8      4.452      8.446
REMARK  9 active torsions:
REMARK  status: ('A' for Active; 'I' for Inactive)
REMARK    1  A    between atoms: C_2  and  O_3 
REMARK    2  A    between atoms: O_3  and  C_4 
REMARK    3  A    between atoms: C_5  and  C_6 
REMARK    4  A    between atoms: N_7  and  C_9 
REMARK    5  A    between atoms: C_9  and  C_10 
REMARK       I    between atoms: C_10  and  N_11 
REMARK    6  A    between atoms: N_11  and  C_12 
REMARK    7  A    between atoms: C_20  and  C_21 
REMARK    8  A    between atoms: C_21  and  O_22 
REMARK    9  A    between atoms: C_28  and  O_29 
ROOT
HETATM    1  C   UNL     1      41.024 -13.998   4.328  1.00  0.00     0.231 C 
HETATM    2  N   UNL     1      40.213 -12.889   5.020  1.00  0.00    -0.054 N 
HETATM    3  H   UNL     1      39.901 -13.420   5.851  1.00  0.00     0.281 HD
HETATM    4  C   UNL     1      38.967 -12.487   4.297  1.00  0.00     0.239 C 
HETATM    5  C   UNL     1      39.282 -12.086   2.869  1.00  0.00     0.066 C 
HETATM    6  C   UNL     1      39.931 -13.257   2.134  1.00  0.00     0.065 C 
HETATM    7  C   UNL     1      41.256 -13.655   2.830  1.00  0.00     0.055 C 
HETATM    8  C   UNL     1      40.174 -12.920   0.654  1.00  0.00     0.038 C 
HETATM    9  C   UNL     1      40.819 -14.088  -0.092  1.00  0.00     0.003 C 
HETATM   10  C   UNL     1      42.096 -14.553   0.596  1.00  0.00     0.001 C 
HETATM   11  C   UNL     1      41.879 -14.857   2.076  1.00  0.00     0.010 C 
ENDROOT
BRANCH   2  12
HETATM   12  C   UNL     1      41.005 -11.707   5.613  1.00  0.00     0.338 C 
BRANCH  12  13
HETATM   13  C   UNL     1      40.784 -11.579   7.131  1.00  0.00     0.248 C 
HETATM   14  N   UNL     1      41.962 -11.221   7.779  1.00  0.00    -0.319 N 
HETATM   15  H   UNL     1      42.852 -11.397   7.322  1.00  0.00     0.169 HD
HETATM   16  O   UNL     1      39.682 -11.777   7.624  1.00  0.00    -0.271 OA
BRANCH  14  17
HETATM   17  C   UNL     1      42.096 -10.641   9.033  1.00  0.00     0.094 A 
HETATM   18  S   UNL     1      40.999  -9.460   9.567  1.00  0.00    -0.075 SA
HETATM   19  C   UNL     1      41.834  -9.243  11.023  1.00  0.00    -0.008 A 
HETATM   20  C   UNL     1      42.929 -10.076  11.138  1.00  0.00    -0.026 A 
HETATM   21  C   UNL     1      41.392  -8.249  12.055  1.00  0.00     0.047 C 
HETATM   22  C   UNL     1      43.828 -10.034  12.347  1.00  0.00     0.041 C 
HETATM   23  C   UNL     1      43.118 -10.881   9.947  1.00  0.00     0.080 A 
HETATM   24  C   UNL     1      43.216  -9.237  13.508  1.00  0.00     0.005 C 
HETATM   25  C   UNL     1      42.542  -7.948  13.027  1.00  0.00     0.005 C 
BRANCH  23  26
HETATM   26  C   UNL     1      44.262 -11.776   9.731  1.00  0.00     0.296 C 
HETATM   27  O   UNL     1      44.393 -12.850  10.300  1.00  0.00    -0.259 OA
BRANCH  26  28
HETATM   28  O   UNL     1      45.200 -11.254   8.870  1.00  0.00    -0.322 OA
HETATM   29  C   UNL     1      46.250 -12.157   8.489  1.00  0.00     0.213 C 
ENDBRANCH  26  28
ENDBRANCH  23  26
ENDBRANCH  14  17
ENDBRANCH  12  13
ENDBRANCH   2  12
BRANCH   1  30
HETATM   30  C   UNL     1      42.238 -14.372   5.173  1.00  0.00     0.006 A 
HETATM   31  C   UNL     1      42.113 -15.397   6.137  1.00  0.00     0.077 A 
HETATM   32  C   UNL     1      43.190 -15.720   6.968  1.00  0.00     0.037 A 
HETATM   33  C   UNL     1      44.401 -15.040   6.844  1.00  0.00     0.003 A 
HETATM   34  C   UNL     1      44.539 -14.026   5.904  1.00  0.00     0.001 A 
HETATM   35  C   UNL     1      43.465 -13.688   5.081  1.00  0.00     0.012 A 
BRANCH  31  36
HETATM   36  O   UNL     1      40.867 -15.972   6.235  1.00  0.00    -0.351 OA
BRANCH  36  37
HETATM   37  C   UNL     1      40.831 -17.402   6.129  1.00  0.00     0.171 C 
HETATM   38  C   UNL     1      41.314 -17.776   4.740  1.00  0.00     0.034 C 
ENDBRANCH  36  37
ENDBRANCH  31  36
ENDBRANCH   1  30
BRANCH   6  39
HETATM   39  O   UNL     1      39.016 -14.357   2.226  1.00  0.00    -0.389 OA
HETATM   40  H   UNL     1      39.325 -15.086   1.653  1.00  0.00     0.210 HD
ENDBRANCH   6  39
TORSDOF 9
ENDMDL
MODEL 5
REMARK VINA RESULT:      -7.3      1.064      1.972
REMARK  9 active torsions:
REMARK  status: ('A' for Active; 'I' for Inactive)
REMARK    1  A    between atoms: C_2  and  O_3 
REMARK    2  A    between atoms: O_3  and  C_4 
REMARK    3  A    between atoms: C_5  and  C_6 
REMARK    4  A    between atoms: N_7  and  C_9 
REMARK    5  A    between atoms: C_9  and  C_10 
REMARK       I    between atoms: C_10  and  N_11 
REMARK    6  A    between atoms: N_11  and  C_12 
REMARK    7  A    between atoms: C_20  and  C_21 
REMARK    8  A    between atoms: C_21  and  O_22 
REMARK    9  A    between atoms: C_28  and  O_29 
ROOT
HETATM    1  C   UNL     1      39.215 -13.331   3.085  1.00  0.00     0.231 C 
HETATM    2  N   UNL     1      40.116 -14.488   3.551  1.00  0.00    -0.054 N 
HETATM    3  H   UNL     1      39.492 -15.276   3.311  1.00  0.00     0.281 HD
HETATM    4  C   UNL     1      40.321 -14.559   5.030  1.00  0.00     0.239 C 
HETATM    5  C   UNL     1      40.852 -13.242   5.562  1.00  0.00     0.066 C 
HETATM    6  C   UNL     1      39.863 -12.122   5.247  1.00  0.00     0.065 C 
HETATM    7  C   UNL     1      39.677 -11.988   3.716  1.00  0.00     0.055 C 
HETATM    8  C   UNL     1      40.320 -10.787   5.859  1.00  0.00     0.038 C 
HETATM    9  C   UNL     1      39.334  -9.660   5.555  1.00  0.00     0.003 C 
HETATM   10  C   UNL     1      39.074  -9.533   4.059  1.00  0.00     0.001 C 
HETATM   11  C   UNL     1      38.654 -10.860   3.430  1.00  0.00     0.010 C 
ENDROOT
BRANCH   2  12
HETATM   12  C   UNL     1      41.389 -14.760   2.725  1.00  0.00     0.338 C 
BRANCH  12  13
HETATM   13  C   UNL     1      41.615 -16.269   2.511  1.00  0.00     0.248 C 
HETATM   14  N   UNL     1      42.926 -16.625   2.812  1.00  0.00    -0.319 N 
HETATM   15  H   UNL     1      43.647 -15.909   2.804  1.00  0.00     0.169 HD
HETATM   16  O   UNL     1      40.705 -16.993   2.131  1.00  0.00    -0.271 OA
BRANCH  14  17
HETATM   17  C   UNL     1      43.411 -17.887   3.122  1.00  0.00     0.094 A 
HETATM   18  S   UNL     1      43.739 -19.017   1.898  1.00  0.00    -0.075 SA
HETATM   19  C   UNL     1      44.183 -20.207   3.018  1.00  0.00    -0.008 A 
HETATM   20  C   UNL     1      44.118 -19.759   4.323  1.00  0.00    -0.026 A 
HETATM   21  C   UNL     1      44.605 -21.581   2.596  1.00  0.00     0.047 C 
HETATM   22  C   UNL     1      44.450 -20.662   5.483  1.00  0.00     0.041 C 
HETATM   23  C   UNL     1      43.623 -18.398   4.399  1.00  0.00     0.080 A 
HETATM   24  C   UNL     1      45.150 -21.955   5.041  1.00  0.00     0.005 C 
HETATM   25  C   UNL     1      44.510 -22.552   3.782  1.00  0.00     0.005 C 
BRANCH  23  26
HETATM   26  C   UNL     1      43.339 -17.695   5.657  1.00  0.00     0.296 C 
HETATM   27  O   UNL     1      42.208 -17.457   6.054  1.00  0.00    -0.259 OA
BRANCH  26  28
HETATM   28  O   UNL     1      44.477 -17.279   6.310  1.00  0.00    -0.322 OA
HETATM   29  C   UNL     1      44.424 -15.945   6.839  1.00  0.00     0.213 C 
ENDBRANCH  26  28
ENDBRANCH  23  26
ENDBRANCH  14  17
ENDBRANCH  12  13
ENDBRANCH   2  12
BRANCH   1  30
HETATM   30  C   UNL     1      39.024 -13.383   1.572  1.00  0.00     0.006 A 
HETATM   31  C   UNL     1      39.975 -12.755   0.739  1.00  0.00     0.077 A 
HETATM   32  C   UNL     1      39.794 -12.734  -0.648  1.00  0.00     0.037 A 
HETATM   33  C   UNL     1      38.677 -13.343  -1.219  1.00  0.00     0.003 A 
HETATM   34  C   UNL     1      37.731 -13.961  -0.412  1.00  0.00     0.001 A 
HETATM   35  C   UNL     1      37.896 -13.974   0.973  1.00  0.00     0.012 A 
BRANCH  31  36
HETATM   36  O   UNL     1      41.011 -12.125   1.389  1.00  0.00    -0.351 OA
BRANCH  36  37
HETATM   37  C   UNL     1      41.739 -11.162   0.614  1.00  0.00     0.171 C 
HETATM   38  C   UNL     1      41.242  -9.782   1.007  1.00  0.00     0.034 C 
ENDBRANCH  36  37
ENDBRANCH  31  36
ENDBRANCH   1  30
BRANCH   6  39
HETATM   39  O   UNL     1      38.610 -12.506   5.830  1.00  0.00    -0.389 OA
HETATM   40  H   UNL     1      38.053 -11.712   5.957  1.00  0.00     0.210 HD
ENDBRANCH   6  39
TORSDOF 9
ENDMDL
MODEL 6
REMARK VINA RESULT:      -7.3      2.240      3.689
REMARK  9 active torsions:
REMARK  status: ('A' for Active; 'I' for Inactive)
REMARK    1  A    between atoms: C_2  and  O_3 
REMARK    2  A    between atoms: O_3  and  C_4 
REMARK    3  A    between atoms: C_5  and  C_6 
REMARK    4  A    between atoms: N_7  and  C_9 
REMARK    5  A    between atoms: C_9  and  C_10 
REMARK       I    between atoms: C_10  and  N_11 
REMARK    6  A    between atoms: N_11  and  C_12 
REMARK    7  A    between atoms: C_20  and  C_21 
REMARK    8  A    between atoms: C_21  and  O_22 
REMARK    9  A    between atoms: C_28  and  O_29 
ROOT
HETATM    1  C   UNL     1      39.921 -13.082  -0.149  1.00  0.00     0.231 C 
HETATM    2  N   UNL     1      40.190 -14.551   0.223  1.00  0.00    -0.054 N 
HETATM    3  H   UNL     1      39.830 -14.997  -0.637  1.00  0.00     0.281 HD
HETATM    4  C   UNL     1      39.347 -15.073   1.342  1.00  0.00     0.239 C 
HETATM    5  C   UNL     1      39.482 -14.194   2.570  1.00  0.00     0.066 C 
HETATM    6  C   UNL     1      39.043 -12.770   2.237  1.00  0.00     0.065 C 
HETATM    7  C   UNL     1      39.940 -12.183   1.118  1.00  0.00     0.055 C 
HETATM    8  C   UNL     1      39.071 -11.871   3.484  1.00  0.00     0.038 C 
HETATM    9  C   UNL     1      38.629 -10.444   3.162  1.00  0.00     0.003 C 
HETATM   10  C   UNL     1      39.446  -9.850   2.023  1.00  0.00     0.001 C 
HETATM   11  C   UNL     1      39.458 -10.748   0.788  1.00  0.00     0.010 C 
ENDROOT
BRANCH   2  12
HETATM   12  C   UNL     1      41.664 -14.999   0.283  1.00  0.00     0.338 C 
BRANCH  12  13
HETATM   13  C   UNL     1      41.852 -16.206   1.221  1.00  0.00     0.248 C 
HETATM   14  N   UNL     1      42.768 -15.917   2.228  1.00  0.00    -0.319 N 
HETATM   15  H   UNL     1      43.434 -15.162   2.090  1.00  0.00     0.169 HD
HETATM   16  O   UNL     1      41.234 -17.246   1.039  1.00  0.00    -0.271 OA
BRANCH  14  17
HETATM   17  C   UNL     1      42.913 -16.559   3.450  1.00  0.00     0.094 A 
HETATM   18  S   UNL     1      42.552 -15.757   4.902  1.00  0.00    -0.075 SA
HETATM   19  C   UNL     1      43.020 -17.090   5.836  1.00  0.00    -0.008 A 
HETATM   20  C   UNL     1      43.425 -18.162   5.066  1.00  0.00    -0.026 A 
HETATM   21  C   UNL     1      42.974 -17.068   7.334  1.00  0.00     0.047 C 
HETATM   22  C   UNL     1      43.905 -19.446   5.694  1.00  0.00     0.041 C 
HETATM   23  C   UNL     1      43.404 -17.846   3.651  1.00  0.00     0.080 A 
HETATM   24  C   UNL     1      43.586 -19.522   7.194  1.00  0.00     0.005 C 
HETATM   25  C   UNL     1      43.852 -18.192   7.906  1.00  0.00     0.005 C 
BRANCH  23  26
HETATM   26  C   UNL     1      43.889 -18.748   2.599  1.00  0.00     0.296 C 
HETATM   27  O   UNL     1      44.633 -18.392   1.697  1.00  0.00    -0.259 OA
BRANCH  26  28
HETATM   28  O   UNL     1      43.371 -20.019   2.698  1.00  0.00    -0.322 OA
HETATM   29  C   UNL     1      44.276 -21.077   2.345  1.00  0.00     0.213 C 
ENDBRANCH  26  28
ENDBRANCH  23  26
ENDBRANCH  14  17
ENDBRANCH  12  13
ENDBRANCH   2  12
BRANCH   1  30
HETATM   30  C   UNL     1      40.787 -12.668  -1.334  1.00  0.00     0.006 A 
HETATM   31  C   UNL     1      40.460 -13.145  -2.622  1.00  0.00     0.077 A 
HETATM   32  C   UNL     1      41.271 -12.832  -3.718  1.00  0.00     0.037 A 
HETATM   33  C   UNL     1      42.404 -12.037  -3.548  1.00  0.00     0.003 A 
HETATM   34  C   UNL     1      42.742 -11.564  -2.287  1.00  0.00     0.001 A 
HETATM   35  C   UNL     1      41.947 -11.883  -1.186  1.00  0.00     0.012 A 
BRANCH  31  36
HETATM   36  O   UNL     1      39.363 -13.972  -2.689  1.00  0.00    -0.351 OA
BRANCH  36  37
HETATM   37  C   UNL     1      39.466 -15.071  -3.605  1.00  0.00     0.171 C 
HETATM   38  C   UNL     1      40.515 -16.026  -3.066  1.00  0.00     0.034 C 
ENDBRANCH  36  37
ENDBRANCH  31  36
ENDBRANCH   1  30
BRANCH   6  39
HETATM   39  O   UNL     1      37.699 -12.859   1.747  1.00  0.00    -0.389 OA
HETATM   40  H   UNL     1      37.416 -11.985   1.411  1.00  0.00     0.210 HD
ENDBRANCH   6  39
TORSDOF 9
ENDMDL
MODEL 7
REMARK VINA RESULT:      -7.3      2.519      3.853
REMARK  9 active torsions:
REMARK  status: ('A' for Active; 'I' for Inactive)
REMARK    1  A    between atoms: C_2  and  O_3 
REMARK    2  A    between atoms: O_3  and  C_4 
REMARK    3  A    between atoms: C_5  and  C_6 
REMARK    4  A    between atoms: N_7  and  C_9 
REMARK    5  A    between atoms: C_9  and  C_10 
REMARK       I    between atoms: C_10  and  N_11 
REMARK    6  A    between atoms: N_11  and  C_12 
REMARK    7  A    between atoms: C_20  and  C_21 
REMARK    8  A    between atoms: C_21  and  O_22 
REMARK    9  A    between atoms: C_28  and  O_29 
ROOT
HETATM    1  C   UNL     1      40.279 -12.170  -0.238  1.00  0.00     0.231 C 
HETATM    2  N   UNL     1      40.635 -13.248   0.800  1.00  0.00    -0.054 N 
HETATM    3  H   UNL     1      41.403 -13.710   0.286  1.00  0.00     0.281 HD
HETATM    4  C   UNL     1      39.583 -14.292   0.998  1.00  0.00     0.239 C 
HETATM    5  C   UNL     1      38.253 -13.653   1.348  1.00  0.00     0.066 C 
HETATM    6  C   UNL     1      37.820 -12.713   0.225  1.00  0.00     0.065 C 
HETATM    7  C   UNL     1      38.866 -11.586   0.039  1.00  0.00     0.055 C 
HETATM    8  C   UNL     1      36.426 -12.123   0.499  1.00  0.00     0.038 C 
HETATM    9  C   UNL     1      35.981 -11.185  -0.623  1.00  0.00     0.003 C 
HETATM   10  C   UNL     1      37.012 -10.095  -0.881  1.00  0.00     0.001 C 
HETATM   11  C   UNL     1      38.409 -10.663  -1.119  1.00  0.00     0.010 C 
ENDROOT
BRANCH   2  12
HETATM   12  C   UNL     1      41.300 -12.769   2.106  1.00  0.00     0.338 C 
BRANCH  12  13
HETATM   13  C   UNL     1      42.341 -13.783   2.618  1.00  0.00     0.248 C 
HETATM   14  N   UNL     1      41.768 -15.038   2.798  1.00  0.00    -0.319 N 
HETATM   15  H   UNL     1      40.761 -15.111   2.913  1.00  0.00     0.169 HD
HETATM   16  O   UNL     1      43.501 -13.449   2.809  1.00  0.00    -0.271 OA
BRANCH  14  17
HETATM   17  C   UNL     1      42.416 -16.263   2.859  1.00  0.00     0.094 A 
HETATM   18  S   UNL     1      42.540 -17.252   1.484  1.00  0.00    -0.075 SA
HETATM   19  C   UNL     1      43.334 -18.473   2.347  1.00  0.00    -0.008 A 
HETATM   20  C   UNL     1      43.542 -18.139   3.671  1.00  0.00    -0.026 A 
HETATM   21  C   UNL     1      43.758 -19.757   1.702  1.00  0.00     0.047 C 
HETATM   22  C   UNL     1      44.213 -19.092   4.627  1.00  0.00     0.041 C 
HETATM   23  C   UNL     1      42.966 -16.849   3.996  1.00  0.00     0.080 A 
HETATM   24  C   UNL     1      44.895 -20.265   3.908  1.00  0.00     0.005 C 
HETATM   25  C   UNL     1      44.029 -20.824   2.774  1.00  0.00     0.005 C 
BRANCH  23  26
HETATM   26  C   UNL     1      42.930 -16.281   5.350  1.00  0.00     0.296 C 
HETATM   27  O   UNL     1      43.568 -15.294   5.683  1.00  0.00    -0.259 OA
BRANCH  26  28
HETATM   28  O   UNL     1      42.151 -17.011   6.219  1.00  0.00    -0.322 OA
HETATM   29  C   UNL     1      42.729 -17.236   7.515  1.00  0.00     0.213 C 
ENDBRANCH  26  28
ENDBRANCH  23  26
ENDBRANCH  14  17
ENDBRANCH  12  13
ENDBRANCH   2  12
BRANCH   1  30
HETATM   30  C   UNL     1      41.437 -11.191  -0.405  1.00  0.00     0.006 A 
HETATM   31  C   UNL     1      42.565 -11.586  -1.157  1.00  0.00     0.077 A 
HETATM   32  C   UNL     1      43.668 -10.734  -1.276  1.00  0.00     0.037 A 
HETATM   33  C   UNL     1      43.657  -9.482  -0.662  1.00  0.00     0.003 A 
HETATM   34  C   UNL     1      42.557  -9.081   0.085  1.00  0.00     0.001 A 
HETATM   35  C   UNL     1      41.459  -9.931   0.221  1.00  0.00     0.012 A 
BRANCH  31  36
HETATM   36  O   UNL     1      42.518 -12.859  -1.676  1.00  0.00    -0.351 OA
BRANCH  36  37
HETATM   37  C   UNL     1      42.488 -12.948  -3.107  1.00  0.00     0.171 C 
HETATM   38  C   UNL     1      41.205 -13.656  -3.501  1.00  0.00     0.034 C 
ENDBRANCH  36  37
ENDBRANCH  31  36
ENDBRANCH   1  30
BRANCH   6  39
HETATM   39  O   UNL     1      37.775 -13.500  -0.973  1.00  0.00    -0.389 OA
HETATM   40  H   UNL     1      38.487 -13.211  -1.579  1.00  0.00     0.210 HD
ENDBRANCH   6  39
TORSDOF 9
ENDMDL
MODEL 8
REMARK VINA RESULT:      -7.2      3.728      8.499
REMARK  9 active torsions:
REMARK  status: ('A' for Active; 'I' for Inactive)
REMARK    1  A    between atoms: C_2  and  O_3 
REMARK    2  A    between atoms: O_3  and  C_4 
REMARK    3  A    between atoms: C_5  and  C_6 
REMARK    4  A    between atoms: N_7  and  C_9 
REMARK    5  A    between atoms: C_9  and  C_10 
REMARK       I    between atoms: C_10  and  N_11 
REMARK    6  A    between atoms: N_11  and  C_12 
REMARK    7  A    between atoms: C_20  and  C_21 
REMARK    8  A    between atoms: C_21  and  O_22 
REMARK    9  A    between atoms: C_28  and  O_29 
ROOT
HETATM    1  C   UNL     1      41.452 -14.396   4.232  1.00  0.00     0.231 C 
HETATM    2  N   UNL     1      40.743 -13.056   4.496  1.00  0.00    -0.054 N 
HETATM    3  H   UNL     1      40.412 -13.244   5.458  1.00  0.00     0.281 HD
HETATM    4  C   UNL     1      39.516 -12.829   3.674  1.00  0.00     0.239 C 
HETATM    5  C   UNL     1      39.828 -12.968   2.196  1.00  0.00     0.066 C 
HETATM    6  C   UNL     1      40.368 -14.368   1.912  1.00  0.00     0.065 C 
HETATM    7  C   UNL     1      41.674 -14.608   2.708  1.00  0.00     0.055 C 
HETATM    8  C   UNL     1      40.602 -14.580   0.407  1.00  0.00     0.038 C 
HETATM    9  C   UNL     1      41.138 -15.980   0.110  1.00  0.00     0.003 C 
HETATM   10  C   UNL     1      42.391 -16.282   0.922  1.00  0.00     0.001 C 
HETATM   11  C   UNL     1      42.185 -16.041   2.416  1.00  0.00     0.010 C 
ENDROOT
BRANCH   2  12
HETATM   12  C   UNL     1      41.638 -11.810   4.650  1.00  0.00     0.338 C 
BRANCH  12  13
HETATM   13  C   UNL     1      41.282 -11.009   5.917  1.00  0.00     0.248 C 
HETATM   14  N   UNL     1      41.643 -11.706   7.066  1.00  0.00    -0.319 N 
HETATM   15  H   UNL     1      41.767 -12.713   7.015  1.00  0.00     0.169 HD
HETATM   16  O   UNL     1      40.758  -9.907   5.837  1.00  0.00    -0.271 OA
BRANCH  14  17
HETATM   17  C   UNL     1      41.853 -11.192   8.337  1.00  0.00     0.094 A 
HETATM   18  S   UNL     1      43.421 -11.050   8.971  1.00  0.00    -0.075 SA
HETATM   19  C   UNL     1      42.847 -10.460  10.450  1.00  0.00    -0.008 A 
HETATM   20  C   UNL     1      41.471 -10.335  10.474  1.00  0.00    -0.026 A 
HETATM   21  C   UNL     1      43.767 -10.113  11.581  1.00  0.00     0.047 C 
HETATM   22  C   UNL     1      40.746  -9.847  11.702  1.00  0.00     0.041 C 
HETATM   23  C   UNL     1      40.868 -10.803   9.242  1.00  0.00     0.080 A 
HETATM   24  C   UNL     1      41.695  -9.227  12.738  1.00  0.00     0.005 C 
HETATM   25  C   UNL     1      42.981 -10.044  12.899  1.00  0.00     0.005 C 
BRANCH  23  26
HETATM   26  C   UNL     1      39.420 -10.899   9.019  1.00  0.00     0.296 C 
HETATM   27  O   UNL     1      38.875 -11.886   8.547  1.00  0.00    -0.259 OA
BRANCH  26  28
HETATM   28  O   UNL     1      38.747  -9.742   9.340  1.00  0.00    -0.322 OA
HETATM   29  C   UNL     1      38.809  -8.705   8.349  1.00  0.00     0.213 C 
ENDBRANCH  26  28
ENDBRANCH  23  26
ENDBRANCH  14  17
ENDBRANCH  12  13
ENDBRANCH   2  12
BRANCH   1  30
HETATM   30  C   UNL     1      42.652 -14.554   5.160  1.00  0.00     0.006 A 
HETATM   31  C   UNL     1      42.547 -15.409   6.278  1.00  0.00     0.077 A 
HETATM   32  C   UNL     1      43.609 -15.526   7.180  1.00  0.00     0.037 A 
HETATM   33  C   UNL     1      44.786 -14.807   6.975  1.00  0.00     0.003 A 
HETATM   34  C   UNL     1      44.904 -13.958   5.882  1.00  0.00     0.001 A 
HETATM   35  C   UNL     1      43.843 -13.824   4.986  1.00  0.00     0.012 A 
BRANCH  31  36
HETATM   36  O   UNL     1      41.331 -16.032   6.438  1.00  0.00    -0.351 OA
BRANCH  36  37
HETATM   37  C   UNL     1      41.376 -17.455   6.608  1.00  0.00     0.171 C 
HETATM   38  C   UNL     1      41.720 -18.071   5.264  1.00  0.00     0.034 C 
ENDBRANCH  36  37
ENDBRANCH  31  36
ENDBRANCH   1  30
BRANCH   6  39
HETATM   39  O   UNL     1      39.374 -15.293   2.372  1.00  0.00    -0.389 OA
HETATM   40  H   UNL     1      39.029 -15.804   1.613  1.00  0.00     0.210 HD
ENDBRANCH   6  39
TORSDOF 9
ENDMDL
MODEL 9
REMARK VINA RESULT:      -7.0      2.242      3.265
REMARK  9 active torsions:
REMARK  status: ('A' for Active; 'I' for Inactive)
REMARK    1  A    between atoms: C_2  and  O_3 
REMARK    2  A    between atoms: O_3  and  C_4 
REMARK    3  A    between atoms: C_5  and  C_6 
REMARK    4  A    between atoms: N_7  and  C_9 
REMARK    5  A    between atoms: C_9  and  C_10 
REMARK       I    between atoms: C_10  and  N_11 
REMARK    6  A    between atoms: N_11  and  C_12 
REMARK    7  A    between atoms: C_20  and  C_21 
REMARK    8  A    between atoms: C_21  and  O_22 
REMARK    9  A    between atoms: C_28  and  O_29 
ROOT
HETATM    1  C   UNL     1      40.005 -13.261   0.087  1.00  0.00     0.231 C 
HETATM    2  N   UNL     1      39.863 -14.745   0.466  1.00  0.00    -0.054 N 
HETATM    3  H   UNL     1      39.370 -15.074  -0.381  1.00  0.00     0.281 HD
HETATM    4  C   UNL     1      38.937 -15.008   1.611  1.00  0.00     0.239 C 
HETATM    5  C   UNL     1      39.345 -14.198   2.827  1.00  0.00     0.066 C 
HETATM    6  C   UNL     1      39.314 -12.709   2.490  1.00  0.00     0.065 C 
HETATM    7  C   UNL     1      40.309 -12.400   1.345  1.00  0.00     0.055 C 
HETATM    8  C   UNL     1      39.625 -11.852   3.728  1.00  0.00     0.038 C 
HETATM    9  C   UNL     1      39.590 -10.359   3.404  1.00  0.00     0.003 C 
HETATM   10  C   UNL     1      40.511 -10.019   2.238  1.00  0.00     0.001 C 
HETATM   11  C   UNL     1      40.238 -10.888   1.013  1.00  0.00     0.010 C 
ENDROOT
BRANCH   2  12
HETATM   12  C   UNL     1      41.153 -15.587   0.494  1.00  0.00     0.338 C 
BRANCH  12  13
HETATM   13  C   UNL     1      41.822 -15.557   1.881  1.00  0.00     0.248 C 
HETATM   14  N   UNL     1      41.402 -16.631   2.661  1.00  0.00    -0.319 N 
HETATM   15  H   UNL     1      40.529 -17.096   2.432  1.00  0.00     0.169 HD
HETATM   16  O   UNL     1      42.613 -14.673   2.178  1.00  0.00    -0.271 OA
BRANCH  14  17
HETATM   17  C   UNL     1      42.036 -17.169   3.771  1.00  0.00     0.094 A 
HETATM   18  S   UNL     1      42.908 -18.621   3.656  1.00  0.00    -0.075 SA
HETATM   19  C   UNL     1      43.270 -18.616   5.310  1.00  0.00    -0.008 A 
HETATM   20  C   UNL     1      42.765 -17.509   5.962  1.00  0.00    -0.026 A 
HETATM   21  C   UNL     1      44.066 -19.711   5.954  1.00  0.00     0.047 C 
HETATM   22  C   UNL     1      42.952 -17.314   7.445  1.00  0.00     0.041 C 
HETATM   23  C   UNL     1      41.997 -16.664   5.068  1.00  0.00     0.080 A 
HETATM   24  C   UNL     1      43.997 -18.271   8.037  1.00  0.00     0.005 C 
HETATM   25  C   UNL     1      43.859 -19.690   7.476  1.00  0.00     0.005 C 
BRANCH  23  26
HETATM   26  C   UNL     1      41.246 -15.478   5.499  1.00  0.00     0.296 C 
HETATM   27  O   UNL     1      40.177 -15.536   6.088  1.00  0.00    -0.259 OA
BRANCH  26  28
HETATM   28  O   UNL     1      41.839 -14.296   5.119  1.00  0.00    -0.322 OA
HETATM   29  C   UNL     1      42.953 -13.884   5.928  1.00  0.00     0.213 C 
ENDBRANCH  26  28
ENDBRANCH  23  26
ENDBRANCH  14  17
ENDBRANCH  12  13
ENDBRANCH   2  12
BRANCH   1  30
HETATM   30  C   UNL     1      40.922 -13.108  -1.123  1.00  0.00     0.006 A 
HETATM   31  C   UNL     1      40.531 -13.678  -2.355  1.00  0.00     0.077 A 
HETATM   32  C   UNL     1      41.378 -13.607  -3.465  1.00  0.00     0.037 A 
HETATM   33  C   UNL     1      42.611 -12.963  -3.368  1.00  0.00     0.003 A 
HETATM   34  C   UNL     1      43.011 -12.401  -2.162  1.00  0.00     0.001 A 
HETATM   35  C   UNL     1      42.179 -12.480  -1.046  1.00  0.00     0.012 A 
BRANCH  31  36
HETATM   36  O   UNL     1      39.330 -14.348  -2.345  1.00  0.00    -0.351 OA
BRANCH  36  37
HETATM   37  C   UNL     1      38.773 -14.647  -3.633  1.00  0.00     0.171 C 
HETATM   38  C   UNL     1      37.358 -15.154  -3.419  1.00  0.00     0.034 C 
ENDBRANCH  36  37
ENDBRANCH  31  36
ENDBRANCH   1  30
BRANCH   6  39
HETATM   39  O   UNL     1      37.985 -12.420   2.035  1.00  0.00    -0.389 OA
HETATM   40  H   UNL     1      37.365 -12.462   2.790  1.00  0.00     0.210 HD
ENDBRANCH   6  39
TORSDOF 9
ENDMDL
MODEL 10
REMARK VINA RESULT:      -6.9      3.677      9.075
REMARK  9 active torsions:
REMARK  status: ('A' for Active; 'I' for Inactive)
REMARK    1  A    between atoms: C_2  and  O_3 
REMARK    2  A    between atoms: O_3  and  C_4 
REMARK    3  A    between atoms: C_5  and  C_6 
REMARK    4  A    between atoms: N_7  and  C_9 
REMARK    5  A    between atoms: C_9  and  C_10 
REMARK       I    between atoms: C_10  and  N_11 
REMARK    6  A    between atoms: N_11  and  C_12 
REMARK    7  A    between atoms: C_20  and  C_21 
REMARK    8  A    between atoms: C_21  and  O_22 
REMARK    9  A    between atoms: C_28  and  O_29 
ROOT
HETATM    1  C   UNL     1      41.151 -14.761   2.721  1.00  0.00     0.231 C 
HETATM    2  N   UNL     1      41.111 -13.880   1.460  1.00  0.00    -0.054 N 
HETATM    3  H   UNL     1      40.216 -13.395   1.637  1.00  0.00     0.281 HD
HETATM    4  C   UNL     1      40.927 -14.633   0.181  1.00  0.00     0.239 C 
HETATM    5  C   UNL     1      41.989 -15.705   0.033  1.00  0.00     0.066 C 
HETATM    6  C   UNL     1      41.906 -16.681   1.204  1.00  0.00     0.065 C 
HETATM    7  C   UNL     1      42.152 -15.936   2.539  1.00  0.00     0.055 C 
HETATM    8  C   UNL     1      42.902 -17.840   1.036  1.00  0.00     0.038 C 
HETATM    9  C   UNL     1      42.823 -18.826   2.201  1.00  0.00     0.003 C 
HETATM   10  C   UNL     1      42.998 -18.123   3.541  1.00  0.00     0.001 C 
HETATM   11  C   UNL     1      42.039 -16.947   3.708  1.00  0.00     0.010 C 
ENDROOT
BRANCH   2  12
HETATM   12  C   UNL     1      42.140 -12.735   1.374  1.00  0.00     0.338 C 
BRANCH  12  13
HETATM   13  C   UNL     1      41.680 -11.630   0.405  1.00  0.00     0.248 C 
HETATM   14  N   UNL     1      42.756 -11.112  -0.309  1.00  0.00    -0.319 N 
HETATM   15  H   UNL     1      43.695 -11.223   0.062  1.00  0.00     0.169 HD
HETATM   16  O   UNL     1      40.501 -11.313   0.328  1.00  0.00    -0.271 OA
BRANCH  14  17
HETATM   17  C   UNL     1      42.720 -10.417  -1.509  1.00  0.00     0.094 A 
HETATM   18  S   UNL     1      42.833  -8.723  -1.537  1.00  0.00    -0.075 SA
HETATM   19  C   UNL     1      42.653  -8.669  -3.220  1.00  0.00    -0.008 A 
HETATM   20  C   UNL     1      42.536  -9.924  -3.783  1.00  0.00    -0.026 A 
HETATM   21  C   UNL     1      42.639  -7.376  -3.978  1.00  0.00     0.047 C 
HETATM   22  C   UNL     1      42.344 -10.107  -5.267  1.00  0.00     0.041 C 
HETATM   23  C   UNL     1      42.533 -10.966  -2.775  1.00  0.00     0.080 A 
HETATM   24  C   UNL     1      42.618  -8.821  -6.059  1.00  0.00     0.005 C 
HETATM   25  C   UNL     1      42.026  -7.586  -5.371  1.00  0.00     0.005 C 
BRANCH  23  26
HETATM   26  C   UNL     1      42.309 -12.389  -3.062  1.00  0.00     0.296 C 
HETATM   27  O   UNL     1      43.096 -13.271  -2.750  1.00  0.00    -0.259 OA
BRANCH  26  28
HETATM   28  O   UNL     1      41.153 -12.620  -3.772  1.00  0.00    -0.322 OA
HETATM   29  C   UNL     1      40.493 -13.861  -3.478  1.00  0.00     0.213 C 
ENDBRANCH  26  28
ENDBRANCH  23  26
ENDBRANCH  14  17
ENDBRANCH  12  13
ENDBRANCH   2  12
BRANCH   1  30
HETATM   30  C   UNL     1      41.283 -13.894   3.969  1.00  0.00     0.006 A 
HETATM   31  C   UNL     1      40.257 -12.975   4.277  1.00  0.00     0.077 A 
HETATM   32  C   UNL     1      40.379 -12.124   5.381  1.00  0.00     0.037 A 
HETATM   33  C   UNL     1      41.511 -12.186   6.193  1.00  0.00     0.003 A 
HETATM   34  C   UNL     1      42.531 -13.082   5.901  1.00  0.00     0.001 A 
HETATM   35  C   UNL     1      42.424 -13.924   4.793  1.00  0.00     0.012 A 
BRANCH  31  36
HETATM   36  O   UNL     1      39.207 -12.937   3.389  1.00  0.00    -0.351 OA
BRANCH  36  37
HETATM   37  C   UNL     1      38.644 -11.640   3.145  1.00  0.00     0.171 C 
HETATM   38  C   UNL     1      37.703 -11.760   1.960  1.00  0.00     0.034 C 
ENDBRANCH  36  37
ENDBRANCH  31  36
ENDBRANCH   1  30
BRANCH   6  39
HETATM   39  O   UNL     1      40.569 -17.202   1.209  1.00  0.00    -0.389 OA
HETATM   40  H   UNL     1      40.488 -17.896   0.525  1.00  0.00     0.210 HD
ENDBRANCH   6  39
TORSDOF 9
ENDMDL
