MODEL 1
REMARK VINA RESULT:      -8.5      0.000      0.000
REMARK  11 active torsions:
REMARK  status: ('A' for Active; 'I' for Inactive)
REMARK    1  A    between atoms: C_2  and  O_3 
REMARK    2  A    between atoms: O_3  and  C_4 
REMARK    3  A    between atoms: C_5  and  N_6 
REMARK       I    between atoms: N_6  and  C_7 
REMARK    4  A    between atoms: C_7  and  C_8 
REMARK    5  A    between atoms: C_9  and  C_10 
REMARK    6  A    between atoms: C_10  and  N_11 
REMARK    7  A    between atoms: C_24  and  N_25 
REMARK    8  A    between atoms: N_25  and  C_26 
REMARK    9  A    between atoms: C_30  and  O_31 
REMARK   10  A    between atoms: O_31  and  C_32 
REMARK   11  A    between atoms: C_32  and  C_33 
ROOT
HETATM    1  C   UNL     1      44.006 -15.747   6.838  1.00  0.00     0.097 A 
HETATM    2  C   UNL     1      42.975 -15.491   5.930  1.00  0.00     0.069 A 
HETATM    3  C   UNL     1      42.736 -16.400   4.892  1.00  0.00     0.048 A 
HETATM    4  C   UNL     1      43.458 -17.609   4.749  1.00  0.00     0.023 A 
HETATM    5  C   UNL     1      44.490 -17.849   5.685  1.00  0.00     0.071 A 
HETATM    6  N   UNL     1      45.254 -18.947   5.665  1.00  0.00    -0.259 NA
HETATM    7  C   UNL     1      45.026 -19.868   4.708  1.00  0.00     0.142 A 
HETATM    8  C   UNL     1      44.062 -19.736   3.727  1.00  0.00     0.089 A 
HETATM    9  C   UNL     1      43.929 -20.776   2.756  1.00  0.00     0.103 C 
HETATM   10  N   UNL     1      43.818 -21.593   1.940  1.00  0.00    -0.191 NA
HETATM   11  C   UNL     1      43.256 -18.579   3.714  1.00  0.00     0.067 A 
HETATM   12  C   UNL     1      44.758 -16.916   6.679  1.00  0.00     0.071 A 
ENDROOT
BRANCH  11  13
HETATM   13  N   UNL     1      42.291 -18.437   2.681  1.00  0.00    -0.354 N 
HETATM   14  H   UNL     1      41.658 -19.233   2.597  1.00  0.00     0.166 HD
BRANCH  13  15
HETATM   15  C   UNL     1      41.867 -17.367   1.868  1.00  0.00     0.034 A 
HETATM   16  C   UNL     1      40.637 -16.764   2.173  1.00  0.00     0.056 A 
HETATM   17  C   UNL     1      40.102 -15.763   1.359  1.00  0.00     0.069 A 
HETATM   18 CL   UNL     1      38.581 -15.075   1.795  1.00  0.00    -0.081 Cl
HETATM   19  C   UNL     1      40.783 -15.364   0.210  1.00  0.00     0.091 A 
HETATM   20  C   UNL     1      42.026 -15.927  -0.088  1.00  0.00     0.041 A 
HETATM   21  C   UNL     1      42.560 -16.929   0.735  1.00  0.00     0.032 A 
BRANCH  19  22
HETATM   22  O   UNL     1      40.265 -14.365  -0.568  1.00  0.00    -0.344 OA
BRANCH  22  23
HETATM   23  C   UNL     1      40.733 -14.406  -1.926  1.00  0.00     0.235 C 
BRANCH  23  24
HETATM   24  C   UNL     1      41.365 -13.097  -2.356  1.00  0.00     0.058 A 
HETATM   25  N   UNL     1      42.418 -12.660  -1.612  1.00  0.00    -0.263 NA
HETATM   26  C   UNL     1      42.964 -11.468  -1.945  1.00  0.00     0.117 A 
HETATM   27  C   UNL     1      42.523 -10.681  -2.994  1.00  0.00     0.019 A 
HETATM   28  C   UNL     1      41.450 -11.137  -3.745  1.00  0.00     0.003 A 
HETATM   29  C   UNL     1      40.855 -12.352  -3.419  1.00  0.00     0.029 A 
ENDBRANCH  23  24
ENDBRANCH  22  23
ENDBRANCH  19  22
ENDBRANCH  13  15
ENDBRANCH  11  13
BRANCH   2  30
HETATM   30  N   UNL     1      42.031 -14.448   6.052  1.00  0.00    -0.321 N 
HETATM   31  C   UNL     1      42.098 -13.168   5.590  1.00  0.00     0.245 C 
HETATM   32  O   UNL     1      41.659 -12.224   6.242  1.00  0.00    -0.268 OA
HETATM   33  H   UNL     1      41.425 -14.535   6.862  1.00  0.00     0.169 HD
BRANCH  31  34
HETATM   34  C   UNL     1      42.393 -13.020   4.136  1.00  0.00     0.072 C 
HETATM   35  C   UNL     1      41.602 -12.209   3.414  1.00  0.00     0.006 C 
BRANCH  35  36
HETATM   36  C   UNL     1      41.536 -12.186   1.928  1.00  0.00     0.261 C 
BRANCH  36  37
HETATM   37  N   UNL     1      40.111 -11.951   1.471  1.00  0.00    -0.076 N 
HETATM   38  H   UNL     1      39.793 -12.840   1.061  1.00  0.00     0.279 HD
HETATM   39  C   UNL     1      39.171 -11.643   2.605  1.00  0.00     0.269 C 
HETATM   40  C   UNL     1      40.014 -10.923   0.383  1.00  0.00     0.269 C 
ENDBRANCH  36  37
ENDBRANCH  35  36
ENDBRANCH  31  34
ENDBRANCH   2  30
BRANCH   1  41
HETATM   41  O   UNL     1      44.209 -14.865   7.865  1.00  0.00    -0.349 OA
BRANCH  41  42
HETATM   42  C   UNL     1      45.025 -13.727   7.567  1.00  0.00     0.171 C 
HETATM   43  C   UNL     1      44.729 -12.651   8.596  1.00  0.00     0.034 C 
ENDBRANCH  41  42
ENDBRANCH   1  41
TORSDOF 11
ENDMDL
MODEL 2
REMARK VINA RESULT:      -8.3      3.046      7.799
REMARK  11 active torsions:
REMARK  status: ('A' for Active; 'I' for Inactive)
REMARK    1  A    between atoms: C_2  and  O_3 
REMARK    2  A    between atoms: O_3  and  C_4 
REMARK    3  A    between atoms: C_5  and  N_6 
REMARK       I    between atoms: N_6  and  C_7 
REMARK    4  A    between atoms: C_7  and  C_8 
REMARK    5  A    between atoms: C_9  and  C_10 
REMARK    6  A    between atoms: C_10  and  N_11 
REMARK    7  A    between atoms: C_24  and  N_25 
REMARK    8  A    between atoms: N_25  and  C_26 
REMARK    9  A    between atoms: C_30  and  O_31 
REMARK   10  A    between atoms: O_31  and  C_32 
REMARK   11  A    between atoms: C_32  and  C_33 
ROOT
HETATM    1  C   UNL     1      43.634 -18.749   3.039  1.00  0.00     0.097 A 
HETATM    2  C   UNL     1      42.824 -18.299   4.085  1.00  0.00     0.069 A 
HETATM    3  C   UNL     1      41.857 -17.319   3.828  1.00  0.00     0.048 A 
HETATM    4  C   UNL     1      41.617 -16.797   2.535  1.00  0.00     0.023 A 
HETATM    5  C   UNL     1      42.444 -17.274   1.493  1.00  0.00     0.071 A 
HETATM    6  N   UNL     1      42.333 -16.863   0.224  1.00  0.00    -0.259 NA
HETATM    7  C   UNL     1      41.383 -15.954  -0.073  1.00  0.00     0.142 A 
HETATM    8  C   UNL     1      40.530 -15.399   0.862  1.00  0.00     0.089 A 
HETATM    9  C   UNL     1      39.576 -14.429   0.425  1.00  0.00     0.103 C 
HETATM   10  N   UNL     1      38.810 -13.620   0.101  1.00  0.00    -0.191 NA
HETATM   11  C   UNL     1      40.642 -15.800   2.209  1.00  0.00     0.067 A 
HETATM   12  C   UNL     1      43.439 -18.206   1.764  1.00  0.00     0.071 A 
ENDROOT
BRANCH  11  13
HETATM   13  N   UNL     1      39.783 -15.198   3.168  1.00  0.00    -0.354 N 
HETATM   14  H   UNL     1      38.948 -15.747   3.376  1.00  0.00     0.166 HD
BRANCH  13  15
HETATM   15  C   UNL     1      39.906 -14.113   4.058  1.00  0.00     0.034 A 
HETATM   16  C   UNL     1      40.209 -12.854   3.514  1.00  0.00     0.056 A 
HETATM   17  C   UNL     1      40.440 -11.749   4.336  1.00  0.00     0.069 A 
HETATM   18 CL   UNL     1      40.816 -10.238   3.594  1.00  0.00    -0.081 Cl
HETATM   19  C   UNL     1      40.394 -11.893   5.722  1.00  0.00     0.091 A 
HETATM   20  C   UNL     1      40.057 -13.128   6.279  1.00  0.00     0.041 A 
HETATM   21  C   UNL     1      39.821 -14.233   5.449  1.00  0.00     0.032 A 
BRANCH  19  22
HETATM   22  O   UNL     1      40.597 -10.799   6.520  1.00  0.00    -0.344 OA
BRANCH  22  23
HETATM   23  C   UNL     1      39.771 -10.797   7.695  1.00  0.00     0.235 C 
BRANCH  23  24
HETATM   24  C   UNL     1      40.586 -10.732   8.971  1.00  0.00     0.058 A 
HETATM   25  N   UNL     1      41.888 -10.353   8.838  1.00  0.00    -0.263 NA
HETATM   26  C   UNL     1      42.649 -10.339   9.957  1.00  0.00     0.117 A 
HETATM   27  C   UNL     1      42.183 -10.675  11.215  1.00  0.00     0.019 A 
HETATM   28  C   UNL     1      40.855 -11.058  11.337  1.00  0.00     0.003 A 
HETATM   29  C   UNL     1      40.048 -11.099  10.204  1.00  0.00     0.029 A 
ENDBRANCH  23  24
ENDBRANCH  22  23
ENDBRANCH  19  22
ENDBRANCH  13  15
ENDBRANCH  11  13
BRANCH   2  30
HETATM   30  N   UNL     1      42.787 -18.861   5.380  1.00  0.00    -0.321 N 
HETATM   31  C   UNL     1      43.806 -19.046   6.266  1.00  0.00     0.245 C 
HETATM   32  O   UNL     1      43.868 -20.049   6.974  1.00  0.00    -0.268 OA
HETATM   33  H   UNL     1      42.029 -19.522   5.519  1.00  0.00     0.169 HD
BRANCH  31  34
HETATM   34  C   UNL     1      44.615 -17.835   6.582  1.00  0.00     0.072 C 
HETATM   35  C   UNL     1      43.959 -16.720   6.944  1.00  0.00     0.006 C 
BRANCH  35  36
HETATM   36  C   UNL     1      44.555 -15.356   6.981  1.00  0.00     0.261 C 
BRANCH  36  37
HETATM   37  N   UNL     1      43.543 -14.330   6.515  1.00  0.00    -0.076 N 
HETATM   38  H   UNL     1      42.619 -14.705   6.769  1.00  0.00     0.279 HD
HETATM   39  C   UNL     1      43.676 -13.007   7.220  1.00  0.00     0.269 C 
HETATM   40  C   UNL     1      43.536 -14.159   5.025  1.00  0.00     0.269 C 
ENDBRANCH  36  37
ENDBRANCH  35  36
ENDBRANCH  31  34
ENDBRANCH   2  30
BRANCH   1  41
HETATM   41  O   UNL     1      44.555 -19.728   3.298  1.00  0.00    -0.349 OA
BRANCH  41  42
HETATM   42  C   UNL     1      44.339 -20.986   2.649  1.00  0.00     0.171 C 
HETATM   43  C   UNL     1      44.556 -22.087   3.671  1.00  0.00     0.034 C 
ENDBRANCH  41  42
ENDBRANCH   1  41
TORSDOF 11
ENDMDL
MODEL 3
REMARK VINA RESULT:      -8.1      2.709      8.759
REMARK  11 active torsions:
REMARK  status: ('A' for Active; 'I' for Inactive)
REMARK    1  A    between atoms: C_2  and  O_3 
REMARK    2  A    between atoms: O_3  and  C_4 
REMARK    3  A    between atoms: C_5  and  N_6 
REMARK       I    between atoms: N_6  and  C_7 
REMARK    4  A    between atoms: C_7  and  C_8 
REMARK    5  A    between atoms: C_9  and  C_10 
REMARK    6  A    between atoms: C_10  and  N_11 
REMARK    7  A    between atoms: C_24  and  N_25 
REMARK    8  A    between atoms: N_25  and  C_26 
REMARK    9  A    between atoms: C_30  and  O_31 
REMARK   10  A    between atoms: O_31  and  C_32 
REMARK   11  A    between atoms: C_32  and  C_33 
ROOT
HETATM    1  C   UNL     1      42.521 -11.275  -1.304  1.00  0.00     0.097 A 
HETATM    2  C   UNL     1      42.142 -12.614  -1.180  1.00  0.00     0.069 A 
HETATM    3  C   UNL     1      41.426 -13.020  -0.048  1.00  0.00     0.048 A 
HETATM    4  C   UNL     1      41.012 -12.119   0.963  1.00  0.00     0.023 A 
HETATM    5  C   UNL     1      41.402 -10.769   0.810  1.00  0.00     0.071 A 
HETATM    6  N   UNL     1      41.086  -9.813   1.691  1.00  0.00    -0.259 NA
HETATM    7  C   UNL     1      40.358 -10.155   2.773  1.00  0.00     0.142 A 
HETATM    8  C   UNL     1      39.937 -11.443   3.042  1.00  0.00     0.089 A 
HETATM    9  C   UNL     1      39.185 -11.681   4.234  1.00  0.00     0.103 C 
HETATM   10  N   UNL     1      38.596 -11.906   5.207  1.00  0.00    -0.191 NA
HETATM   11  C   UNL     1      40.275 -12.472   2.139  1.00  0.00     0.067 A 
HETATM   12  C   UNL     1      42.160 -10.384  -0.288  1.00  0.00     0.071 A 
ENDROOT
BRANCH  11  13
HETATM   13  N   UNL     1      39.867 -13.799   2.442  1.00  0.00    -0.354 N 
HETATM   14  H   UNL     1      38.958 -14.051   2.050  1.00  0.00     0.166 HD
BRANCH  13  15
HETATM   15  C   UNL     1      40.508 -14.928   2.989  1.00  0.00     0.034 A 
HETATM   16  C   UNL     1      41.323 -14.733   4.116  1.00  0.00     0.056 A 
HETATM   17  C   UNL     1      42.067 -15.783   4.659  1.00  0.00     0.069 A 
HETATM   18 CL   UNL     1      43.052 -15.464   6.039  1.00  0.00    -0.081 Cl
HETATM   19  C   UNL     1      42.025 -17.044   4.065  1.00  0.00     0.091 A 
HETATM   20  C   UNL     1      41.192 -17.264   2.967  1.00  0.00     0.041 A 
HETATM   21  C   UNL     1      40.443 -16.208   2.429  1.00  0.00     0.032 A 
BRANCH  19  22
HETATM   22  O   UNL     1      42.738 -18.073   4.618  1.00  0.00    -0.344 OA
BRANCH  22  23
HETATM   23  C   UNL     1      43.953 -18.362   3.909  1.00  0.00     0.235 C 
BRANCH  23  24
HETATM   24  C   UNL     1      44.159 -19.851   3.705  1.00  0.00     0.058 A 
HETATM   25  N   UNL     1      44.575 -20.558   4.792  1.00  0.00    -0.263 NA
HETATM   26  C   UNL     1      44.816 -21.878   4.620  1.00  0.00     0.117 A 
HETATM   27  C   UNL     1      44.657 -22.544   3.418  1.00  0.00     0.019 A 
HETATM   28  C   UNL     1      44.232 -21.813   2.319  1.00  0.00     0.003 A 
HETATM   29  C   UNL     1      43.990 -20.449   2.457  1.00  0.00     0.029 A 
ENDBRANCH  23  24
ENDBRANCH  22  23
ENDBRANCH  19  22
ENDBRANCH  13  15
ENDBRANCH  11  13
BRANCH   2  30
HETATM   30  N   UNL     1      42.287 -13.593  -2.188  1.00  0.00    -0.321 N 
HETATM   31  C   UNL     1      41.324 -14.292  -2.852  1.00  0.00     0.245 C 
HETATM   32  O   UNL     1      41.478 -15.475  -3.148  1.00  0.00    -0.268 OA
HETATM   33  H   UNL     1      43.172 -14.090  -2.153  1.00  0.00     0.169 HD
BRANCH  31  34
HETATM   34  C   UNL     1      40.263 -13.473  -3.502  1.00  0.00     0.072 C 
HETATM   35  C   UNL     1      39.158 -13.197  -2.789  1.00  0.00     0.006 C 
BRANCH  35  36
HETATM   36  C   UNL     1      37.882 -12.686  -3.360  1.00  0.00     0.261 C 
BRANCH  36  37
HETATM   37  N   UNL     1      37.322 -13.676  -4.360  1.00  0.00    -0.076 N 
HETATM   38  H   UNL     1      38.028 -13.759  -5.105  1.00  0.00     0.279 HD
HETATM   39  C   UNL     1      37.141 -15.056  -3.787  1.00  0.00     0.269 C 
HETATM   40  C   UNL     1      36.067 -13.187  -5.019  1.00  0.00     0.269 C 
ENDBRANCH  36  37
ENDBRANCH  35  36
ENDBRANCH  31  34
ENDBRANCH   2  30
BRANCH   1  41
HETATM   41  O   UNL     1      43.196 -10.887  -2.431  1.00  0.00    -0.349 OA
BRANCH  41  42
HETATM   42  C   UNL     1      42.446 -10.126  -3.384  1.00  0.00     0.171 C 
HETATM   43  C   UNL     1      42.417 -10.902  -4.689  1.00  0.00     0.034 C 
ENDBRANCH  41  42
ENDBRANCH   1  41
TORSDOF 11
ENDMDL
MODEL 4
REMARK VINA RESULT:      -7.9      3.005      9.302
REMARK  11 active torsions:
REMARK  status: ('A' for Active; 'I' for Inactive)
REMARK    1  A    between atoms: C_2  and  O_3 
REMARK    2  A    between atoms: O_3  and  C_4 
REMARK    3  A    between atoms: C_5  and  N_6 
REMARK       I    between atoms: N_6  and  C_7 
REMARK    4  A    between atoms: C_7  and  C_8 
REMARK    5  A    between atoms: C_9  and  C_10 
REMARK    6  A    between atoms: C_10  and  N_11 
REMARK    7  A    between atoms: C_24  and  N_25 
REMARK    8  A    between atoms: N_25  and  C_26 
REMARK    9  A    between atoms: C_30  and  O_31 
REMARK   10  A    between atoms: O_31  and  C_32 
REMARK   11  A    between atoms: C_32  and  C_33 
ROOT
HETATM    1  C   UNL     1      37.693 -12.355  -2.508  1.00  0.00     0.097 A 
HETATM    2  C   UNL     1      37.962 -13.621  -1.981  1.00  0.00     0.069 A 
HETATM    3  C   UNL     1      38.221 -13.749  -0.611  1.00  0.00     0.048 A 
HETATM    4  C   UNL     1      38.167 -12.657   0.287  1.00  0.00     0.023 A 
HETATM    5  C   UNL     1      37.886 -11.388  -0.270  1.00  0.00     0.071 A 
HETATM    6  N   UNL     1      37.810 -10.269   0.459  1.00  0.00    -0.259 NA
HETATM    7  C   UNL     1      38.008 -10.358   1.790  1.00  0.00     0.142 A 
HETATM    8  C   UNL     1      38.311 -11.535   2.446  1.00  0.00     0.089 A 
HETATM    9  C   UNL     1      38.517 -11.496   3.860  1.00  0.00     0.103 C 
HETATM   10  N   UNL     1      38.715 -11.488   5.002  1.00  0.00    -0.191 NA
HETATM   11  C   UNL     1      38.416 -12.726   1.696  1.00  0.00     0.067 A 
HETATM   12  C   UNL     1      37.684 -11.259  -1.639  1.00  0.00     0.071 A 
ENDROOT
BRANCH  11  13
HETATM   13  N   UNL     1      38.762 -13.925   2.375  1.00  0.00    -0.354 N 
HETATM   14  H   UNL     1      37.967 -14.396   2.810  1.00  0.00     0.166 HD
BRANCH  13  15
HETATM   15  C   UNL     1      39.914 -14.734   2.424  1.00  0.00     0.034 A 
HETATM   16  C   UNL     1      41.110 -14.140   2.857  1.00  0.00     0.056 A 
HETATM   17  C   UNL     1      42.314 -14.848   2.842  1.00  0.00     0.069 A 
HETATM   18 CL   UNL     1      43.744 -14.047   3.381  1.00  0.00    -0.081 Cl
HETATM   19  C   UNL     1      42.343 -16.160   2.371  1.00  0.00     0.091 A 
HETATM   20  C   UNL     1      41.157 -16.778   1.972  1.00  0.00     0.041 A 
HETATM   21  C   UNL     1      39.950 -16.064   1.993  1.00  0.00     0.032 A 
BRANCH  19  22
HETATM   22  O   UNL     1      43.522 -16.855   2.385  1.00  0.00    -0.344 OA
BRANCH  22  23
HETATM   23  C   UNL     1      43.694 -17.651   3.568  1.00  0.00     0.235 C 
BRANCH  23  24
HETATM   24  C   UNL     1      43.892 -19.120   3.250  1.00  0.00     0.058 A 
HETATM   25  N   UNL     1      44.570 -19.853   4.176  1.00  0.00    -0.263 NA
HETATM   26  C   UNL     1      44.805 -21.154   3.889  1.00  0.00     0.117 A 
HETATM   27  C   UNL     1      44.392 -21.777   2.725  1.00  0.00     0.019 A 
HETATM   28  C   UNL     1      43.702 -21.019   1.789  1.00  0.00     0.003 A 
HETATM   29  C   UNL     1      43.457 -19.673   2.046  1.00  0.00     0.029 A 
ENDBRANCH  23  24
ENDBRANCH  22  23
ENDBRANCH  19  22
ENDBRANCH  13  15
ENDBRANCH  11  13
BRANCH   2  30
HETATM   30  N   UNL     1      37.847 -14.835  -2.692  1.00  0.00    -0.321 N 
HETATM   31  C   UNL     1      38.649 -15.336  -3.673  1.00  0.00     0.245 C 
HETATM   32  O   UNL     1      38.185 -15.948  -4.633  1.00  0.00    -0.268 OA
HETATM   33  H   UNL     1      36.897 -15.188  -2.751  1.00  0.00     0.169 HD
BRANCH  31  34
HETATM   34  C   UNL     1      40.100 -15.419  -3.343  1.00  0.00     0.072 C 
HETATM   35  C   UNL     1      40.804 -14.275  -3.319  1.00  0.00     0.006 C 
BRANCH  35  36
HETATM   36  C   UNL     1      42.290 -14.190  -3.332  1.00  0.00     0.261 C 
BRANCH  36  37
HETATM   37  N   UNL     1      42.732 -12.743  -3.251  1.00  0.00    -0.076 N 
HETATM   38  H   UNL     1      43.688 -12.715  -3.630  1.00  0.00     0.279 HD
HETATM   39  C   UNL     1      41.905 -11.825  -4.111  1.00  0.00     0.269 C 
HETATM   40  C   UNL     1      42.819 -12.242  -1.841  1.00  0.00     0.269 C 
ENDBRANCH  36  37
ENDBRANCH  35  36
ENDBRANCH  31  34
ENDBRANCH   2  30
BRANCH   1  41
HETATM   41  O   UNL     1      37.413 -12.249  -3.845  1.00  0.00    -0.349 OA
BRANCH  41  42
HETATM   42  C   UNL     1      36.780 -11.034  -4.262  1.00  0.00     0.171 C 
HETATM   43  C   UNL     1      37.680 -10.361  -5.282  1.00  0.00     0.034 C 
ENDBRANCH  41  42
ENDBRANCH   1  41
TORSDOF 11
ENDMDL
MODEL 5
REMARK VINA RESULT:      -7.9      2.674      8.856
REMARK  11 active torsions:
REMARK  status: ('A' for Active; 'I' for Inactive)
REMARK    1  A    between atoms: C_2  and  O_3 
REMARK    2  A    between atoms: O_3  and  C_4 
REMARK    3  A    between atoms: C_5  and  N_6 
REMARK       I    between atoms: N_6  and  C_7 
REMARK    4  A    between atoms: C_7  and  C_8 
REMARK    5  A    between atoms: C_9  and  C_10 
REMARK    6  A    between atoms: C_10  and  N_11 
REMARK    7  A    between atoms: C_24  and  N_25 
REMARK    8  A    between atoms: N_25  and  C_26 
REMARK    9  A    between atoms: C_30  and  O_31 
REMARK   10  A    between atoms: O_31  and  C_32 
REMARK   11  A    between atoms: C_32  and  C_33 
ROOT
HETATM    1  C   UNL     1      38.564 -13.438  -0.642  1.00  0.00     0.097 A 
HETATM    2  C   UNL     1      39.742 -14.159  -0.427  1.00  0.00     0.069 A 
HETATM    3  C   UNL     1      40.409 -14.029   0.797  1.00  0.00     0.048 A 
HETATM    4  C   UNL     1      39.914 -13.238   1.861  1.00  0.00     0.023 A 
HETATM    5  C   UNL     1      38.718 -12.524   1.621  1.00  0.00     0.071 A 
HETATM    6  N   UNL     1      38.142 -11.734   2.534  1.00  0.00    -0.259 NA
HETATM    7  C   UNL     1      38.729 -11.617   3.742  1.00  0.00     0.142 A 
HETATM    8  C   UNL     1      39.909 -12.247   4.087  1.00  0.00     0.089 A 
HETATM    9  C   UNL     1      40.443 -12.029   5.395  1.00  0.00     0.103 C 
HETATM   10  N   UNL     1      40.911 -11.848   6.441  1.00  0.00    -0.191 NA
HETATM   11  C   UNL     1      40.548 -13.069   3.135  1.00  0.00     0.067 A 
HETATM   12  C   UNL     1      38.090 -12.615   0.385  1.00  0.00     0.071 A 
ENDROOT
BRANCH  11  13
HETATM   13  N   UNL     1      41.779 -13.685   3.488  1.00  0.00    -0.354 N 
HETATM   14  H   UNL     1      42.577 -13.049   3.470  1.00  0.00     0.166 HD
BRANCH  13  15
HETATM   15  C   UNL     1      42.135 -14.923   4.056  1.00  0.00     0.034 A 
HETATM   16  C   UNL     1      42.737 -14.911   5.324  1.00  0.00     0.056 A 
HETATM   17  C   UNL     1      43.205 -16.088   5.912  1.00  0.00     0.069 A 
HETATM   18 CL   UNL     1      43.942 -15.992   7.469  1.00  0.00    -0.081 Cl
HETATM   19  C   UNL     1      43.097 -17.298   5.227  1.00  0.00     0.091 A 
HETATM   20  C   UNL     1      42.467 -17.334   3.982  1.00  0.00     0.041 A 
HETATM   21  C   UNL     1      41.995 -16.150   3.398  1.00  0.00     0.032 A 
BRANCH  19  22
HETATM   22  O   UNL     1      43.535 -18.450   5.822  1.00  0.00    -0.344 OA
BRANCH  22  23
HETATM   23  C   UNL     1      44.804 -18.897   5.319  1.00  0.00     0.235 C 
BRANCH  23  24
HETATM   24  C   UNL     1      44.689 -20.187   4.530  1.00  0.00     0.058 A 
HETATM   25  N   UNL     1      44.783 -21.343   5.244  1.00  0.00    -0.263 NA
HETATM   26  C   UNL     1      44.736 -22.506   4.555  1.00  0.00     0.117 A 
HETATM   27  C   UNL     1      44.590 -22.586   3.181  1.00  0.00     0.019 A 
HETATM   28  C   UNL     1      44.494 -21.401   2.465  1.00  0.00     0.003 A 
HETATM   29  C   UNL     1      44.555 -20.187   3.142  1.00  0.00     0.029 A 
ENDBRANCH  23  24
ENDBRANCH  22  23
ENDBRANCH  19  22
ENDBRANCH  13  15
ENDBRANCH  11  13
BRANCH   2  30
HETATM   30  N   UNL     1      40.255 -15.148  -1.294  1.00  0.00    -0.321 N 
HETATM   31  C   UNL     1      40.691 -15.022  -2.579  1.00  0.00     0.245 C 
HETATM   32  O   UNL     1      40.475 -15.892  -3.420  1.00  0.00    -0.268 OA
HETATM   33  H   UNL     1      39.926 -16.086  -1.088  1.00  0.00     0.169 HD
BRANCH  31  34
HETATM   34  C   UNL     1      41.728 -13.977  -2.810  1.00  0.00     0.072 C 
HETATM   35  C   UNL     1      41.335 -12.812  -3.353  1.00  0.00     0.006 C 
BRANCH  35  36
HETATM   36  C   UNL     1      42.249 -11.798  -3.946  1.00  0.00     0.261 C 
BRANCH  36  37
HETATM   37  N   UNL     1      42.167 -10.501  -3.167  1.00  0.00    -0.076 N 
HETATM   38  H   UNL     1      41.231 -10.484  -2.740  1.00  0.00     0.279 HD
HETATM   39  C   UNL     1      43.155 -10.430  -2.034  1.00  0.00     0.269 C 
HETATM   40  C   UNL     1      42.254  -9.291  -4.047  1.00  0.00     0.269 C 
ENDBRANCH  36  37
ENDBRANCH  35  36
ENDBRANCH  31  34
ENDBRANCH   2  30
BRANCH   1  41
HETATM   41  O   UNL     1      37.907 -13.598  -1.833  1.00  0.00    -0.349 OA
BRANCH  41  42
HETATM   42  C   UNL     1      37.452 -12.398  -2.468  1.00  0.00     0.171 C 
HETATM   43  C   UNL     1      37.278 -12.686  -3.948  1.00  0.00     0.034 C 
ENDBRANCH  41  42
ENDBRANCH   1  41
TORSDOF 11
ENDMDL
MODEL 6
REMARK VINA RESULT:      -7.8      4.110     10.122
REMARK  11 active torsions:
REMARK  status: ('A' for Active; 'I' for Inactive)
REMARK    1  A    between atoms: C_2  and  O_3 
REMARK    2  A    between atoms: O_3  and  C_4 
REMARK    3  A    between atoms: C_5  and  N_6 
REMARK       I    between atoms: N_6  and  C_7 
REMARK    4  A    between atoms: C_7  and  C_8 
REMARK    5  A    between atoms: C_9  and  C_10 
REMARK    6  A    between atoms: C_10  and  N_11 
REMARK    7  A    between atoms: C_24  and  N_25 
REMARK    8  A    between atoms: N_25  and  C_26 
REMARK    9  A    between atoms: C_30  and  O_31 
REMARK   10  A    between atoms: O_31  and  C_32 
REMARK   11  A    between atoms: C_32  and  C_33 
ROOT
HETATM    1  C   UNL     1      42.716 -14.537   3.202  1.00  0.00     0.097 A 
HETATM    2  C   UNL     1      43.063 -13.746   4.300  1.00  0.00     0.069 A 
HETATM    3  C   UNL     1      42.221 -12.692   4.677  1.00  0.00     0.048 A 
HETATM    4  C   UNL     1      40.993 -12.421   4.028  1.00  0.00     0.023 A 
HETATM    5  C   UNL     1      40.661 -13.240   2.925  1.00  0.00     0.071 A 
HETATM    6  N   UNL     1      39.536 -13.093   2.217  1.00  0.00    -0.259 NA
HETATM    7  C   UNL     1      38.677 -12.118   2.576  1.00  0.00     0.142 A 
HETATM    8  C   UNL     1      38.900 -11.242   3.620  1.00  0.00     0.089 A 
HETATM    9  C   UNL     1      37.920 -10.238   3.891  1.00  0.00     0.103 C 
HETATM   10  N   UNL     1      37.153  -9.397   4.115  1.00  0.00    -0.191 NA
HETATM   11  C   UNL     1      40.089 -11.364   4.370  1.00  0.00     0.067 A 
HETATM   12  C   UNL     1      41.528 -14.249   2.523  1.00  0.00     0.071 A 
ENDROOT
BRANCH  11  13
HETATM   13  N   UNL     1      40.325 -10.436   5.420  1.00  0.00    -0.354 N 
HETATM   14  H   UNL     1      40.648  -9.523   5.098  1.00  0.00     0.166 HD
BRANCH  13  15
HETATM   15  C   UNL     1      40.028 -10.408   6.796  1.00  0.00     0.034 A 
HETATM   16  C   UNL     1      40.361  -9.247   7.512  1.00  0.00     0.056 A 
HETATM   17  C   UNL     1      40.186  -9.177   8.896  1.00  0.00     0.069 A 
HETATM   18 CL   UNL     1      40.627  -7.720   9.707  1.00  0.00    -0.081 Cl
HETATM   19  C   UNL     1      39.694 -10.282   9.591  1.00  0.00     0.091 A 
HETATM   20  C   UNL     1      39.323 -11.431   8.891  1.00  0.00     0.041 A 
HETATM   21  C   UNL     1      39.496 -11.493   7.500  1.00  0.00     0.032 A 
BRANCH  19  22
HETATM   22  O   UNL     1      39.502 -10.196  10.943  1.00  0.00    -0.344 OA
BRANCH  22  23
HETATM   23  C   UNL     1      40.246 -11.178  11.682  1.00  0.00     0.235 C 
BRANCH  23  24
HETATM   24  C   UNL     1      41.387 -10.564  12.469  1.00  0.00     0.058 A 
HETATM   25  N   UNL     1      41.252 -10.559  13.824  1.00  0.00    -0.263 NA
HETATM   26  C   UNL     1      42.234  -9.969  14.545  1.00  0.00     0.117 A 
HETATM   27  C   UNL     1      43.357  -9.385  13.989  1.00  0.00     0.019 A 
HETATM   28  C   UNL     1      43.483  -9.397  12.607  1.00  0.00     0.003 A 
HETATM   29  C   UNL     1      42.484  -9.982  11.835  1.00  0.00     0.029 A 
ENDBRANCH  23  24
ENDBRANCH  22  23
ENDBRANCH  19  22
ENDBRANCH  13  15
ENDBRANCH  11  13
BRANCH   2  30
HETATM   30  N   UNL     1      44.135 -14.008   5.181  1.00  0.00    -0.321 N 
HETATM   31  C   UNL     1      44.104 -14.504   6.450  1.00  0.00     0.245 C 
HETATM   32  O   UNL     1      44.869 -14.094   7.320  1.00  0.00    -0.268 OA
HETATM   33  H   UNL     1      44.957 -13.438   5.009  1.00  0.00     0.169 HD
BRANCH  31  34
HETATM   34  C   UNL     1      43.365 -15.787   6.624  1.00  0.00     0.072 C 
HETATM   35  C   UNL     1      43.924 -16.905   6.131  1.00  0.00     0.006 C 
BRANCH  35  36
HETATM   36  C   UNL     1      43.209 -18.194   5.922  1.00  0.00     0.261 C 
BRANCH  36  37
HETATM   37  N   UNL     1      44.203 -19.330   5.801  1.00  0.00    -0.076 N 
HETATM   38  H   UNL     1      45.084 -18.982   6.203  1.00  0.00     0.279 HD
HETATM   39  C   UNL     1      43.816 -20.541   6.607  1.00  0.00     0.269 C 
HETATM   40  C   UNL     1      44.499 -19.691   4.376  1.00  0.00     0.269 C 
ENDBRANCH  36  37
ENDBRANCH  35  36
ENDBRANCH  31  34
ENDBRANCH   2  30
BRANCH   1  41
HETATM   41  O   UNL     1      43.534 -15.582   2.864  1.00  0.00    -0.349 OA
BRANCH  41  42
HETATM   42  C   UNL     1      42.975 -16.559   1.979  1.00  0.00     0.171 C 
HETATM   43  C   UNL     1      44.120 -17.315   1.329  1.00  0.00     0.034 C 
ENDBRANCH  41  42
ENDBRANCH   1  41
TORSDOF 11
ENDMDL
MODEL 7
REMARK VINA RESULT:      -7.5      3.473      8.461
REMARK  11 active torsions:
REMARK  status: ('A' for Active; 'I' for Inactive)
REMARK    1  A    between atoms: C_2  and  O_3 
REMARK    2  A    between atoms: O_3  and  C_4 
REMARK    3  A    between atoms: C_5  and  N_6 
REMARK       I    between atoms: N_6  and  C_7 
REMARK    4  A    between atoms: C_7  and  C_8 
REMARK    5  A    between atoms: C_9  and  C_10 
REMARK    6  A    between atoms: C_10  and  N_11 
REMARK    7  A    between atoms: C_24  and  N_25 
REMARK    8  A    between atoms: N_25  and  C_26 
REMARK    9  A    between atoms: C_30  and  O_31 
REMARK   10  A    between atoms: O_31  and  C_32 
REMARK   11  A    between atoms: C_32  and  C_33 
ROOT
HETATM    1  C   UNL     1      42.585 -17.501   3.360  1.00  0.00     0.097 A 
HETATM    2  C   UNL     1      42.580 -16.564   4.397  1.00  0.00     0.069 A 
HETATM    3  C   UNL     1      42.441 -15.205   4.089  1.00  0.00     0.048 A 
HETATM    4  C   UNL     1      42.246 -14.732   2.770  1.00  0.00     0.023 A 
HETATM    5  C   UNL     1      42.248 -15.700   1.740  1.00  0.00     0.071 A 
HETATM    6  N   UNL     1      42.080 -15.394   0.448  1.00  0.00    -0.259 NA
HETATM    7  C   UNL     1      41.898 -14.101   0.115  1.00  0.00     0.142 A 
HETATM    8  C   UNL     1      41.898 -13.064   1.028  1.00  0.00     0.089 A 
HETATM    9  C   UNL     1      41.713 -11.731   0.548  1.00  0.00     0.103 C 
HETATM   10  N   UNL     1      41.591 -10.637   0.181  1.00  0.00    -0.191 NA
HETATM   11  C   UNL     1      42.093 -13.358   2.394  1.00  0.00     0.067 A 
HETATM   12  C   UNL     1      42.441 -17.042   2.046  1.00  0.00     0.071 A 
ENDROOT
BRANCH  11  13
HETATM   13  N   UNL     1      42.126 -12.281   3.320  1.00  0.00    -0.354 N 
HETATM   14  H   UNL     1      42.807 -11.557   3.087  1.00  0.00     0.166 HD
BRANCH  13  15
HETATM   15  C   UNL     1      41.300 -11.871   4.385  1.00  0.00     0.034 A 
HETATM   16  C   UNL     1      40.260 -10.973   4.095  1.00  0.00     0.056 A 
HETATM   17  C   UNL     1      39.458 -10.445   5.109  1.00  0.00     0.069 A 
HETATM   18 CL   UNL     1      38.206  -9.341   4.675  1.00  0.00    -0.081 Cl
HETATM   19  C   UNL     1      39.701 -10.791   6.438  1.00  0.00     0.091 A 
HETATM   20  C   UNL     1      40.706 -11.711   6.741  1.00  0.00     0.041 A 
HETATM   21  C   UNL     1      41.506 -12.242   5.718  1.00  0.00     0.032 A 
BRANCH  19  22
HETATM   22  O   UNL     1      38.894 -10.289   7.423  1.00  0.00    -0.344 OA
BRANCH  22  23
HETATM   23  C   UNL     1      39.554  -9.319   8.252  1.00  0.00     0.235 C 
BRANCH  23  24
HETATM   24  C   UNL     1      39.632  -9.760   9.701  1.00  0.00     0.058 A 
HETATM   25  N   UNL     1      38.760  -9.164  10.561  1.00  0.00    -0.263 NA
HETATM   26  C   UNL     1      38.847  -9.502  11.868  1.00  0.00     0.117 A 
HETATM   27  C   UNL     1      39.755 -10.416  12.373  1.00  0.00     0.019 A 
HETATM   28  C   UNL     1      40.636 -11.017  11.486  1.00  0.00     0.003 A 
HETATM   29  C   UNL     1      40.585 -10.680  10.136  1.00  0.00     0.029 A 
ENDBRANCH  23  24
ENDBRANCH  22  23
ENDBRANCH  19  22
ENDBRANCH  13  15
ENDBRANCH  11  13
BRANCH   2  30
HETATM   30  N   UNL     1      42.551 -16.879   5.773  1.00  0.00    -0.321 N 
HETATM   31  C   UNL     1      43.588 -17.142   6.617  1.00  0.00     0.245 C 
HETATM   32  O   UNL     1      43.503 -18.000   7.493  1.00  0.00    -0.268 OA
HETATM   33  H   UNL     1      41.686 -17.316   6.076  1.00  0.00     0.169 HD
BRANCH  31  34
HETATM   34  C   UNL     1      44.666 -16.113   6.657  1.00  0.00     0.072 C 
HETATM   35  C   UNL     1      44.346 -14.887   7.103  1.00  0.00     0.006 C 
BRANCH  35  36
HETATM   36  C   UNL     1      45.180 -13.668   6.916  1.00  0.00     0.261 C 
BRANCH  36  37
HETATM   37  N   UNL     1      45.364 -12.952   8.238  1.00  0.00    -0.076 N 
HETATM   38  H   UNL     1      45.498 -13.687   8.944  1.00  0.00     0.279 HD
HETATM   39  C   UNL     1      46.598 -12.092   8.276  1.00  0.00     0.269 C 
HETATM   40  C   UNL     1      44.146 -12.181   8.653  1.00  0.00     0.269 C 
ENDBRANCH  36  37
ENDBRANCH  35  36
ENDBRANCH  31  34
ENDBRANCH   2  30
BRANCH   1  41
HETATM   41  O   UNL     1      42.692 -18.828   3.678  1.00  0.00    -0.349 OA
BRANCH  41  42
HETATM   42  C   UNL     1      43.901 -19.479   3.271  1.00  0.00     0.171 C 
HETATM   43  C   UNL     1      44.596 -20.002   4.515  1.00  0.00     0.034 C 
ENDBRANCH  41  42
ENDBRANCH   1  41
TORSDOF 11
ENDMDL
MODEL 8
REMARK VINA RESULT:      -7.4      3.130      9.142
REMARK  11 active torsions:
REMARK  status: ('A' for Active; 'I' for Inactive)
REMARK    1  A    between atoms: C_2  and  O_3 
REMARK    2  A    between atoms: O_3  and  C_4 
REMARK    3  A    between atoms: C_5  and  N_6 
REMARK       I    between atoms: N_6  and  C_7 
REMARK    4  A    between atoms: C_7  and  C_8 
REMARK    5  A    between atoms: C_9  and  C_10 
REMARK    6  A    between atoms: C_10  and  N_11 
REMARK    7  A    between atoms: C_24  and  N_25 
REMARK    8  A    between atoms: N_25  and  C_26 
REMARK    9  A    between atoms: C_30  and  O_31 
REMARK   10  A    between atoms: O_31  and  C_32 
REMARK   11  A    between atoms: C_32  and  C_33 
ROOT
HETATM    1  C   UNL     1      42.882 -15.290   2.469  1.00  0.00     0.097 A 
HETATM    2  C   UNL     1      42.903 -14.250   3.401  1.00  0.00     0.069 A 
HETATM    3  C   UNL     1      41.880 -13.294   3.382  1.00  0.00     0.048 A 
HETATM    4  C   UNL     1      40.783 -13.361   2.491  1.00  0.00     0.023 A 
HETATM    5  C   UNL     1      40.782 -14.426   1.562  1.00  0.00     0.071 A 
HETATM    6  N   UNL     1      39.811 -14.608   0.659  1.00  0.00    -0.259 NA
HETATM    7  C   UNL     1      38.785 -13.735   0.637  1.00  0.00     0.142 A 
HETATM    8  C   UNL     1      38.686 -12.644   1.478  1.00  0.00     0.089 A 
HETATM    9  C   UNL     1      37.555 -11.779   1.345  1.00  0.00     0.103 C 
HETATM   10  N   UNL     1      36.662 -11.046   1.240  1.00  0.00    -0.191 NA
HETATM   11  C   UNL     1      39.706 -12.418   2.426  1.00  0.00     0.067 A 
HETATM   12  C   UNL     1      41.828 -15.341   1.551  1.00  0.00     0.071 A 
ENDROOT
BRANCH  11  13
HETATM   13  N   UNL     1      39.612 -11.274   3.263  1.00  0.00    -0.354 N 
HETATM   14  H   UNL     1      38.928 -10.586   2.945  1.00  0.00     0.166 HD
BRANCH  13  15
HETATM   15  C   UNL     1      40.095 -10.948   4.545  1.00  0.00     0.034 A 
HETATM   16  C   UNL     1      39.524 -11.608   5.645  1.00  0.00     0.056 A 
HETATM   17  C   UNL     1      39.880 -11.272   6.953  1.00  0.00     0.069 A 
HETATM   18 CL   UNL     1      39.128 -12.121   8.253  1.00  0.00    -0.081 Cl
HETATM   19  C   UNL     1      40.801 -10.250   7.182  1.00  0.00     0.091 A 
HETATM   20  C   UNL     1      41.407  -9.610   6.100  1.00  0.00     0.041 A 
HETATM   21  C   UNL     1      41.049  -9.954   4.788  1.00  0.00     0.032 A 
BRANCH  19  22
HETATM   22  O   UNL     1      41.164  -9.945   8.466  1.00  0.00    -0.344 OA
BRANCH  22  23
HETATM   23  C   UNL     1      42.436 -10.498   8.839  1.00  0.00     0.235 C 
BRANCH  23  24
HETATM   24  C   UNL     1      42.597 -10.608  10.343  1.00  0.00     0.058 A 
HETATM   25  N   UNL     1      41.550 -11.150  11.025  1.00  0.00    -0.263 NA
HETATM   26  C   UNL     1      41.650 -11.209  12.373  1.00  0.00     0.117 A 
HETATM   27  C   UNL     1      42.746 -10.762  13.088  1.00  0.00     0.019 A 
HETATM   28  C   UNL     1      43.806 -10.213  12.382  1.00  0.00     0.003 A 
HETATM   29  C   UNL     1      43.730 -10.123  10.995  1.00  0.00     0.029 A 
ENDBRANCH  23  24
ENDBRANCH  22  23
ENDBRANCH  19  22
ENDBRANCH  13  15
ENDBRANCH  11  13
BRANCH   2  30
HETATM   30  N   UNL     1      43.801 -14.154   4.487  1.00  0.00    -0.321 N 
HETATM   31  C   UNL     1      43.550 -14.261   5.822  1.00  0.00     0.245 C 
HETATM   32  O   UNL     1      44.128 -13.552   6.644  1.00  0.00    -0.268 OA
HETATM   33  H   UNL     1      44.622 -13.590   4.292  1.00  0.00     0.169 HD
BRANCH  31  34
HETATM   34  C   UNL     1      42.833 -15.496   6.248  1.00  0.00     0.072 C 
HETATM   35  C   UNL     1      43.395 -16.248   7.209  1.00  0.00     0.006 C 
BRANCH  35  36
HETATM   36  C   UNL     1      43.006 -17.649   7.529  1.00  0.00     0.261 C 
BRANCH  36  37
HETATM   37  N   UNL     1      43.820 -18.621   6.700  1.00  0.00    -0.076 N 
HETATM   38  H   UNL     1      43.396 -18.622   5.763  1.00  0.00     0.279 HD
HETATM   39  C   UNL     1      45.251 -18.188   6.520  1.00  0.00     0.269 C 
HETATM   40  C   UNL     1      43.733 -20.029   7.207  1.00  0.00     0.269 C 
ENDBRANCH  36  37
ENDBRANCH  35  36
ENDBRANCH  31  34
ENDBRANCH   2  30
BRANCH   1  41
HETATM   41  O   UNL     1      43.873 -16.234   2.519  1.00  0.00    -0.349 OA
BRANCH  41  42
HETATM   42  C   UNL     1      43.868 -17.209   1.470  1.00  0.00     0.171 C 
HETATM   43  C   UNL     1      43.942 -18.585   2.107  1.00  0.00     0.034 C 
ENDBRANCH  41  42
ENDBRANCH   1  41
TORSDOF 11
ENDMDL
MODEL 9
REMARK VINA RESULT:      -7.4      2.624      8.540
REMARK  11 active torsions:
REMARK  status: ('A' for Active; 'I' for Inactive)
REMARK    1  A    between atoms: C_2  and  O_3 
REMARK    2  A    between atoms: O_3  and  C_4 
REMARK    3  A    between atoms: C_5  and  N_6 
REMARK       I    between atoms: N_6  and  C_7 
REMARK    4  A    between atoms: C_7  and  C_8 
REMARK    5  A    between atoms: C_9  and  C_10 
REMARK    6  A    between atoms: C_10  and  N_11 
REMARK    7  A    between atoms: C_24  and  N_25 
REMARK    8  A    between atoms: N_25  and  C_26 
REMARK    9  A    between atoms: C_30  and  O_31 
REMARK   10  A    between atoms: O_31  and  C_32 
REMARK   11  A    between atoms: C_32  and  C_33 
ROOT
HETATM    1  C   UNL     1      41.665 -11.393   0.297  1.00  0.00     0.097 A 
HETATM    2  C   UNL     1      41.618 -12.601   0.999  1.00  0.00     0.069 A 
HETATM    3  C   UNL     1      41.185 -12.602   2.330  1.00  0.00     0.048 A 
HETATM    4  C   UNL     1      40.731 -11.435   2.991  1.00  0.00     0.023 A 
HETATM    5  C   UNL     1      40.782 -10.228   2.257  1.00  0.00     0.071 A 
HETATM    6  N   UNL     1      40.392  -9.050   2.759  1.00  0.00    -0.259 NA
HETATM    7  C   UNL     1      39.925  -9.016   4.023  1.00  0.00     0.142 A 
HETATM    8  C   UNL     1      39.848 -10.124   4.845  1.00  0.00     0.089 A 
HETATM    9  C   UNL     1      39.351  -9.955   6.174  1.00  0.00     0.103 C 
HETATM   10  N   UNL     1      38.976  -9.841   7.266  1.00  0.00    -0.191 NA
HETATM   11  C   UNL     1      40.272 -11.373   4.346  1.00  0.00     0.067 A 
HETATM   12  C   UNL     1      41.265 -10.225   0.955  1.00  0.00     0.071 A 
ENDROOT
BRANCH  11  13
HETATM   13  N   UNL     1      40.221 -12.500   5.211  1.00  0.00    -0.354 N 
HETATM   14  H   UNL     1      39.315 -12.632   5.663  1.00  0.00     0.166 HD
BRANCH  13  15
HETATM   15  C   UNL     1      41.065 -13.604   5.443  1.00  0.00     0.034 A 
HETATM   16  C   UNL     1      42.392 -13.343   5.818  1.00  0.00     0.056 A 
HETATM   17  C   UNL     1      43.315 -14.379   5.974  1.00  0.00     0.069 A 
HETATM   18 CL   UNL     1      44.931 -13.979   6.428  1.00  0.00    -0.081 Cl
HETATM   19  C   UNL     1      42.928 -15.697   5.733  1.00  0.00     0.091 A 
HETATM   20  C   UNL     1      41.603 -15.978   5.396  1.00  0.00     0.041 A 
HETATM   21  C   UNL     1      40.679 -14.934   5.245  1.00  0.00     0.032 A 
BRANCH  19  22
HETATM   22  O   UNL     1      43.832 -16.709   5.912  1.00  0.00    -0.344 OA
BRANCH  22  23
HETATM   23  C   UNL     1      43.221 -18.007   5.973  1.00  0.00     0.235 C 
BRANCH  23  24
HETATM   24  C   UNL     1      43.697 -18.919   4.860  1.00  0.00     0.058 A 
HETATM   25  N   UNL     1      44.564 -19.907   5.217  1.00  0.00    -0.263 NA
HETATM   26  C   UNL     1      45.043 -20.701   4.231  1.00  0.00     0.117 A 
HETATM   27  C   UNL     1      44.699 -20.572   2.897  1.00  0.00     0.019 A 
HETATM   28  C   UNL     1      43.814 -19.563   2.547  1.00  0.00     0.003 A 
HETATM   29  C   UNL     1      43.314 -18.718   3.534  1.00  0.00     0.029 A 
ENDBRANCH  23  24
ENDBRANCH  22  23
ENDBRANCH  19  22
ENDBRANCH  13  15
ENDBRANCH  11  13
BRANCH   2  30
HETATM   30  N   UNL     1      41.830 -13.876   0.430  1.00  0.00    -0.321 N 
HETATM   31  C   UNL     1      40.915 -14.817   0.064  1.00  0.00     0.245 C 
HETATM   32  O   UNL     1      41.124 -16.016   0.231  1.00  0.00    -0.268 OA
HETATM   33  H   UNL     1      42.733 -14.282   0.657  1.00  0.00     0.169 HD
BRANCH  31  34
HETATM   34  C   UNL     1      39.840 -14.349  -0.857  1.00  0.00     0.072 C 
HETATM   35  C   UNL     1      40.056 -14.455  -2.179  1.00  0.00     0.006 C 
BRANCH  35  36
HETATM   36  C   UNL     1      39.262 -13.761  -3.229  1.00  0.00     0.261 C 
BRANCH  36  37
HETATM   37  N   UNL     1      38.571 -14.774  -4.118  1.00  0.00    -0.076 N 
HETATM   38  H   UNL     1      38.717 -14.453  -5.084  1.00  0.00     0.279 HD
HETATM   39  C   UNL     1      39.178 -16.149  -4.028  1.00  0.00     0.269 C 
HETATM   40  C   UNL     1      37.087 -14.815  -3.903  1.00  0.00     0.269 C 
ENDBRANCH  36  37
ENDBRANCH  35  36
ENDBRANCH  31  34
ENDBRANCH   2  30
BRANCH   1  41
HETATM   41  O   UNL     1      42.064 -11.412  -1.013  1.00  0.00    -0.349 OA
BRANCH  41  42
HETATM   42  C   UNL     1      42.364 -10.141  -1.599  1.00  0.00     0.171 C 
HETATM   43  C   UNL     1      43.839  -9.857  -1.377  1.00  0.00     0.034 C 
ENDBRANCH  41  42
ENDBRANCH   1  41
TORSDOF 11
ENDMDL
MODEL 10
REMARK VINA RESULT:      -7.4      2.323      3.123
REMARK  11 active torsions:
REMARK  status: ('A' for Active; 'I' for Inactive)
REMARK    1  A    between atoms: C_2  and  O_3 
REMARK    2  A    between atoms: O_3  and  C_4 
REMARK    3  A    between atoms: C_5  and  N_6 
REMARK       I    between atoms: N_6  and  C_7 
REMARK    4  A    between atoms: C_7  and  C_8 
REMARK    5  A    between atoms: C_9  and  C_10 
REMARK    6  A    between atoms: C_10  and  N_11 
REMARK    7  A    between atoms: C_24  and  N_25 
REMARK    8  A    between atoms: N_25  and  C_26 
REMARK    9  A    between atoms: C_30  and  O_31 
REMARK   10  A    between atoms: O_31  and  C_32 
REMARK   11  A    between atoms: C_32  and  C_33 
ROOT
HETATM    1  C   UNL     1      43.941 -14.124   6.957  1.00  0.00     0.097 A 
HETATM    2  C   UNL     1      43.768 -14.377   5.594  1.00  0.00     0.069 A 
HETATM    3  C   UNL     1      43.764 -15.702   5.140  1.00  0.00     0.048 A 
HETATM    4  C   UNL     1      43.871 -16.812   6.011  1.00  0.00     0.023 A 
HETATM    5  C   UNL     1      44.038 -16.529   7.385  1.00  0.00     0.071 A 
HETATM    6  N   UNL     1      44.159 -17.481   8.318  1.00  0.00    -0.259 NA
HETATM    7  C   UNL     1      44.115 -18.770   7.927  1.00  0.00     0.142 A 
HETATM    8  C   UNL     1      43.977 -19.171   6.612  1.00  0.00     0.089 A 
HETATM    9  C   UNL     1      43.962 -20.571   6.323  1.00  0.00     0.103 C 
HETATM   10  N   UNL     1      43.974 -21.699   6.057  1.00  0.00    -0.191 NA
HETATM   11  C   UNL     1      43.869 -18.187   5.608  1.00  0.00     0.067 A 
HETATM   12  C   UNL     1      44.096 -15.212   7.823  1.00  0.00     0.071 A 
ENDROOT
BRANCH  11  13
HETATM   13  N   UNL     1      43.762 -18.609   4.255  1.00  0.00    -0.354 N 
HETATM   14  H   UNL     1      43.947 -19.604   4.118  1.00  0.00     0.166 HD
BRANCH  13  15
HETATM   15  C   UNL     1      43.264 -18.023   3.075  1.00  0.00     0.034 A 
HETATM   16  C   UNL     1      41.931 -17.583   3.077  1.00  0.00     0.056 A 
HETATM   17  C   UNL     1      41.335 -17.079   1.919  1.00  0.00     0.069 A 
HETATM   18 CL   UNL     1      39.690 -16.566   1.999  1.00  0.00    -0.081 Cl
HETATM   19  C   UNL     1      42.061 -17.028   0.730  1.00  0.00     0.091 A 
HETATM   20  C   UNL     1      43.399 -17.426   0.718  1.00  0.00     0.041 A 
HETATM   21  C   UNL     1      43.994 -17.927   1.885  1.00  0.00     0.032 A 
BRANCH  19  22
HETATM   22  O   UNL     1      41.477 -16.509  -0.394  1.00  0.00    -0.344 OA
BRANCH  22  23
HETATM   23  C   UNL     1      41.406 -15.074  -0.380  1.00  0.00     0.235 C 
BRANCH  23  24
HETATM   24  C   UNL     1      40.178 -14.553  -1.101  1.00  0.00     0.058 A 
HETATM   25  N   UNL     1      40.118 -14.790  -2.441  1.00  0.00    -0.263 NA
HETATM   26  C   UNL     1      39.057 -14.288  -3.115  1.00  0.00     0.117 A 
HETATM   27  C   UNL     1      38.037 -13.564  -2.524  1.00  0.00     0.019 A 
HETATM   28  C   UNL     1      38.110 -13.330  -1.158  1.00  0.00     0.003 A 
HETATM   29  C   UNL     1      39.196 -13.819  -0.438  1.00  0.00     0.029 A 
ENDBRANCH  23  24
ENDBRANCH  22  23
ENDBRANCH  19  22
ENDBRANCH  13  15
ENDBRANCH  11  13
BRANCH   2  30
HETATM   30  N   UNL     1      43.437 -13.404   4.626  1.00  0.00    -0.321 N 
HETATM   31  C   UNL     1      42.327 -13.314   3.841  1.00  0.00     0.245 C 
HETATM   32  O   UNL     1      42.393 -12.934   2.674  1.00  0.00    -0.268 OA
HETATM   33  H   UNL     1      44.244 -12.950   4.208  1.00  0.00     0.169 HD
BRANCH  31  34
HETATM   34  C   UNL     1      41.022 -13.351   4.560  1.00  0.00     0.072 C 
HETATM   35  C   UNL     1      40.666 -12.265   5.268  1.00  0.00     0.006 C 
BRANCH  35  36
HETATM   36  C   UNL     1      39.585 -12.234   6.291  1.00  0.00     0.261 C 
BRANCH  36  37
HETATM   37  N   UNL     1      39.550 -10.882   6.973  1.00  0.00    -0.076 N 
HETATM   38  H   UNL     1      38.571 -10.729   7.252  1.00  0.00     0.279 HD
HETATM   39  C   UNL     1      40.366 -10.836   8.236  1.00  0.00     0.269 C 
HETATM   40  C   UNL     1      39.908  -9.757   6.048  1.00  0.00     0.269 C 
ENDBRANCH  36  37
ENDBRANCH  35  36
ENDBRANCH  31  34
ENDBRANCH   2  30
BRANCH   1  41
HETATM   41  O   UNL     1      43.913 -12.825   7.391  1.00  0.00    -0.349 OA
BRANCH  41  42
HETATM   42  C   UNL     1      44.471 -12.580   8.687  1.00  0.00     0.171 C 
HETATM   43  C   UNL     1      45.912 -12.140   8.503  1.00  0.00     0.034 C 
ENDBRANCH  41  42
ENDBRANCH   1  41
TORSDOF 11
ENDMDL
