MODEL 1
REMARK VINA RESULT:      -8.6      0.000      0.000
REMARK  4 active torsions:
REMARK  status: ('A' for Active; 'I' for Inactive)
REMARK    1  A    between atoms: C_5  and  C_6 
REMARK    2  A    between atoms: C_6  and  N_7 
REMARK    3  A    between atoms: C_6  and  C_18 
REMARK    4  A    between atoms: N_7  and  C_8 
ROOT
HETATM    1  C   UNL     1      43.172 -18.358   3.474  1.00  0.00     0.288 C 
ENDROOT
BRANCH   1   2
HETATM    2  C   UNL     1      43.644 -19.759   3.114  1.00  0.00    -0.003 A 
HETATM    3  C   UNL     1      44.370 -20.499   4.048  1.00  0.00     0.126 A 
HETATM    4  N   UNL     1      44.863 -21.738   3.828  1.00  0.00    -0.272 NA
HETATM    5  C   UNL     1      44.615 -22.292   2.625  1.00  0.00     0.116 A 
HETATM    6  C   UNL     1      43.909 -21.652   1.623  1.00  0.00     0.020 A 
HETATM    7  C   UNL     1      43.425 -20.368   1.871  1.00  0.00     0.012 A 
ENDBRANCH   1   2
BRANCH   1   8
HETATM    8  N   UNL     1      41.879 -18.012   2.828  1.00  0.00     0.101 NA
HETATM    9  H   UNL     1      41.175 -18.046   3.570  1.00  0.00     0.317 HD
BRANCH   8  10
HETATM   10  C   UNL     1      41.750 -16.749   2.091  1.00  0.00     0.225 C 
HETATM   11  C   UNL     1      41.652 -16.926   0.561  1.00  0.00     0.069 C 
HETATM   12  C   UNL     1      41.355 -15.597  -0.107  1.00  0.00     0.190 C 
HETATM   13  N   UNL     1      40.059 -15.067   0.439  1.00  0.00    -0.067 N 
HETATM   14  C   UNL     1      41.061 -15.625  -1.593  1.00  0.00     0.035 C 
HETATM   15  H   UNL     1      39.346 -15.804   0.330  1.00  0.00     0.280 HD
HETATM   16  C   UNL     1      40.149 -14.750   1.894  1.00  0.00     0.237 C 
HETATM   17  C   UNL     1      39.652 -13.954  -0.491  1.00  0.00     0.235 C 
HETATM   18  C   UNL     1      40.482 -16.042   2.636  1.00  0.00     0.063 C 
HETATM   19  C   UNL     1      40.324 -14.306  -1.819  1.00  0.00     0.030 C 
ENDBRANCH   8  10
ENDBRANCH   1   8
BRANCH   1  20
HETATM   20  C   UNL     1      43.289 -17.894   4.931  1.00  0.00    -0.021 A 
HETATM   21  C   UNL     1      44.510 -17.542   5.535  1.00  0.00     0.012 A 
HETATM   22  C   UNL     1      44.556 -17.099   6.861  1.00  0.00     0.043 A 
HETATM   23  C   UNL     1      43.380 -16.970   7.587  1.00  0.00     0.116 A 
HETATM   24  F   UNL     1      43.428 -16.552   8.857  1.00  0.00    -0.206 F 
HETATM   25  C   UNL     1      42.154 -17.259   7.007  1.00  0.00     0.043 A 
HETATM   26  C   UNL     1      42.108 -17.704   5.685  1.00  0.00     0.012 A 
ENDBRANCH   1  20
TORSDOF 4
ENDMDL
MODEL 2
REMARK VINA RESULT:      -8.4      2.695      4.672
REMARK  4 active torsions:
REMARK  status: ('A' for Active; 'I' for Inactive)
REMARK    1  A    between atoms: C_5  and  C_6 
REMARK    2  A    between atoms: C_6  and  N_7 
REMARK    3  A    between atoms: C_6  and  C_18 
REMARK    4  A    between atoms: N_7  and  C_8 
ROOT
HETATM    1  C   UNL     1      41.547 -17.050   3.771  1.00  0.00     0.288 C 
ENDROOT
BRANCH   1   2
HETATM    2  C   UNL     1      42.056 -15.699   4.252  1.00  0.00    -0.003 A 
HETATM    3  C   UNL     1      41.329 -14.996   5.215  1.00  0.00     0.126 A 
HETATM    4  N   UNL     1      41.669 -13.779   5.693  1.00  0.00    -0.272 NA
HETATM    5  C   UNL     1      42.798 -13.224   5.211  1.00  0.00     0.116 A 
HETATM    6  C   UNL     1      43.596 -13.827   4.256  1.00  0.00     0.020 A 
HETATM    7  C   UNL     1      43.214 -15.076   3.768  1.00  0.00     0.012 A 
ENDBRANCH   1   2
BRANCH   1   8
HETATM    8  N   UNL     1      40.467 -16.920   2.758  1.00  0.00     0.101 NA
HETATM    9  H   UNL     1      39.587 -16.973   3.276  1.00  0.00     0.317 HD
BRANCH   8  10
HETATM   10  C   UNL     1      40.441 -15.751   1.871  1.00  0.00     0.225 C 
HETATM   11  C   UNL     1      40.935 -16.043   0.438  1.00  0.00     0.069 C 
HETATM   12  C   UNL     1      40.720 -14.834  -0.452  1.00  0.00     0.190 C 
HETATM   13  N   UNL     1      39.254 -14.505  -0.465  1.00  0.00    -0.067 N 
HETATM   14  C   UNL     1      40.997 -15.011  -1.931  1.00  0.00     0.035 C 
HETATM   15  H   UNL     1      38.740 -15.362  -0.723  1.00  0.00     0.280 HD
HETATM   16  C   UNL     1      38.760 -14.082   0.878  1.00  0.00     0.237 C 
HETATM   17  C   UNL     1      39.063 -13.545  -1.610  1.00  0.00     0.235 C 
HETATM   18  C   UNL     1      38.976 -15.244   1.845  1.00  0.00     0.063 C 
HETATM   19  C   UNL     1      40.217 -13.860  -2.563  1.00  0.00     0.030 C 
ENDBRANCH   8  10
ENDBRANCH   1   8
BRANCH   1  20
HETATM   20  C   UNL     1      42.567 -18.153   3.463  1.00  0.00    -0.021 A 
HETATM   21  C   UNL     1      43.430 -18.701   4.430  1.00  0.00     0.012 A 
HETATM   22  C   UNL     1      44.324 -19.725   4.100  1.00  0.00     0.043 A 
HETATM   23  C   UNL     1      44.341 -20.237   2.810  1.00  0.00     0.116 A 
HETATM   24  F   UNL     1      45.200 -21.213   2.496  1.00  0.00    -0.206 F 
HETATM   25  C   UNL     1      43.468 -19.757   1.846  1.00  0.00     0.043 A 
HETATM   26  C   UNL     1      42.579 -18.733   2.173  1.00  0.00     0.012 A 
ENDBRANCH   1  20
TORSDOF 4
ENDMDL
MODEL 3
REMARK VINA RESULT:      -8.3      2.727      4.689
REMARK  4 active torsions:
REMARK  status: ('A' for Active; 'I' for Inactive)
REMARK    1  A    between atoms: C_5  and  C_6 
REMARK    2  A    between atoms: C_6  and  N_7 
REMARK    3  A    between atoms: C_6  and  C_18 
REMARK    4  A    between atoms: N_7  and  C_8 
ROOT
HETATM    1  C   UNL     1      43.256 -17.447   3.824  1.00  0.00     0.288 C 
ENDROOT
BRANCH   1   2
HETATM    2  C   UNL     1      43.337 -17.101   5.303  1.00  0.00    -0.003 A 
HETATM    3  C   UNL     1      42.675 -17.904   6.232  1.00  0.00     0.126 A 
HETATM    4  N   UNL     1      42.653 -17.677   7.564  1.00  0.00    -0.272 NA
HETATM    5  C   UNL     1      43.335 -16.606   8.014  1.00  0.00     0.116 A 
HETATM    6  C   UNL     1      44.026 -15.739   7.187  1.00  0.00     0.020 A 
HETATM    7  C   UNL     1      44.019 -15.989   5.815  1.00  0.00     0.012 A 
ENDBRANCH   1   2
BRANCH   1   8
HETATM    8  N   UNL     1      43.757 -16.348   2.957  1.00  0.00     0.101 NA
HETATM    9  H   UNL     1      44.427 -16.779   2.315  1.00  0.00     0.317 HD
BRANCH   8  10
HETATM   10  C   UNL     1      42.803 -15.535   2.192  1.00  0.00     0.225 C 
HETATM   11  C   UNL     1      41.338 -16.004   2.320  1.00  0.00     0.069 C 
HETATM   12  C   UNL     1      40.406 -15.019   1.641  1.00  0.00     0.190 C 
HETATM   13  N   UNL     1      40.579 -13.674   2.288  1.00  0.00    -0.067 N 
HETATM   14  C   UNL     1      38.919 -15.245   1.820  1.00  0.00     0.035 C 
HETATM   15  H   UNL     1      40.456 -13.795   3.306  1.00  0.00     0.280 HD
HETATM   16  C   UNL     1      41.946 -13.117   2.071  1.00  0.00     0.237 C 
HETATM   17  C   UNL     1      39.409 -12.847   1.824  1.00  0.00     0.235 C 
HETATM   18  C   UNL     1      42.951 -14.078   2.702  1.00  0.00     0.063 C 
HETATM   19  C   UNL     1      38.325 -13.875   1.497  1.00  0.00     0.030 C 
ENDBRANCH   8  10
ENDBRANCH   1   8
BRANCH   1  20
HETATM   20  C   UNL     1      43.686 -18.848   3.371  1.00  0.00    -0.021 A 
HETATM   21  C   UNL     1      44.548 -19.671   4.119  1.00  0.00     0.012 A 
HETATM   22  C   UNL     1      44.887 -20.953   3.671  1.00  0.00     0.043 A 
HETATM   23  C   UNL     1      44.343 -21.438   2.491  1.00  0.00     0.116 A 
HETATM   24  F   UNL     1      44.674 -22.662   2.063  1.00  0.00    -0.206 F 
HETATM   25  C   UNL     1      43.450 -20.674   1.756  1.00  0.00     0.043 A 
HETATM   26  C   UNL     1      43.114 -19.394   2.199  1.00  0.00     0.012 A 
ENDBRANCH   1  20
TORSDOF 4
ENDMDL
MODEL 4
REMARK VINA RESULT:      -8.2      2.391      4.673
REMARK  4 active torsions:
REMARK  status: ('A' for Active; 'I' for Inactive)
REMARK    1  A    between atoms: C_5  and  C_6 
REMARK    2  A    between atoms: C_6  and  N_7 
REMARK    3  A    between atoms: C_6  and  C_18 
REMARK    4  A    between atoms: N_7  and  C_8 
ROOT
HETATM    1  C   UNL     1      42.605 -17.760   3.827  1.00  0.00     0.288 C 
ENDROOT
BRANCH   1   2
HETATM    2  C   UNL     1      42.903 -17.273   5.238  1.00  0.00    -0.003 A 
HETATM    3  C   UNL     1      43.633 -16.097   5.417  1.00  0.00     0.126 A 
HETATM    4  N   UNL     1      43.980 -15.587   6.619  1.00  0.00    -0.272 NA
HETATM    5  C   UNL     1      43.573 -16.261   7.712  1.00  0.00     0.116 A 
HETATM    6  C   UNL     1      42.846 -17.436   7.656  1.00  0.00     0.020 A 
HETATM    7  C   UNL     1      42.514 -17.949   6.402  1.00  0.00     0.012 A 
ENDBRANCH   1   2
BRANCH   1   8
HETATM    8  N   UNL     1      42.655 -16.661   2.827  1.00  0.00     0.101 NA
HETATM    9  H   UNL     1      43.507 -16.815   2.282  1.00  0.00     0.317 HD
BRANCH   8  10
HETATM   10  C   UNL     1      41.523 -16.458   1.914  1.00  0.00     0.225 C 
HETATM   11  C   UNL     1      40.480 -15.443   2.429  1.00  0.00     0.069 C 
HETATM   12  C   UNL     1      39.439 -15.167   1.363  1.00  0.00     0.190 C 
HETATM   13  N   UNL     1      40.133 -14.626   0.145  1.00  0.00    -0.067 N 
HETATM   14  C   UNL     1      38.438 -14.066   1.647  1.00  0.00     0.035 C 
HETATM   15  H   UNL     1      40.710 -13.823   0.441  1.00  0.00     0.280 HD
HETATM   16  C   UNL     1      41.053 -15.627  -0.470  1.00  0.00     0.237 C 
HETATM   17  C   UNL     1      39.043 -14.057  -0.725  1.00  0.00     0.235 C 
HETATM   18  C   UNL     1      42.119 -15.983   0.564  1.00  0.00     0.063 C 
HETATM   19  C   UNL     1      37.922 -13.708   0.255  1.00  0.00     0.030 C 
ENDBRANCH   8  10
ENDBRANCH   1   8
BRANCH   1  20
HETATM   20  C   UNL     1      43.242 -19.070   3.351  1.00  0.00    -0.021 A 
HETATM   21  C   UNL     1      42.917 -19.689   2.130  1.00  0.00     0.012 A 
HETATM   22  C   UNL     1      43.548 -20.872   1.731  1.00  0.00     0.043 A 
HETATM   23  C   UNL     1      44.535 -21.430   2.531  1.00  0.00     0.116 A 
HETATM   24  F   UNL     1      45.134 -22.565   2.149  1.00  0.00    -0.206 F 
HETATM   25  C   UNL     1      44.918 -20.820   3.715  1.00  0.00     0.043 A 
HETATM   26  C   UNL     1      44.285 -19.642   4.115  1.00  0.00     0.012 A 
ENDBRANCH   1  20
TORSDOF 4
ENDMDL
MODEL 5
REMARK VINA RESULT:      -7.7      1.588      1.910
REMARK  4 active torsions:
REMARK  status: ('A' for Active; 'I' for Inactive)
REMARK    1  A    between atoms: C_5  and  C_6 
REMARK    2  A    between atoms: C_6  and  N_7 
REMARK    3  A    between atoms: C_6  and  C_18 
REMARK    4  A    between atoms: N_7  and  C_8 
ROOT
HETATM    1  C   UNL     1      42.991 -17.022   3.324  1.00  0.00     0.288 C 
ENDROOT
BRANCH   1   2
HETATM    2  C   UNL     1      43.485 -18.449   3.138  1.00  0.00    -0.003 A 
HETATM    3  C   UNL     1      42.999 -19.209   2.073  1.00  0.00     0.126 A 
HETATM    4  N   UNL     1      43.343 -20.493   1.827  1.00  0.00    -0.272 NA
HETATM    5  C   UNL     1      44.230 -21.061   2.667  1.00  0.00     0.116 A 
HETATM    6  C   UNL     1      44.777 -20.405   3.756  1.00  0.00     0.020 A 
HETATM    7  C   UNL     1      44.392 -19.086   3.995  1.00  0.00     0.012 A 
ENDBRANCH   1   2
BRANCH   1   8
HETATM    8  N   UNL     1      41.580 -16.850   2.890  1.00  0.00     0.101 NA
HETATM    9  H   UNL     1      41.030 -16.756   3.747  1.00  0.00     0.317 HD
BRANCH   8  10
HETATM   10  C   UNL     1      41.232 -15.762   1.967  1.00  0.00     0.225 C 
HETATM   11  C   UNL     1      41.453 -16.110   0.479  1.00  0.00     0.069 C 
HETATM   12  C   UNL     1      40.917 -15.004  -0.408  1.00  0.00     0.190 C 
HETATM   13  N   UNL     1      39.451 -14.835  -0.127  1.00  0.00    -0.067 N 
HETATM   14  C   UNL     1      40.904 -15.264  -1.900  1.00  0.00     0.035 C 
HETATM   15  H   UNL     1      39.002 -15.759  -0.224  1.00  0.00     0.280 HD
HETATM   16  C   UNL     1      39.195 -14.364   1.265  1.00  0.00     0.237 C 
HETATM   17  C   UNL     1      38.915 -13.992  -1.255  1.00  0.00     0.235 C 
HETATM   18  C   UNL     1      39.743 -15.417   2.226  1.00  0.00     0.063 C 
HETATM   19  C   UNL     1      39.878 -14.256  -2.413  1.00  0.00     0.030 C 
ENDBRANCH   8  10
ENDBRANCH   1   8
BRANCH   1  20
HETATM   20  C   UNL     1      43.341 -16.286   4.623  1.00  0.00    -0.021 A 
HETATM   21  C   UNL     1      43.523 -16.938   5.856  1.00  0.00     0.012 A 
HETATM   22  C   UNL     1      43.868 -16.220   7.007  1.00  0.00     0.043 A 
HETATM   23  C   UNL     1      44.067 -14.849   6.930  1.00  0.00     0.116 A 
HETATM   24  F   UNL     1      44.392 -14.164   8.033  1.00  0.00    -0.206 F 
HETATM   25  C   UNL     1      43.947 -14.182   5.721  1.00  0.00     0.043 A 
HETATM   26  C   UNL     1      43.599 -14.897   4.574  1.00  0.00     0.012 A 
ENDBRANCH   1  20
TORSDOF 4
ENDMDL
MODEL 6
REMARK VINA RESULT:      -7.6      1.713      2.276
REMARK  4 active torsions:
REMARK  status: ('A' for Active; 'I' for Inactive)
REMARK    1  A    between atoms: C_5  and  C_6 
REMARK    2  A    between atoms: C_6  and  N_7 
REMARK    3  A    between atoms: C_6  and  C_18 
REMARK    4  A    between atoms: N_7  and  C_8 
ROOT
HETATM    1  C   UNL     1      42.641 -17.174   3.265  1.00  0.00     0.288 C 
ENDROOT
BRANCH   1   2
HETATM    2  C   UNL     1      43.296 -18.540   3.127  1.00  0.00    -0.003 A 
HETATM    3  C   UNL     1      44.222 -18.956   4.084  1.00  0.00     0.126 A 
HETATM    4  N   UNL     1      44.885 -20.133   4.048  1.00  0.00    -0.272 NA
HETATM    5  C   UNL     1      44.613 -20.959   3.019  1.00  0.00     0.116 A 
HETATM    6  C   UNL     1      43.716 -20.651   2.012  1.00  0.00     0.020 A 
HETATM    7  C   UNL     1      43.057 -19.424   2.066  1.00  0.00     0.012 A 
ENDBRANCH   1   2
BRANCH   1   8
HETATM    8  N   UNL     1      41.163 -17.237   3.117  1.00  0.00     0.101 NA
HETATM    9  H   UNL     1      40.776 -16.908   4.005  1.00  0.00     0.317 HD
BRANCH   8  10
HETATM   10  C   UNL     1      40.513 -16.525   2.009  1.00  0.00     0.225 C 
HETATM   11  C   UNL     1      39.705 -15.287   2.451  1.00  0.00     0.069 C 
HETATM   12  C   UNL     1      39.209 -14.519   1.241  1.00  0.00     0.190 C 
HETATM   13  N   UNL     1      40.396 -14.099   0.422  1.00  0.00    -0.067 N 
HETATM   14  C   UNL     1      38.540 -13.185   1.500  1.00  0.00     0.035 C 
HETATM   15  H   UNL     1      41.049 -13.599   1.046  1.00  0.00     0.280 HD
HETATM   16  C   UNL     1      41.132 -15.267  -0.143  1.00  0.00     0.237 C 
HETATM   17  C   UNL     1      39.878 -13.069  -0.547  1.00  0.00     0.235 C 
HETATM   18  C   UNL     1      41.637 -16.113   1.024  1.00  0.00     0.063 C 
HETATM   19  C   UNL     1      38.648 -12.482   0.148  1.00  0.00     0.030 C 
ENDBRANCH   8  10
ENDBRANCH   1   8
BRANCH   1  20
HETATM   20  C   UNL     1      43.119 -16.238   4.382  1.00  0.00    -0.021 A 
HETATM   21  C   UNL     1      43.485 -14.897   4.162  1.00  0.00     0.012 A 
HETATM   22  C   UNL     1      43.890 -14.078   5.223  1.00  0.00     0.043 A 
HETATM   23  C   UNL     1      43.898 -14.579   6.516  1.00  0.00     0.116 A 
HETATM   24  F   UNL     1      44.290 -13.795   7.528  1.00  0.00    -0.206 F 
HETATM   25  C   UNL     1      43.494 -15.880   6.776  1.00  0.00     0.043 A 
HETATM   26  C   UNL     1      43.094 -16.698   5.718  1.00  0.00     0.012 A 
ENDBRANCH   1  20
TORSDOF 4
ENDMDL
MODEL 7
REMARK VINA RESULT:      -7.6      2.659      4.951
REMARK  4 active torsions:
REMARK  status: ('A' for Active; 'I' for Inactive)
REMARK    1  A    between atoms: C_5  and  C_6 
REMARK    2  A    between atoms: C_6  and  N_7 
REMARK    3  A    between atoms: C_6  and  C_18 
REMARK    4  A    between atoms: N_7  and  C_8 
ROOT
HETATM    1  C   UNL     1      42.303 -16.667   2.648  1.00  0.00     0.288 C 
ENDROOT
BRANCH   1   2
HETATM    2  C   UNL     1      42.632 -15.607   3.689  1.00  0.00    -0.003 A 
HETATM    3  C   UNL     1      43.579 -14.626   3.392  1.00  0.00     0.126 A 
HETATM    4  N   UNL     1      43.970 -13.655   4.247  1.00  0.00    -0.272 NA
HETATM    5  C   UNL     1      43.386 -13.634   5.460  1.00  0.00     0.116 A 
HETATM    6  C   UNL     1      42.436 -14.555   5.864  1.00  0.00     0.020 A 
HETATM    7  C   UNL     1      42.062 -15.556   4.968  1.00  0.00     0.012 A 
ENDBRANCH   1   2
BRANCH   1   8
HETATM    8  N   UNL     1      42.289 -16.120   1.266  1.00  0.00     0.101 NA
HETATM    9  H   UNL     1      42.774 -16.808   0.686  1.00  0.00     0.317 HD
BRANCH   8  10
HETATM   10  C   UNL     1      41.010 -15.767   0.638  1.00  0.00     0.225 C 
HETATM   11  C   UNL     1      40.122 -14.846   1.502  1.00  0.00     0.069 C 
HETATM   12  C   UNL     1      38.904 -14.398   0.718  1.00  0.00     0.190 C 
HETATM   13  N   UNL     1      39.369 -13.668  -0.510  1.00  0.00    -0.067 N 
HETATM   14  C   UNL     1      38.015 -13.355   1.364  1.00  0.00     0.035 C 
HETATM   15  H   UNL     1      40.019 -12.925  -0.208  1.00  0.00     0.280 HD
HETATM   16  C   UNL     1      40.117 -14.557  -1.445  1.00  0.00     0.237 C 
HETATM   17  C   UNL     1      38.152 -12.961  -1.047  1.00  0.00     0.235 C 
HETATM   18  C   UNL     1      41.350 -15.080  -0.710  1.00  0.00     0.063 C 
HETATM   19  C   UNL     1      37.253 -12.773   0.176  1.00  0.00     0.030 C 
ENDBRANCH   8  10
ENDBRANCH   1   8
BRANCH   1  20
HETATM   20  C   UNL     1      42.962 -18.046   2.769  1.00  0.00    -0.021 A 
HETATM   21  C   UNL     1      42.957 -18.999   1.733  1.00  0.00     0.012 A 
HETATM   22  C   UNL     1      43.597 -20.234   1.887  1.00  0.00     0.043 A 
HETATM   23  C   UNL     1      44.279 -20.515   3.062  1.00  0.00     0.116 A 
HETATM   24  F   UNL     1      44.886 -21.699   3.208  1.00  0.00    -0.206 F 
HETATM   25  C   UNL     1      44.349 -19.580   4.083  1.00  0.00     0.043 A 
HETATM   26  C   UNL     1      43.707 -18.350   3.932  1.00  0.00     0.012 A 
ENDBRANCH   1  20
TORSDOF 4
ENDMDL
MODEL 8
REMARK VINA RESULT:      -7.6      2.149      6.517
REMARK  4 active torsions:
REMARK  status: ('A' for Active; 'I' for Inactive)
REMARK    1  A    between atoms: C_5  and  C_6 
REMARK    2  A    between atoms: C_6  and  N_7 
REMARK    3  A    between atoms: C_6  and  C_18 
REMARK    4  A    between atoms: N_7  and  C_8 
ROOT
HETATM    1  C   UNL     1      41.402 -15.702   1.955  1.00  0.00     0.288 C 
ENDROOT
BRANCH   1   2
HETATM    2  C   UNL     1      40.945 -15.257   0.574  1.00  0.00    -0.003 A 
HETATM    3  C   UNL     1      40.026 -14.213   0.460  1.00  0.00     0.126 A 
HETATM    4  N   UNL     1      39.529 -13.754  -0.710  1.00  0.00    -0.272 NA
HETATM    5  C   UNL     1      39.972 -14.343  -1.837  1.00  0.00     0.116 A 
HETATM    6  C   UNL     1      40.880 -15.386  -1.846  1.00  0.00     0.020 A 
HETATM    7  C   UNL     1      41.365 -15.851  -0.624  1.00  0.00     0.012 A 
ENDBRANCH   1   2
BRANCH   1   8
HETATM    8  N   UNL     1      42.662 -16.490   1.908  1.00  0.00     0.101 NA
HETATM    9  H   UNL     1      43.394 -15.874   2.270  1.00  0.00     0.317 HD
BRANCH   8  10
HETATM   10  C   UNL     1      42.734 -17.786   2.594  1.00  0.00     0.225 C 
HETATM   11  C   UNL     1      43.161 -18.954   1.679  1.00  0.00     0.069 C 
HETATM   12  C   UNL     1      43.371 -20.215   2.494  1.00  0.00     0.190 C 
HETATM   13  N   UNL     1      44.432 -19.947   3.524  1.00  0.00    -0.067 N 
HETATM   14  C   UNL     1      43.955 -21.412   1.772  1.00  0.00     0.035 C 
HETATM   15  H   UNL     1      45.260 -19.574   3.034  1.00  0.00     0.280 HD
HETATM   16  C   UNL     1      44.006 -18.918   4.516  1.00  0.00     0.237 C 
HETATM   17  C   UNL     1      44.836 -21.299   4.053  1.00  0.00     0.235 C 
HETATM   18  C   UNL     1      43.740 -17.618   3.761  1.00  0.00     0.063 C 
HETATM   19  C   UNL     1      44.504 -22.264   2.914  1.00  0.00     0.030 C 
ENDBRANCH   8  10
ENDBRANCH   1   8
BRANCH   1  20
HETATM   20  C   UNL     1      41.334 -14.699   3.113  1.00  0.00    -0.021 A 
HETATM   21  C   UNL     1      40.293 -14.678   4.059  1.00  0.00     0.012 A 
HETATM   22  C   UNL     1      40.293 -13.757   5.111  1.00  0.00     0.043 A 
HETATM   23  C   UNL     1      41.351 -12.870   5.250  1.00  0.00     0.116 A 
HETATM   24  F   UNL     1      41.347 -11.986   6.255  1.00  0.00    -0.206 F 
HETATM   25  C   UNL     1      42.420 -12.896   4.368  1.00  0.00     0.043 A 
HETATM   26  C   UNL     1      42.417 -13.812   3.315  1.00  0.00     0.012 A 
ENDBRANCH   1  20
TORSDOF 4
ENDMDL
MODEL 9
REMARK VINA RESULT:      -7.4      3.187      5.495
REMARK  4 active torsions:
REMARK  status: ('A' for Active; 'I' for Inactive)
REMARK    1  A    between atoms: C_5  and  C_6 
REMARK    2  A    between atoms: C_6  and  N_7 
REMARK    3  A    between atoms: C_6  and  C_18 
REMARK    4  A    between atoms: N_7  and  C_8 
ROOT
HETATM    1  C   UNL     1      41.637 -15.363   1.543  1.00  0.00     0.288 C 
ENDROOT
BRANCH   1   2
HETATM    2  C   UNL     1      41.363 -14.379   2.671  1.00  0.00    -0.003 A 
HETATM    3  C   UNL     1      42.358 -13.478   3.052  1.00  0.00     0.126 A 
HETATM    4  N   UNL     1      42.237 -12.583   4.057  1.00  0.00    -0.272 NA
HETATM    5  C   UNL     1      41.062 -12.557   4.717  1.00  0.00     0.116 A 
HETATM    6  C   UNL     1      40.007 -13.402   4.427  1.00  0.00     0.020 A 
HETATM    7  C   UNL     1      40.165 -14.328   3.396  1.00  0.00     0.012 A 
ENDBRANCH   1   2
BRANCH   1   8
HETATM    8  N   UNL     1      42.207 -14.700   0.340  1.00  0.00     0.101 NA
HETATM    9  H   UNL     1      42.956 -15.313   0.008  1.00  0.00     0.317 HD
BRANCH   8  10
HETATM   10  C   UNL     1      41.328 -14.353  -0.783  1.00  0.00     0.225 C 
HETATM   11  C   UNL     1      41.092 -15.514  -1.773  1.00  0.00     0.069 C 
HETATM   12  C   UNL     1      40.049 -15.127  -2.803  1.00  0.00     0.190 C 
HETATM   13  N   UNL     1      38.772 -14.789  -2.086  1.00  0.00    -0.067 N 
HETATM   14  C   UNL     1      39.579 -16.214  -3.748  1.00  0.00     0.035 C 
HETATM   15  H   UNL     1      38.536 -15.583  -1.470  1.00  0.00     0.280 HD
HETATM   16  C   UNL     1      38.916 -13.584  -1.219  1.00  0.00     0.237 C 
HETATM   17  C   UNL     1      37.705 -14.757  -3.149  1.00  0.00     0.235 C 
HETATM   18  C   UNL     1      39.983 -13.886  -0.169  1.00  0.00     0.063 C 
HETATM   19  C   UNL     1      38.241 -15.674  -4.250  1.00  0.00     0.030 C 
ENDBRANCH   8  10
ENDBRANCH   1   8
BRANCH   1  20
HETATM   20  C   UNL     1      42.287 -16.710   1.882  1.00  0.00    -0.021 A 
HETATM   21  C   UNL     1      43.172 -17.381   1.018  1.00  0.00     0.012 A 
HETATM   22  C   UNL     1      43.757 -18.597   1.389  1.00  0.00     0.043 A 
HETATM   23  C   UNL     1      43.492 -19.136   2.639  1.00  0.00     0.116 A 
HETATM   24  F   UNL     1      44.049 -20.302   2.989  1.00  0.00    -0.206 F 
HETATM   25  C   UNL     1      42.666 -18.477   3.536  1.00  0.00     0.043 A 
HETATM   26  C   UNL     1      42.079 -17.266   3.164  1.00  0.00     0.012 A 
ENDBRANCH   1  20
TORSDOF 4
ENDMDL
MODEL 10
REMARK VINA RESULT:      -7.3      3.279      7.583
REMARK  4 active torsions:
REMARK  status: ('A' for Active; 'I' for Inactive)
REMARK    1  A    between atoms: C_5  and  C_6 
REMARK    2  A    between atoms: C_6  and  N_7 
REMARK    3  A    between atoms: C_6  and  C_18 
REMARK    4  A    between atoms: N_7  and  C_8 
ROOT
HETATM    1  C   UNL     1      42.532 -15.786   2.424  1.00  0.00     0.288 C 
ENDROOT
BRANCH   1   2
HETATM    2  C   UNL     1      42.473 -14.881   3.646  1.00  0.00    -0.003 A 
HETATM    3  C   UNL     1      43.623 -14.205   4.054  1.00  0.00     0.126 A 
HETATM    4  N   UNL     1      43.696 -13.400   5.137  1.00  0.00    -0.272 NA
HETATM    5  C   UNL     1      42.568 -13.236   5.856  1.00  0.00     0.116 A 
HETATM    6  C   UNL     1      41.371 -13.857   5.547  1.00  0.00     0.020 A 
HETATM    7  C   UNL     1      41.329 -14.694   4.433  1.00  0.00     0.012 A 
ENDBRANCH   1   2
BRANCH   1   8
HETATM    8  N   UNL     1      42.172 -17.193   2.743  1.00  0.00     0.101 NA
HETATM    9  H   UNL     1      41.507 -17.484   2.023  1.00  0.00     0.317 HD
BRANCH   8  10
HETATM   10  C   UNL     1      43.231 -18.202   2.866  1.00  0.00     0.225 C 
HETATM   11  C   UNL     1      43.372 -18.790   4.287  1.00  0.00     0.069 C 
HETATM   12  C   UNL     1      44.365 -19.935   4.288  1.00  0.00     0.190 C 
HETATM   13  N   UNL     1      43.880 -20.991   3.336  1.00  0.00    -0.067 N 
HETATM   14  C   UNL     1      44.495 -20.731   5.571  1.00  0.00     0.035 C 
HETATM   15  H   UNL     1      42.909 -21.226   3.593  1.00  0.00     0.280 HD
HETATM   16  C   UNL     1      43.859 -20.508   1.924  1.00  0.00     0.237 C 
HETATM   17  C   UNL     1      44.698 -22.219   3.638  1.00  0.00     0.235 C 
HETATM   18  C   UNL     1      42.898 -19.323   1.848  1.00  0.00     0.063 C 
HETATM   19  C   UNL     1      45.121 -22.042   5.097  1.00  0.00     0.030 C 
ENDBRANCH   8  10
ENDBRANCH   1   8
BRANCH   1  20
HETATM   20  C   UNL     1      41.948 -15.275   1.101  1.00  0.00    -0.021 A 
HETATM   21  C   UNL     1      41.824 -13.909   0.787  1.00  0.00     0.012 A 
HETATM   22  C   UNL     1      41.308 -13.498  -0.446  1.00  0.00     0.043 A 
HETATM   23  C   UNL     1      40.944 -14.445  -1.392  1.00  0.00     0.116 A 
HETATM   24  F   UNL     1      40.446 -14.049  -2.569  1.00  0.00    -0.206 F 
HETATM   25  C   UNL     1      41.101 -15.799  -1.137  1.00  0.00     0.043 A 
HETATM   26  C   UNL     1      41.611 -16.209   0.095  1.00  0.00     0.012 A 
ENDBRANCH   1  20
TORSDOF 4
ENDMDL
