MODEL 1
REMARK VINA RESULT:      -7.9      0.000      0.000
REMARK  5 active torsions:
REMARK  status: ('A' for Active; 'I' for Inactive)
REMARK    1  A    between atoms: C_2  and  C_3 
REMARK    2  A    between atoms: C_7  and  N_8 
REMARK       I    between atoms: N_8  and  C_9 
REMARK    3  A    between atoms: C_9  and  C_10 
REMARK    4  A    between atoms: C_10  and  N_11 
REMARK    5  A    between atoms: N_11  and  C_14 
ROOT
HETATM    1  C   UNL     1      44.408 -18.445   5.432  1.00  0.00     0.043 C 
HETATM    2  N   UNL     1      44.725 -19.748   5.272  1.00  0.00    -0.252 NA
HETATM    3  C   UNL     1      44.400 -20.384   4.144  1.00  0.00     0.069 A 
HETATM    4  C   UNL     1      43.667 -19.779   3.106  1.00  0.00     0.020 A 
HETATM    5  C   UNL     1      43.206 -18.448   3.343  1.00  0.00     0.055 C 
HETATM    6  C   UNL     1      43.664 -17.735   4.483  1.00  0.00    -0.010 C 
HETATM    7  C   UNL     1      43.313 -16.285   4.700  1.00  0.00     0.052 C 
HETATM    8  C   UNL     1      44.845 -21.693   4.009  1.00  0.00     0.032 A 
HETATM    9  C   UNL     1      44.633 -22.430   2.846  1.00  0.00     0.002 A 
HETATM   10  C   UNL     1      43.981 -21.836   1.780  1.00  0.00     0.001 A 
HETATM   11  C   UNL     1      43.517 -20.525   1.904  1.00  0.00     0.016 A 
ENDROOT
BRANCH   5  12
HETATM   12  N   UNL     1      42.284 -17.765   2.484  1.00  0.00    -0.324 N 
HETATM   13  C   UNL     1      42.575 -17.237   1.236  1.00  0.00     0.248 C 
HETATM   14  O   UNL     1      43.668 -17.186   0.680  1.00  0.00    -0.271 OA
HETATM   15  H   UNL     1      41.310 -17.977   2.657  1.00  0.00     0.169 HD
BRANCH  13  16
HETATM   16  C   UNL     1      41.347 -16.684   0.503  1.00  0.00     0.335 C 
BRANCH  16  17
HETATM   17  N   UNL     1      40.178 -16.412   1.427  1.00  0.00    -0.063 N 
HETATM   18  H   UNL     1      39.332 -16.865   1.064  1.00  0.00     0.278 HD
HETATM   19  H   UNL     1      40.411 -16.886   2.313  1.00  0.00     0.278 HD
BRANCH  17  20
HETATM   20  C   UNL     1      39.876 -14.979   1.794  1.00  0.00     0.178 C 
HETATM   21  C   UNL     1      38.441 -14.624   1.427  1.00  0.00     0.039 C 
HETATM   22  C   UNL     1      40.105 -14.844   3.298  1.00  0.00     0.039 C 
ENDBRANCH  17  20
ENDBRANCH  16  17
ENDBRANCH  13  16
ENDBRANCH   5  12
BRANCH   1  23
HETATM   23  C   UNL     1      44.896 -17.856   6.735  1.00  0.00     0.055 C 
HETATM   24  C   UNL     1      44.062 -18.308   7.924  1.00  0.00     0.011 C 
ENDBRANCH   1  23
TORSDOF 5
ENDMDL
MODEL 2
REMARK VINA RESULT:      -7.7      1.282      1.840
REMARK  5 active torsions:
REMARK  status: ('A' for Active; 'I' for Inactive)
REMARK    1  A    between atoms: C_2  and  C_3 
REMARK    2  A    between atoms: C_7  and  N_8 
REMARK       I    between atoms: N_8  and  C_9 
REMARK    3  A    between atoms: C_9  and  C_10 
REMARK    4  A    between atoms: C_10  and  N_11 
REMARK    5  A    between atoms: N_11  and  C_14 
ROOT
HETATM    1  C   UNL     1      44.483 -18.443   5.496  1.00  0.00     0.043 C 
HETATM    2  N   UNL     1      44.787 -19.726   5.204  1.00  0.00    -0.252 NA
HETATM    3  C   UNL     1      44.373 -20.271   4.057  1.00  0.00     0.069 A 
HETATM    4  C   UNL     1      43.559 -19.588   3.134  1.00  0.00     0.020 A 
HETATM    5  C   UNL     1      43.118 -18.284   3.516  1.00  0.00     0.055 C 
HETATM    6  C   UNL     1      43.664 -17.663   4.671  1.00  0.00    -0.010 C 
HETATM    7  C   UNL     1      43.331 -16.239   5.034  1.00  0.00     0.052 C 
HETATM    8  C   UNL     1      44.806 -21.561   3.780  1.00  0.00     0.032 A 
HETATM    9  C   UNL     1      44.503 -22.201   2.580  1.00  0.00     0.002 A 
HETATM   10  C   UNL     1      43.767 -21.526   1.622  1.00  0.00     0.001 A 
HETATM   11  C   UNL     1      43.314 -20.233   1.891  1.00  0.00     0.016 A 
ENDROOT
BRANCH   5  12
HETATM   12  N   UNL     1      42.129 -17.540   2.792  1.00  0.00    -0.324 N 
HETATM   13  C   UNL     1      42.341 -16.835   1.618  1.00  0.00     0.248 C 
HETATM   14  O   UNL     1      43.406 -16.654   1.034  1.00  0.00    -0.271 OA
HETATM   15  H   UNL     1      41.174 -17.822   2.971  1.00  0.00     0.169 HD
BRANCH  13  16
HETATM   16  C   UNL     1      41.059 -16.252   1.013  1.00  0.00     0.335 C 
BRANCH  16  17
HETATM   17  N   UNL     1      41.018 -16.353  -0.498  1.00  0.00    -0.063 N 
HETATM   18  H   UNL     1      41.868 -16.814  -0.842  1.00  0.00     0.278 HD
HETATM   19  H   UNL     1      40.231 -16.985  -0.710  1.00  0.00     0.278 HD
BRANCH  17  20
HETATM   20  C   UNL     1      40.761 -15.095  -1.292  1.00  0.00     0.178 C 
HETATM   21  C   UNL     1      41.682 -13.974  -0.830  1.00  0.00     0.039 C 
HETATM   22  C   UNL     1      41.006 -15.434  -2.760  1.00  0.00     0.039 C 
ENDBRANCH  17  20
ENDBRANCH  16  17
ENDBRANCH  13  16
ENDBRANCH   5  12
BRANCH   1  23
HETATM   23  C   UNL     1      45.074 -17.960   6.799  1.00  0.00     0.055 C 
HETATM   24  C   UNL     1      44.265 -18.415   8.006  1.00  0.00     0.011 C 
ENDBRANCH   1  23
TORSDOF 5
ENDMDL
MODEL 3
REMARK VINA RESULT:      -7.2      1.700      4.051
REMARK  5 active torsions:
REMARK  status: ('A' for Active; 'I' for Inactive)
REMARK    1  A    between atoms: C_2  and  C_3 
REMARK    2  A    between atoms: C_7  and  N_8 
REMARK       I    between atoms: N_8  and  C_9 
REMARK    3  A    between atoms: C_9  and  C_10 
REMARK    4  A    between atoms: C_10  and  N_11 
REMARK    5  A    between atoms: N_11  and  C_14 
ROOT
HETATM    1  C   UNL     1      43.458 -19.008   3.028  1.00  0.00     0.043 C 
HETATM    2  N   UNL     1      44.187 -19.159   4.155  1.00  0.00    -0.252 NA
HETATM    3  C   UNL     1      43.801 -18.569   5.288  1.00  0.00     0.069 A 
HETATM    4  C   UNL     1      42.682 -17.718   5.367  1.00  0.00     0.020 A 
HETATM    5  C   UNL     1      42.003 -17.443   4.142  1.00  0.00     0.055 C 
HETATM    6  C   UNL     1      42.336 -18.173   2.970  1.00  0.00    -0.010 C 
HETATM    7  C   UNL     1      41.554 -18.013   1.691  1.00  0.00     0.052 C 
HETATM    8  C   UNL     1      44.543 -18.849   6.429  1.00  0.00     0.032 A 
HETATM    9  C   UNL     1      44.190 -18.352   7.681  1.00  0.00     0.002 A 
HETATM   10  C   UNL     1      43.052 -17.575   7.803  1.00  0.00     0.001 A 
HETATM   11  C   UNL     1      42.302 -17.274   6.664  1.00  0.00     0.016 A 
ENDROOT
BRANCH   5  12
HETATM   12  N   UNL     1      40.978 -16.449   4.011  1.00  0.00    -0.324 N 
HETATM   13  C   UNL     1      41.179 -15.080   3.930  1.00  0.00     0.248 C 
HETATM   14  O   UNL     1      42.240 -14.471   4.032  1.00  0.00    -0.271 OA
HETATM   15  H   UNL     1      40.106 -16.790   3.628  1.00  0.00     0.169 HD
BRANCH  13  16
HETATM   16  C   UNL     1      39.896 -14.287   3.661  1.00  0.00     0.335 C 
BRANCH  16  17
HETATM   17  N   UNL     1      39.086 -14.842   2.507  1.00  0.00    -0.063 N 
HETATM   18  H   UNL     1      39.419 -15.784   2.267  1.00  0.00     0.278 HD
HETATM   19  H   UNL     1      38.127 -14.950   2.871  1.00  0.00     0.278 HD
BRANCH  17  20
HETATM   20  C   UNL     1      38.961 -14.009   1.255  1.00  0.00     0.178 C 
HETATM   21  C   UNL     1      39.932 -14.497   0.188  1.00  0.00     0.039 C 
HETATM   22  C   UNL     1      37.516 -14.132   0.777  1.00  0.00     0.039 C 
ENDBRANCH  17  20
ENDBRANCH  16  17
ENDBRANCH  13  16
ENDBRANCH   5  12
BRANCH   1  23
HETATM   23  C   UNL     1      43.993 -19.786   1.849  1.00  0.00     0.055 C 
HETATM   24  C   UNL     1      43.954 -21.289   2.081  1.00  0.00     0.011 C 
ENDBRANCH   1  23
TORSDOF 5
ENDMDL
MODEL 4
REMARK VINA RESULT:      -7.0      1.697      4.052
REMARK  5 active torsions:
REMARK  status: ('A' for Active; 'I' for Inactive)
REMARK    1  A    between atoms: C_2  and  C_3 
REMARK    2  A    between atoms: C_7  and  N_8 
REMARK       I    between atoms: N_8  and  C_9 
REMARK    3  A    between atoms: C_9  and  C_10 
REMARK    4  A    between atoms: C_10  and  N_11 
REMARK    5  A    between atoms: N_11  and  C_14 
ROOT
HETATM    1  C   UNL     1      44.410 -19.995   4.155  1.00  0.00     0.043 C 
HETATM    2  N   UNL     1      44.610 -19.465   5.381  1.00  0.00    -0.252 NA
HETATM    3  C   UNL     1      44.255 -18.203   5.633  1.00  0.00     0.069 A 
HETATM    4  C   UNL     1      43.729 -17.344   4.650  1.00  0.00     0.020 A 
HETATM    5  C   UNL     1      43.658 -17.863   3.322  1.00  0.00     0.055 C 
HETATM    6  C   UNL     1      43.913 -19.240   3.087  1.00  0.00    -0.010 C 
HETATM    7  C   UNL     1      43.717 -19.858   1.726  1.00  0.00     0.052 C 
HETATM    8  C   UNL     1      44.398 -17.757   6.941  1.00  0.00     0.032 A 
HETATM    9  C   UNL     1      43.989 -16.487   7.339  1.00  0.00     0.002 A 
HETATM   10  C   UNL     1      43.399 -15.647   6.411  1.00  0.00     0.001 A 
HETATM   11  C   UNL     1      43.258 -16.075   5.090  1.00  0.00     0.016 A 
ENDROOT
BRANCH   5  12
HETATM   12  N   UNL     1      43.340 -17.062   2.176  1.00  0.00    -0.324 N 
HETATM   13  C   UNL     1      42.067 -16.700   1.765  1.00  0.00     0.248 C 
HETATM   14  O   UNL     1      40.995 -17.054   2.247  1.00  0.00    -0.271 OA
HETATM   15  H   UNL     1      44.093 -16.467   1.855  1.00  0.00     0.169 HD
BRANCH  13  16
HETATM   16  C   UNL     1      42.059 -15.729   0.579  1.00  0.00     0.335 C 
BRANCH  16  17
HETATM   17  N   UNL     1      41.015 -16.075  -0.463  1.00  0.00    -0.063 N 
HETATM   18  H   UNL     1      41.253 -16.967  -0.914  1.00  0.00     0.278 HD
HETATM   19  H   UNL     1      40.143 -16.234   0.063  1.00  0.00     0.278 HD
BRANCH  17  20
HETATM   20  C   UNL     1      40.683 -15.043  -1.512  1.00  0.00     0.178 C 
HETATM   21  C   UNL     1      41.506 -13.780  -1.300  1.00  0.00     0.039 C 
HETATM   22  C   UNL     1      40.986 -15.671  -2.871  1.00  0.00     0.039 C 
ENDBRANCH  17  20
ENDBRANCH  16  17
ENDBRANCH  13  16
ENDBRANCH   5  12
BRANCH   1  23
HETATM   23  C   UNL     1      44.810 -21.448   4.049  1.00  0.00     0.055 C 
HETATM   24  C   UNL     1      44.857 -22.137   5.404  1.00  0.00     0.011 C 
ENDBRANCH   1  23
TORSDOF 5
ENDMDL
MODEL 5
REMARK VINA RESULT:      -7.0      1.891      2.587
REMARK  5 active torsions:
REMARK  status: ('A' for Active; 'I' for Inactive)
REMARK    1  A    between atoms: C_2  and  C_3 
REMARK    2  A    between atoms: C_7  and  N_8 
REMARK       I    between atoms: N_8  and  C_9 
REMARK    3  A    between atoms: C_9  and  C_10 
REMARK    4  A    between atoms: C_10  and  N_11 
REMARK    5  A    between atoms: N_11  and  C_14 
ROOT
HETATM    1  C   UNL     1      42.687 -17.587   6.276  1.00  0.00     0.043 C 
HETATM    2  N   UNL     1      43.477 -18.548   5.751  1.00  0.00    -0.252 NA
HETATM    3  C   UNL     1      43.421 -18.824   4.445  1.00  0.00     0.069 A 
HETATM    4  C   UNL     1      42.515 -18.199   3.568  1.00  0.00     0.020 A 
HETATM    5  C   UNL     1      41.582 -17.292   4.155  1.00  0.00     0.055 C 
HETATM    6  C   UNL     1      41.730 -16.906   5.514  1.00  0.00    -0.010 C 
HETATM    7  C   UNL     1      40.853 -15.850   6.136  1.00  0.00     0.052 C 
HETATM    8  C   UNL     1      44.331 -19.754   3.958  1.00  0.00     0.032 A 
HETATM    9  C   UNL     1      44.418 -20.063   2.603  1.00  0.00     0.002 A 
HETATM   10  C   UNL     1      43.591 -19.409   1.706  1.00  0.00     0.001 A 
HETATM   11  C   UNL     1      42.663 -18.481   2.181  1.00  0.00     0.016 A 
ENDROOT
BRANCH   5  12
HETATM   12  N   UNL     1      40.471 -16.729   3.445  1.00  0.00    -0.324 N 
HETATM   13  C   UNL     1      40.509 -15.605   2.634  1.00  0.00     0.248 C 
HETATM   14  O   UNL     1      41.460 -14.854   2.440  1.00  0.00    -0.271 OA
HETATM   15  H   UNL     1      39.712 -17.375   3.268  1.00  0.00     0.169 HD
BRANCH  13  16
HETATM   16  C   UNL     1      39.190 -15.330   1.906  1.00  0.00     0.335 C 
BRANCH  16  17
HETATM   17  N   UNL     1      39.385 -14.903   0.465  1.00  0.00    -0.063 N 
HETATM   18  H   UNL     1      40.387 -14.837   0.253  1.00  0.00     0.278 HD
HETATM   19  H   UNL     1      39.012 -15.679  -0.104  1.00  0.00     0.278 HD
BRANCH  17  20
HETATM   20  C   UNL     1      38.675 -13.661  -0.016  1.00  0.00     0.178 C 
HETATM   21  C   UNL     1      39.537 -12.428   0.217  1.00  0.00     0.039 C 
HETATM   22  C   UNL     1      38.390 -13.856  -1.503  1.00  0.00     0.039 C 
ENDBRANCH  17  20
ENDBRANCH  16  17
ENDBRANCH  13  16
ENDBRANCH   5  12
BRANCH   1  23
HETATM   23  C   UNL     1      42.912 -17.356   7.752  1.00  0.00     0.055 C 
HETATM   24  C   UNL     1      44.013 -18.242   8.316  1.00  0.00     0.011 C 
ENDBRANCH   1  23
TORSDOF 5
ENDMDL
MODEL 6
REMARK VINA RESULT:      -6.9      1.385      1.543
REMARK  5 active torsions:
REMARK  status: ('A' for Active; 'I' for Inactive)
REMARK    1  A    between atoms: C_2  and  C_3 
REMARK    2  A    between atoms: C_7  and  N_8 
REMARK       I    between atoms: N_8  and  C_9 
REMARK    3  A    between atoms: C_9  and  C_10 
REMARK    4  A    between atoms: C_10  and  N_11 
REMARK    5  A    between atoms: N_11  and  C_14 
ROOT
HETATM    1  C   UNL     1      43.900 -17.410   5.495  1.00  0.00     0.043 C 
HETATM    2  N   UNL     1      44.160 -18.728   5.635  1.00  0.00    -0.252 NA
HETATM    3  C   UNL     1      44.197 -19.524   4.563  1.00  0.00     0.069 A 
HETATM    4  C   UNL     1      43.907 -19.071   3.262  1.00  0.00     0.020 A 
HETATM    5  C   UNL     1      43.487 -17.712   3.139  1.00  0.00     0.055 C 
HETATM    6  C   UNL     1      43.576 -16.841   4.258  1.00  0.00    -0.010 C 
HETATM    7  C   UNL     1      43.275 -15.368   4.138  1.00  0.00     0.052 C 
HETATM    8  C   UNL     1      44.568 -20.846   4.772  1.00  0.00     0.032 A 
HETATM    9  C   UNL     1      44.715 -21.748   3.721  1.00  0.00     0.002 A 
HETATM   10  C   UNL     1      44.511 -21.312   2.424  1.00  0.00     0.001 A 
HETATM   11  C   UNL     1      44.125 -19.989   2.198  1.00  0.00     0.016 A 
ENDROOT
BRANCH   5  12
HETATM   12  N   UNL     1      42.965 -17.151   1.928  1.00  0.00    -0.324 N 
HETATM   13  C   UNL     1      41.624 -17.011   1.609  1.00  0.00     0.248 C 
HETATM   14  O   UNL     1      40.656 -17.402   2.253  1.00  0.00    -0.271 OA
HETATM   15  H   UNL     1      43.602 -16.533   1.440  1.00  0.00     0.169 HD
BRANCH  13  16
HETATM   16  C   UNL     1      41.381 -16.254   0.299  1.00  0.00     0.335 C 
BRANCH  16  17
HETATM   17  N   UNL     1      40.145 -15.379   0.339  1.00  0.00    -0.063 N 
HETATM   18  H   UNL     1      39.663 -15.412  -0.567  1.00  0.00     0.278 HD
HETATM   19  H   UNL     1      39.517 -15.823   1.026  1.00  0.00     0.278 HD
BRANCH  17  20
HETATM   20  C   UNL     1      40.298 -13.945   0.786  1.00  0.00     0.178 C 
HETATM   21  C   UNL     1      40.018 -13.817   2.277  1.00  0.00     0.039 C 
HETATM   22  C   UNL     1      41.729 -13.525   0.460  1.00  0.00     0.039 C 
ENDBRANCH  17  20
ENDBRANCH  16  17
ENDBRANCH  13  16
ENDBRANCH   5  12
BRANCH   1  23
HETATM   23  C   UNL     1      43.953 -16.639   6.792  1.00  0.00     0.055 C 
HETATM   24  C   UNL     1      43.329 -17.405   7.949  1.00  0.00     0.011 C 
ENDBRANCH   1  23
TORSDOF 5
ENDMDL
MODEL 7
REMARK VINA RESULT:      -6.8      2.602      3.799
REMARK  5 active torsions:
REMARK  status: ('A' for Active; 'I' for Inactive)
REMARK    1  A    between atoms: C_2  and  C_3 
REMARK    2  A    between atoms: C_7  and  N_8 
REMARK       I    between atoms: N_8  and  C_9 
REMARK    3  A    between atoms: C_9  and  C_10 
REMARK    4  A    between atoms: C_10  and  N_11 
REMARK    5  A    between atoms: N_11  and  C_14 
ROOT
HETATM    1  C   UNL     1      43.593 -18.822   6.191  1.00  0.00     0.043 C 
HETATM    2  N   UNL     1      43.747 -19.307   4.940  1.00  0.00    -0.252 NA
HETATM    3  C   UNL     1      43.637 -18.493   3.886  1.00  0.00     0.069 A 
HETATM    4  C   UNL     1      43.295 -17.133   4.001  1.00  0.00     0.020 A 
HETATM    5  C   UNL     1      42.988 -16.661   5.314  1.00  0.00     0.055 C 
HETATM    6  C   UNL     1      43.233 -17.493   6.438  1.00  0.00    -0.010 C 
HETATM    7  C   UNL     1      43.053 -16.988   7.848  1.00  0.00     0.052 C 
HETATM    8  C   UNL     1      43.905 -19.039   2.638  1.00  0.00     0.032 A 
HETATM    9  C   UNL     1      43.897 -18.270   1.477  1.00  0.00     0.002 A 
HETATM   10  C   UNL     1      43.639 -16.914   1.568  1.00  0.00     0.001 A 
HETATM   11  C   UNL     1      43.355 -16.352   2.814  1.00  0.00     0.016 A 
ENDROOT
BRANCH   5  12
HETATM   12  N   UNL     1      42.430 -15.367   5.579  1.00  0.00    -0.324 N 
HETATM   13  C   UNL     1      43.143 -14.186   5.707  1.00  0.00     0.248 C 
HETATM   14  O   UNL     1      44.362 -14.041   5.696  1.00  0.00    -0.271 OA
HETATM   15  H   UNL     1      41.454 -15.269   5.330  1.00  0.00     0.169 HD
BRANCH  13  16
HETATM   16  C   UNL     1      42.254 -12.947   5.857  1.00  0.00     0.335 C 
BRANCH  16  17
HETATM   17  N   UNL     1      41.585 -12.536   4.561  1.00  0.00    -0.063 N 
HETATM   18  H   UNL     1      41.785 -11.548   4.362  1.00  0.00     0.278 HD
HETATM   19  H   UNL     1      42.052 -13.086   3.825  1.00  0.00     0.278 HD
BRANCH  17  20
HETATM   20  C   UNL     1      40.109 -12.802   4.402  1.00  0.00     0.178 C 
HETATM   21  C   UNL     1      39.875 -13.979   3.465  1.00  0.00     0.039 C 
HETATM   22  C   UNL     1      39.554 -13.095   5.795  1.00  0.00     0.039 C 
ENDBRANCH  17  20
ENDBRANCH  16  17
ENDBRANCH  13  16
ENDBRANCH   5  12
BRANCH   1  23
HETATM   23  C   UNL     1      43.807 -19.855   7.273  1.00  0.00     0.055 C 
HETATM   24  C   UNL     1      43.790 -21.276   6.729  1.00  0.00     0.011 C 
ENDBRANCH   1  23
TORSDOF 5
ENDMDL
MODEL 8
REMARK VINA RESULT:      -6.8      1.981      4.149
REMARK  5 active torsions:
REMARK  status: ('A' for Active; 'I' for Inactive)
REMARK    1  A    between atoms: C_2  and  C_3 
REMARK    2  A    between atoms: C_7  and  N_8 
REMARK       I    between atoms: N_8  and  C_9 
REMARK    3  A    between atoms: C_9  and  C_10 
REMARK    4  A    between atoms: C_10  and  N_11 
REMARK    5  A    between atoms: N_11  and  C_14 
ROOT
HETATM    1  C   UNL     1      43.256 -18.953   2.664  1.00  0.00     0.043 C 
HETATM    2  N   UNL     1      44.095 -19.169   3.701  1.00  0.00    -0.252 NA
HETATM    3  C   UNL     1      44.175 -18.282   4.697  1.00  0.00     0.069 A 
HETATM    4  C   UNL     1      43.464 -17.067   4.700  1.00  0.00     0.020 A 
HETATM    5  C   UNL     1      42.694 -16.776   3.533  1.00  0.00     0.055 C 
HETATM    6  C   UNL     1      42.510 -17.775   2.540  1.00  0.00    -0.010 C 
HETATM    7  C   UNL     1      41.595 -17.558   1.362  1.00  0.00     0.052 C 
HETATM    8  C   UNL     1      44.983 -18.617   5.775  1.00  0.00     0.032 A 
HETATM    9  C   UNL     1      45.083 -17.808   6.904  1.00  0.00     0.002 A 
HETATM   10  C   UNL     1      44.338 -16.644   6.968  1.00  0.00     0.001 A 
HETATM   11  C   UNL     1      43.530 -16.287   5.887  1.00  0.00     0.016 A 
ENDROOT
BRANCH   5  12
HETATM   12  N   UNL     1      42.078 -15.505   3.288  1.00  0.00    -0.324 N 
HETATM   13  C   UNL     1      42.742 -14.312   3.051  1.00  0.00     0.248 C 
HETATM   14  O   UNL     1      43.952 -14.108   3.084  1.00  0.00    -0.271 OA
HETATM   15  H   UNL     1      41.126 -15.556   2.946  1.00  0.00     0.169 HD
BRANCH  13  16
HETATM   16  C   UNL     1      41.807 -13.152   2.692  1.00  0.00     0.335 C 
BRANCH  16  17
HETATM   17  N   UNL     1      41.981 -12.670   1.267  1.00  0.00    -0.063 N 
HETATM   18  H   UNL     1      42.038 -11.644   1.248  1.00  0.00     0.278 HD
HETATM   19  H   UNL     1      42.903 -13.023   0.968  1.00  0.00     0.278 HD
BRANCH  17  20
HETATM   20  C   UNL     1      40.998 -13.147   0.226  1.00  0.00     0.178 C 
HETATM   21  C   UNL     1      41.585 -14.301  -0.575  1.00  0.00     0.039 C 
HETATM   22  C   UNL     1      39.736 -13.582   0.967  1.00  0.00     0.039 C 
ENDBRANCH  17  20
ENDBRANCH  16  17
ENDBRANCH  13  16
ENDBRANCH   5  12
BRANCH   1  23
HETATM   23  C   UNL     1      43.239 -20.075   1.653  1.00  0.00     0.055 C 
HETATM   24  C   UNL     1      43.986 -21.307   2.141  1.00  0.00     0.011 C 
ENDBRANCH   1  23
TORSDOF 5
ENDMDL
MODEL 9
REMARK VINA RESULT:      -6.8      2.288      4.209
REMARK  5 active torsions:
REMARK  status: ('A' for Active; 'I' for Inactive)
REMARK    1  A    between atoms: C_2  and  C_3 
REMARK    2  A    between atoms: C_7  and  N_8 
REMARK       I    between atoms: N_8  and  C_9 
REMARK    3  A    between atoms: C_9  and  C_10 
REMARK    4  A    between atoms: C_10  and  N_11 
REMARK    5  A    between atoms: N_11  and  C_14 
ROOT
HETATM    1  C   UNL     1      43.942 -19.558   2.777  1.00  0.00     0.043 C 
HETATM    2  N   UNL     1      44.089 -19.968   4.056  1.00  0.00    -0.252 NA
HETATM    3  C   UNL     1      43.906 -19.107   5.061  1.00  0.00     0.069 A 
HETATM    4  C   UNL     1      43.627 -17.743   4.861  1.00  0.00     0.020 A 
HETATM    5  C   UNL     1      43.619 -17.285   3.509  1.00  0.00     0.055 C 
HETATM    6  C   UNL     1      43.683 -18.223   2.445  1.00  0.00    -0.010 C 
HETATM    7  C   UNL     1      43.541 -17.797   1.006  1.00  0.00     0.052 C 
HETATM    8  C   UNL     1      43.976 -19.621   6.350  1.00  0.00     0.032 A 
HETATM    9  C   UNL     1      43.728 -18.836   7.473  1.00  0.00     0.002 A 
HETATM   10  C   UNL     1      43.376 -17.509   7.305  1.00  0.00     0.001 A 
HETATM   11  C   UNL     1      43.313 -16.974   6.016  1.00  0.00     0.016 A 
ENDROOT
BRANCH   5  12
HETATM   12  N   UNL     1      43.552 -15.900   3.142  1.00  0.00    -0.324 N 
HETATM   13  C   UNL     1      42.400 -15.136   3.062  1.00  0.00     0.248 C 
HETATM   14  O   UNL     1      41.240 -15.510   3.208  1.00  0.00    -0.271 OA
HETATM   15  H   UNL     1      44.415 -15.387   3.275  1.00  0.00     0.169 HD
BRANCH  13  16
HETATM   16  C   UNL     1      42.666 -13.654   2.773  1.00  0.00     0.335 C 
BRANCH  16  17
HETATM   17  N   UNL     1      41.575 -12.743   3.298  1.00  0.00    -0.063 N 
HETATM   18  H   UNL     1      41.331 -12.044   2.586  1.00  0.00     0.278 HD
HETATM   19  H   UNL     1      40.747 -13.346   3.418  1.00  0.00     0.278 HD
BRANCH  17  20
HETATM   20  C   UNL     1      41.789 -12.065   4.629  1.00  0.00     0.178 C 
HETATM   21  C   UNL     1      41.186 -10.667   4.621  1.00  0.00     0.039 C 
HETATM   22  C   UNL     1      41.124 -12.940   5.689  1.00  0.00     0.039 C 
ENDBRANCH  17  20
ENDBRANCH  16  17
ENDBRANCH  13  16
ENDBRANCH   5  12
BRANCH   1  23
HETATM   23  C   UNL     1      44.122 -20.662   1.761  1.00  0.00     0.055 C 
HETATM   24  C   UNL     1      44.320 -22.023   2.413  1.00  0.00     0.011 C 
ENDBRANCH   1  23
TORSDOF 5
ENDMDL
MODEL 10
REMARK VINA RESULT:      -6.7      3.333      4.269
REMARK  5 active torsions:
REMARK  status: ('A' for Active; 'I' for Inactive)
REMARK    1  A    between atoms: C_2  and  C_3 
REMARK    2  A    between atoms: C_7  and  N_8 
REMARK       I    between atoms: N_8  and  C_9 
REMARK    3  A    between atoms: C_9  and  C_10 
REMARK    4  A    between atoms: C_10  and  N_11 
REMARK    5  A    between atoms: N_11  and  C_14 
ROOT
HETATM    1  C   UNL     1      43.685 -18.515   6.217  1.00  0.00     0.043 C 
HETATM    2  N   UNL     1      43.631 -19.243   5.081  1.00  0.00    -0.252 NA
HETATM    3  C   UNL     1      43.604 -18.633   3.893  1.00  0.00     0.069 A 
HETATM    4  C   UNL     1      43.560 -17.233   3.751  1.00  0.00     0.020 A 
HETATM    5  C   UNL     1      43.467 -16.473   4.956  1.00  0.00     0.055 C 
HETATM    6  C   UNL     1      43.628 -17.116   6.212  1.00  0.00    -0.010 C 
HETATM    7  C   UNL     1      43.674 -16.334   7.500  1.00  0.00     0.052 C 
HETATM    8  C   UNL     1      43.649 -19.445   2.767  1.00  0.00     0.032 A 
HETATM    9  C   UNL     1      43.703 -18.919   1.478  1.00  0.00     0.002 A 
HETATM   10  C   UNL     1      43.738 -17.546   1.310  1.00  0.00     0.001 A 
HETATM   11  C   UNL     1      43.681 -16.717   2.431  1.00  0.00     0.016 A 
ENDROOT
BRANCH   5  12
HETATM   12  N   UNL     1      43.213 -15.062   4.984  1.00  0.00    -0.324 N 
HETATM   13  C   UNL     1      41.964 -14.461   5.006  1.00  0.00     0.248 C 
HETATM   14  O   UNL     1      40.868 -15.008   4.929  1.00  0.00    -0.271 OA
HETATM   15  H   UNL     1      43.978 -14.502   5.338  1.00  0.00     0.169 HD
BRANCH  13  16
HETATM   16  C   UNL     1      42.019 -12.939   5.168  1.00  0.00     0.335 C 
BRANCH  16  17
HETATM   17  N   UNL     1      41.998 -12.495   6.617  1.00  0.00    -0.063 N 
HETATM   18  H   UNL     1      41.672 -13.265   7.214  1.00  0.00     0.278 HD
HETATM   19  H   UNL     1      42.984 -12.324   6.867  1.00  0.00     0.278 HD
BRANCH  17  20
HETATM   20  C   UNL     1      41.258 -11.227   6.966  1.00  0.00     0.178 C 
HETATM   21  C   UNL     1      39.823 -11.538   7.369  1.00  0.00     0.039 C 
HETATM   22  C   UNL     1      42.017 -10.567   8.114  1.00  0.00     0.039 C 
ENDBRANCH  17  20
ENDBRANCH  16  17
ENDBRANCH  13  16
ENDBRANCH   5  12
BRANCH   1  23
HETATM   23  C   UNL     1      43.771 -19.352   7.471  1.00  0.00     0.055 C 
HETATM   24  C   UNL     1      43.652 -20.841   7.184  1.00  0.00     0.011 C 
ENDBRANCH   1  23
TORSDOF 5
ENDMDL
