MODEL 1
REMARK VINA RESULT:      -8.8      0.000      0.000
REMARK  6 active torsions:
REMARK  status: ('A' for Active; 'I' for Inactive)
REMARK    1  A    between atoms: C_2  and  C_3 
REMARK    2  A    between atoms: C_3  and  C_4 
REMARK    3  A    between atoms: C_3  and  C_11 
REMARK    4  A    between atoms: C_11  and  C_12 
REMARK       I    between atoms: C_12  and  N_13 
REMARK    5  A    between atoms: N_13  and  C_14 
REMARK    6  A    between atoms: C_21  and  C_22 
REMARK       I    between atoms: C_22  and  N_23 
ROOT
HETATM    1  C   UNL     1      40.195 -15.454   1.638  1.00  0.00     0.035 A 
HETATM    2  C   UNL     1      40.750 -15.305   0.359  1.00  0.00     0.046 A 
HETATM    3  C   UNL     1      40.092 -14.506  -0.600  1.00  0.00     0.030 A 
HETATM    4  C   UNL     1      38.899 -13.885  -0.252  1.00  0.00     0.063 A 
HETATM    5  N   UNL     1      38.509 -13.200  -1.369  1.00  0.00    -0.277 N 
HETATM    6  H   UNL     1      37.677 -12.632  -1.480  1.00  0.00     0.189 HD
HETATM    7  N   UNL     1      39.346 -13.311  -2.412  1.00  0.00    -0.168 NA
HETATM    8  C   UNL     1      40.334 -14.113  -1.952  1.00  0.00     0.156 A 
HETATM    9  C   UNL     1      38.317 -14.010   1.011  1.00  0.00     0.034 A 
HETATM   10  C   UNL     1      38.993 -14.802   1.948  1.00  0.00     0.032 A 
ENDROOT
BRANCH   1  11
HETATM   11  N   UNL     1      40.791 -16.215   2.667  1.00  0.00    -0.327 N 
HETATM   12  C   UNL     1      41.428 -15.737   3.802  1.00  0.00     0.222 C 
HETATM   13  O   UNL     1      41.678 -14.565   4.049  1.00  0.00    -0.273 OA
HETATM   14  H   UNL     1      40.777 -17.220   2.544  1.00  0.00     0.169 HD
BRANCH  12  15
HETATM   15  C   UNL     1      41.850 -16.866   4.732  1.00  0.00     0.112 C 
BRANCH  15  16
HETATM   16  C   UNL     1      43.358 -17.175   4.647  1.00  0.00     0.027 C 
BRANCH  16  17
HETATM   17  C   UNL     1      44.081 -17.175   6.017  1.00  0.00     0.005 C 
HETATM   18  C   UNL     1      44.173 -15.829   6.725  1.00  0.00     0.006 C 
ENDBRANCH  16  17
BRANCH  16  19
HETATM   19  C   UNL     1      43.660 -18.450   3.866  1.00  0.00    -0.053 A 
HETATM   20  C   UNL     1      43.195 -18.671   2.563  1.00  0.00     0.008 A 
HETATM   21  C   UNL     1      43.478 -19.868   1.896  1.00  0.00     0.007 A 
HETATM   22  C   UNL     1      44.237 -20.866   2.514  1.00  0.00    -0.062 A 
HETATM   23  C   UNL     1      44.519 -22.164   1.818  1.00  0.00     0.048 C 
HETATM   24  C   UNL     1      44.694 -20.656   3.817  1.00  0.00     0.007 A 
HETATM   25  C   UNL     1      44.409 -19.464   4.485  1.00  0.00     0.008 A 
ENDBRANCH  16  19
ENDBRANCH  15  16
ENDBRANCH  12  15
ENDBRANCH   1  11
BRANCH   8  26
HETATM   26  C   UNL     1      41.476 -14.480  -2.801  1.00  0.00     0.270 C 
HETATM   27  N   UNL     1      42.514 -13.590  -2.756  1.00  0.00    -0.365 N 
HETATM   28  H   UNL     1      42.430 -12.774  -2.160  1.00  0.00     0.159 HD
HETATM   29  H   UNL     1      43.344 -13.764  -3.300  1.00  0.00     0.159 HD
HETATM   30  O   UNL     1      41.537 -15.487  -3.498  1.00  0.00    -0.266 OA
ENDBRANCH   8  26
TORSDOF 6
ENDMDL
MODEL 2
REMARK VINA RESULT:      -8.7      1.927      3.727
REMARK  6 active torsions:
REMARK  status: ('A' for Active; 'I' for Inactive)
REMARK    1  A    between atoms: C_2  and  C_3 
REMARK    2  A    between atoms: C_3  and  C_4 
REMARK    3  A    between atoms: C_3  and  C_11 
REMARK    4  A    between atoms: C_11  and  C_12 
REMARK       I    between atoms: C_12  and  N_13 
REMARK    5  A    between atoms: N_13  and  C_14 
REMARK    6  A    between atoms: C_21  and  C_22 
REMARK       I    between atoms: C_22  and  N_23 
ROOT
HETATM    1  C   UNL     1      41.878 -15.217   0.392  1.00  0.00     0.035 A 
HETATM    2  C   UNL     1      41.079 -15.408  -0.745  1.00  0.00     0.046 A 
HETATM    3  C   UNL     1      40.215 -14.378  -1.175  1.00  0.00     0.030 A 
HETATM    4  C   UNL     1      40.175 -13.192  -0.453  1.00  0.00     0.063 A 
HETATM    5  N   UNL     1      39.261 -12.407  -1.098  1.00  0.00    -0.277 N 
HETATM    6  H   UNL     1      38.972 -11.468  -0.846  1.00  0.00     0.189 HD
HETATM    7  N   UNL     1      38.708 -12.971  -2.183  1.00  0.00    -0.168 NA
HETATM    8  C   UNL     1      39.291 -14.191  -2.247  1.00  0.00     0.156 A 
HETATM    9  C   UNL     1      40.956 -12.965   0.683  1.00  0.00     0.034 A 
HETATM   10  C   UNL     1      41.810 -14.000   1.085  1.00  0.00     0.032 A 
ENDROOT
BRANCH   1  11
HETATM   11  N   UNL     1      42.784 -16.182   0.883  1.00  0.00    -0.327 N 
HETATM   12  C   UNL     1      42.501 -17.488   1.250  1.00  0.00     0.222 C 
HETATM   13  O   UNL     1      41.388 -17.994   1.316  1.00  0.00    -0.273 OA
HETATM   14  H   UNL     1      43.741 -15.873   1.006  1.00  0.00     0.169 HD
BRANCH  12  15
HETATM   15  C   UNL     1      43.760 -18.256   1.631  1.00  0.00     0.112 C 
BRANCH  15  16
HETATM   16  C   UNL     1      43.498 -19.337   2.698  1.00  0.00     0.027 C 
BRANCH  16  17
HETATM   17  C   UNL     1      44.412 -20.581   2.574  1.00  0.00     0.005 C 
HETATM   18  C   UNL     1      43.873 -21.727   1.727  1.00  0.00     0.006 C 
ENDBRANCH  16  17
BRANCH  16  19
HETATM   19  C   UNL     1      43.511 -18.784   4.119  1.00  0.00    -0.053 A 
HETATM   20  C   UNL     1      44.634 -18.862   4.954  1.00  0.00     0.008 A 
HETATM   21  C   UNL     1      44.591 -18.362   6.259  1.00  0.00     0.007 A 
HETATM   22  C   UNL     1      43.428 -17.765   6.756  1.00  0.00    -0.062 A 
HETATM   23  C   UNL     1      43.364 -17.254   8.164  1.00  0.00     0.048 C 
HETATM   24  C   UNL     1      42.302 -17.694   5.933  1.00  0.00     0.007 A 
HETATM   25  C   UNL     1      42.343 -18.197   4.631  1.00  0.00     0.008 A 
ENDBRANCH  16  19
ENDBRANCH  15  16
ENDBRANCH  12  15
ENDBRANCH   1  11
BRANCH   8  26
HETATM   26  C   UNL     1      38.960 -15.139  -3.320  1.00  0.00     0.270 C 
HETATM   27  N   UNL     1      37.681 -15.623  -3.264  1.00  0.00    -0.365 N 
HETATM   28  H   UNL     1      37.073 -15.303  -2.519  1.00  0.00     0.159 HD
HETATM   29  H   UNL     1      37.363 -16.273  -3.965  1.00  0.00     0.159 HD
HETATM   30  O   UNL     1      39.729 -15.487  -4.210  1.00  0.00    -0.266 OA
ENDBRANCH   8  26
TORSDOF 6
ENDMDL
MODEL 3
REMARK VINA RESULT:      -8.5      5.307      8.493
REMARK  6 active torsions:
REMARK  status: ('A' for Active; 'I' for Inactive)
REMARK    1  A    between atoms: C_2  and  C_3 
REMARK    2  A    between atoms: C_3  and  C_4 
REMARK    3  A    between atoms: C_3  and  C_11 
REMARK    4  A    between atoms: C_11  and  C_12 
REMARK       I    between atoms: C_12  and  N_13 
REMARK    5  A    between atoms: N_13  and  C_14 
REMARK    6  A    between atoms: C_21  and  C_22 
REMARK       I    between atoms: C_22  and  N_23 
ROOT
HETATM    1  C   UNL     1      44.957 -13.793   7.244  1.00  0.00     0.035 A 
HETATM    2  C   UNL     1      44.268 -13.321   8.370  1.00  0.00     0.046 A 
HETATM    3  C   UNL     1      44.833 -12.296   9.159  1.00  0.00     0.030 A 
HETATM    4  C   UNL     1      46.072 -11.780   8.799  1.00  0.00     0.063 A 
HETATM    5  N   UNL     1      46.353 -10.827   9.738  1.00  0.00    -0.277 N 
HETATM    6  H   UNL     1      47.180 -10.244   9.792  1.00  0.00     0.189 HD
HETATM    7  N   UNL     1      45.403 -10.668  10.673  1.00  0.00    -0.168 NA
HETATM    8  C   UNL     1      44.453 -11.568  10.327  1.00  0.00     0.156 A 
HETATM    9  C   UNL     1      46.787 -12.224   7.685  1.00  0.00     0.034 A 
HETATM   10  C   UNL     1      46.201 -13.236   6.915  1.00  0.00     0.032 A 
ENDROOT
BRANCH   1  11
HETATM   11  N   UNL     1      44.460 -14.798   6.386  1.00  0.00    -0.327 N 
HETATM   12  C   UNL     1      43.329 -14.733   5.586  1.00  0.00     0.222 C 
HETATM   13  O   UNL     1      42.506 -13.828   5.573  1.00  0.00    -0.273 OA
HETATM   14  H   UNL     1      44.971 -15.672   6.380  1.00  0.00     0.169 HD
BRANCH  12  15
HETATM   15  C   UNL     1      43.177 -15.977   4.720  1.00  0.00     0.112 C 
BRANCH  15  16
HETATM   16  C   UNL     1      43.640 -17.261   5.437  1.00  0.00     0.027 C 
BRANCH  16  17
HETATM   17  C   UNL     1      42.744 -17.674   6.631  1.00  0.00     0.005 C 
HETATM   18  C   UNL     1      43.434 -17.763   7.987  1.00  0.00     0.006 C 
ENDBRANCH  16  17
BRANCH  16  19
HETATM   19  C   UNL     1      43.856 -18.430   4.481  1.00  0.00    -0.053 A 
HETATM   20  C   UNL     1      43.293 -18.476   3.199  1.00  0.00     0.008 A 
HETATM   21  C   UNL     1      43.501 -19.581   2.366  1.00  0.00     0.007 A 
HETATM   22  C   UNL     1      44.281 -20.659   2.795  1.00  0.00    -0.062 A 
HETATM   23  C   UNL     1      44.482 -21.861   1.921  1.00  0.00     0.048 C 
HETATM   24  C   UNL     1      44.835 -20.624   4.076  1.00  0.00     0.007 A 
HETATM   25  C   UNL     1      44.625 -19.523   4.909  1.00  0.00     0.008 A 
ENDBRANCH  16  19
ENDBRANCH  15  16
ENDBRANCH  12  15
ENDBRANCH   1  11
BRANCH   8  26
HETATM   26  C   UNL     1      43.216 -11.709  11.107  1.00  0.00     0.270 C 
HETATM   27  N   UNL     1      42.079 -11.397  10.413  1.00  0.00    -0.365 N 
HETATM   28  H   UNL     1      42.164 -11.106   9.446  1.00  0.00     0.159 HD
HETATM   29  H   UNL     1      41.182 -11.472  10.866  1.00  0.00     0.159 HD
HETATM   30  O   UNL     1      43.162 -12.076  12.276  1.00  0.00    -0.266 OA
ENDBRANCH   8  26
TORSDOF 6
ENDMDL
MODEL 4
REMARK VINA RESULT:      -8.2      1.588      2.124
REMARK  6 active torsions:
REMARK  status: ('A' for Active; 'I' for Inactive)
REMARK    1  A    between atoms: C_2  and  C_3 
REMARK    2  A    between atoms: C_3  and  C_4 
REMARK    3  A    between atoms: C_3  and  C_11 
REMARK    4  A    between atoms: C_11  and  C_12 
REMARK       I    between atoms: C_12  and  N_13 
REMARK    5  A    between atoms: N_13  and  C_14 
REMARK    6  A    between atoms: C_21  and  C_22 
REMARK       I    between atoms: C_22  and  N_23 
ROOT
HETATM    1  C   UNL     1      41.792 -14.203   1.275  1.00  0.00     0.035 A 
HETATM    2  C   UNL     1      41.463 -14.477  -0.060  1.00  0.00     0.046 A 
HETATM    3  C   UNL     1      41.415 -13.424  -1.000  1.00  0.00     0.030 A 
HETATM    4  C   UNL     1      41.692 -12.132  -0.572  1.00  0.00     0.063 A 
HETATM    5  N   UNL     1      41.564 -11.347  -1.685  1.00  0.00    -0.277 N 
HETATM    6  H   UNL     1      41.691 -10.344  -1.746  1.00  0.00     0.189 HD
HETATM    7  N   UNL     1      41.236 -12.015  -2.802  1.00  0.00    -0.168 NA
HETATM    8  C   UNL     1      41.144 -13.303  -2.396  1.00  0.00     0.156 A 
HETATM    9  C   UNL     1      42.023 -11.821   0.748  1.00  0.00     0.034 A 
HETATM   10  C   UNL     1      42.072 -12.884   1.659  1.00  0.00     0.032 A 
ENDROOT
BRANCH   1  11
HETATM   11  N   UNL     1      41.884 -15.193   2.277  1.00  0.00    -0.327 N 
HETATM   12  C   UNL     1      40.905 -15.557   3.189  1.00  0.00     0.222 C 
HETATM   13  O   UNL     1      39.827 -14.999   3.351  1.00  0.00    -0.273 OA
HETATM   14  H   UNL     1      42.775 -15.668   2.355  1.00  0.00     0.169 HD
BRANCH  12  15
HETATM   15  C   UNL     1      41.339 -16.740   4.044  1.00  0.00     0.112 C 
BRANCH  15  16
HETATM   16  C   UNL     1      42.870 -16.909   4.092  1.00  0.00     0.027 C 
BRANCH  16  17
HETATM   17  C   UNL     1      43.499 -16.576   5.468  1.00  0.00     0.005 C 
HETATM   18  C   UNL     1      43.603 -15.096   5.817  1.00  0.00     0.006 C 
ENDBRANCH  16  17
BRANCH  16  19
HETATM   19  C   UNL     1      43.333 -18.273   3.592  1.00  0.00    -0.053 A 
HETATM   20  C   UNL     1      44.246 -19.070   4.295  1.00  0.00     0.008 A 
HETATM   21  C   UNL     1      44.659 -20.305   3.784  1.00  0.00     0.007 A 
HETATM   22  C   UNL     1      44.163 -20.773   2.564  1.00  0.00    -0.062 A 
HETATM   23  C   UNL     1      44.624 -22.082   1.994  1.00  0.00     0.048 C 
HETATM   24  C   UNL     1      43.261 -19.979   1.853  1.00  0.00     0.007 A 
HETATM   25  C   UNL     1      42.851 -18.744   2.360  1.00  0.00     0.008 A 
ENDBRANCH  16  19
ENDBRANCH  15  16
ENDBRANCH  12  15
ENDBRANCH   1  11
BRANCH   8  26
HETATM   26  C   UNL     1      40.808 -14.378  -3.340  1.00  0.00     0.270 C 
HETATM   27  N   UNL     1      39.567 -14.258  -3.904  1.00  0.00    -0.365 N 
HETATM   28  H   UNL     1      38.990 -13.465  -3.647  1.00  0.00     0.159 HD
HETATM   29  H   UNL     1      39.254 -14.945  -4.571  1.00  0.00     0.159 HD
HETATM   30  O   UNL     1      41.546 -15.313  -3.630  1.00  0.00    -0.266 OA
ENDBRANCH   8  26
TORSDOF 6
ENDMDL
MODEL 5
REMARK VINA RESULT:      -8.2      2.080      4.224
REMARK  6 active torsions:
REMARK  status: ('A' for Active; 'I' for Inactive)
REMARK    1  A    between atoms: C_2  and  C_3 
REMARK    2  A    between atoms: C_3  and  C_4 
REMARK    3  A    between atoms: C_3  and  C_11 
REMARK    4  A    between atoms: C_11  and  C_12 
REMARK       I    between atoms: C_12  and  N_13 
REMARK    5  A    between atoms: N_13  and  C_14 
REMARK    6  A    between atoms: C_21  and  C_22 
REMARK       I    between atoms: C_22  and  N_23 
ROOT
HETATM    1  C   UNL     1      41.215 -15.474  -0.612  1.00  0.00     0.035 A 
HETATM    2  C   UNL     1      40.321 -14.540  -0.068  1.00  0.00     0.046 A 
HETATM    3  C   UNL     1      39.359 -13.926  -0.899  1.00  0.00     0.030 A 
HETATM    4  C   UNL     1      39.325 -14.262  -2.246  1.00  0.00     0.063 A 
HETATM    5  N   UNL     1      38.311 -13.515  -2.779  1.00  0.00    -0.277 N 
HETATM    6  H   UNL     1      38.001 -13.501  -3.744  1.00  0.00     0.189 HD
HETATM    7  N   UNL     1      37.674 -12.729  -1.896  1.00  0.00    -0.168 NA
HETATM    8  C   UNL     1      38.309 -12.975  -0.727  1.00  0.00     0.156 A 
HETATM    9  C   UNL     1      40.198 -15.186  -2.824  1.00  0.00     0.034 A 
HETATM   10  C   UNL     1      41.138 -15.787  -1.977  1.00  0.00     0.032 A 
ENDROOT
BRANCH   1  11
HETATM   11  N   UNL     1      42.195 -16.152   0.144  1.00  0.00    -0.327 N 
HETATM   12  C   UNL     1      42.017 -17.284   0.925  1.00  0.00     0.222 C 
HETATM   13  O   UNL     1      40.948 -17.823   1.179  1.00  0.00    -0.273 OA
HETATM   14  H   UNL     1      43.124 -15.748   0.137  1.00  0.00     0.169 HD
BRANCH  12  15
HETATM   15  C   UNL     1      43.333 -17.785   1.504  1.00  0.00     0.112 C 
BRANCH  15  16
HETATM   16  C   UNL     1      43.140 -18.949   2.498  1.00  0.00     0.027 C 
BRANCH  16  17
HETATM   17  C   UNL     1      44.125 -20.126   2.289  1.00  0.00     0.005 C 
HETATM   18  C   UNL     1      43.530 -21.402   1.706  1.00  0.00     0.006 C 
ENDBRANCH  16  17
BRANCH  16  19
HETATM   19  C   UNL     1      43.130 -18.491   3.953  1.00  0.00    -0.053 A 
HETATM   20  C   UNL     1      42.001 -17.931   4.565  1.00  0.00     0.008 A 
HETATM   21  C   UNL     1      42.048 -17.505   5.897  1.00  0.00     0.007 A 
HETATM   22  C   UNL     1      43.220 -17.636   6.646  1.00  0.00    -0.062 A 
HETATM   23  C   UNL     1      43.288 -17.152   8.064  1.00  0.00     0.048 C 
HETATM   24  C   UNL     1      44.352 -18.183   6.038  1.00  0.00     0.007 A 
HETATM   25  C   UNL     1      44.308 -18.605   4.708  1.00  0.00     0.008 A 
ENDBRANCH  16  19
ENDBRANCH  15  16
ENDBRANCH  12  15
ENDBRANCH   1  11
BRANCH   8  26
HETATM   26  C   UNL     1      37.900 -12.306   0.517  1.00  0.00     0.270 C 
HETATM   27  N   UNL     1      36.558 -12.377   0.774  1.00  0.00    -0.365 N 
HETATM   28  H   UNL     1      35.962 -12.870   0.119  1.00  0.00     0.159 HD
HETATM   29  H   UNL     1      36.188 -11.953   1.610  1.00  0.00     0.159 HD
HETATM   30  O   UNL     1      38.662 -11.731   1.287  1.00  0.00    -0.266 OA
ENDBRANCH   8  26
TORSDOF 6
ENDMDL
MODEL 6
REMARK VINA RESULT:      -8.0      2.153      2.752
REMARK  6 active torsions:
REMARK  status: ('A' for Active; 'I' for Inactive)
REMARK    1  A    between atoms: C_2  and  C_3 
REMARK    2  A    between atoms: C_3  and  C_4 
REMARK    3  A    between atoms: C_3  and  C_11 
REMARK    4  A    between atoms: C_11  and  C_12 
REMARK       I    between atoms: C_12  and  N_13 
REMARK    5  A    between atoms: N_13  and  C_14 
REMARK    6  A    between atoms: C_21  and  C_22 
REMARK       I    between atoms: C_22  and  N_23 
ROOT
HETATM    1  C   UNL     1      41.156 -14.834  -0.363  1.00  0.00     0.035 A 
HETATM    2  C   UNL     1      40.368 -15.207  -1.460  1.00  0.00     0.046 A 
HETATM    3  C   UNL     1      39.345 -14.347  -1.912  1.00  0.00     0.030 A 
HETATM    4  C   UNL     1      39.139 -13.144  -1.249  1.00  0.00     0.063 A 
HETATM    5  N   UNL     1      38.098 -12.544  -1.901  1.00  0.00    -0.277 N 
HETATM    6  H   UNL     1      37.673 -11.649  -1.688  1.00  0.00     0.189 HD
HETATM    7  N   UNL     1      37.612 -13.246  -2.938  1.00  0.00    -0.168 NA
HETATM    8  C   UNL     1      38.375 -14.363  -2.960  1.00  0.00     0.156 A 
HETATM    9  C   UNL     1      39.903 -12.738  -0.153  1.00  0.00     0.034 A 
HETATM   10  C   UNL     1      40.918 -13.606   0.271  1.00  0.00     0.032 A 
ENDROOT
BRANCH   1  11
HETATM   11  N   UNL     1      42.214 -15.619   0.145  1.00  0.00    -0.327 N 
HETATM   12  C   UNL     1      42.125 -16.885   0.704  1.00  0.00     0.222 C 
HETATM   13  O   UNL     1      41.091 -17.492   0.953  1.00  0.00    -0.273 OA
HETATM   14  H   UNL     1      43.134 -15.197   0.124  1.00  0.00     0.169 HD
BRANCH  12  15
HETATM   15  C   UNL     1      43.497 -17.454   1.039  1.00  0.00     0.112 C 
BRANCH  15  16
HETATM   16  C   UNL     1      43.845 -17.325   2.536  1.00  0.00     0.027 C 
BRANCH  16  17
HETATM   17  C   UNL     1      42.789 -16.552   3.364  1.00  0.00     0.005 C 
HETATM   18  C   UNL     1      43.111 -15.093   3.666  1.00  0.00     0.006 C 
ENDBRANCH  16  17
BRANCH  16  19
HETATM   19  C   UNL     1      44.181 -18.664   3.185  1.00  0.00    -0.053 A 
HETATM   20  C   UNL     1      44.276 -19.857   2.458  1.00  0.00     0.008 A 
HETATM   21  C   UNL     1      44.564 -21.066   3.102  1.00  0.00     0.007 A 
HETATM   22  C   UNL     1      44.769 -21.105   4.485  1.00  0.00    -0.062 A 
HETATM   23  C   UNL     1      45.047 -22.400   5.187  1.00  0.00     0.048 C 
HETATM   24  C   UNL     1      44.664 -19.920   5.216  1.00  0.00     0.007 A 
HETATM   25  C   UNL     1      44.374 -18.714   4.575  1.00  0.00     0.008 A 
ENDBRANCH  16  19
ENDBRANCH  15  16
ENDBRANCH  12  15
ENDBRANCH   1  11
BRANCH   8  26
HETATM   26  C   UNL     1      38.168 -15.407  -3.974  1.00  0.00     0.270 C 
HETATM   27  N   UNL     1      38.901 -16.544  -3.762  1.00  0.00    -0.365 N 
HETATM   28  H   UNL     1      39.507 -16.587  -2.952  1.00  0.00     0.159 HD
HETATM   29  H   UNL     1      38.816 -17.317  -4.402  1.00  0.00     0.159 HD
HETATM   30  O   UNL     1      37.412 -15.313  -4.934  1.00  0.00    -0.266 OA
ENDBRANCH   8  26
TORSDOF 6
ENDMDL
MODEL 7
REMARK VINA RESULT:      -8.0      2.500      3.311
REMARK  6 active torsions:
REMARK  status: ('A' for Active; 'I' for Inactive)
REMARK    1  A    between atoms: C_2  and  C_3 
REMARK    2  A    between atoms: C_3  and  C_4 
REMARK    3  A    between atoms: C_3  and  C_11 
REMARK    4  A    between atoms: C_11  and  C_12 
REMARK       I    between atoms: C_12  and  N_13 
REMARK    5  A    between atoms: N_13  and  C_14 
REMARK    6  A    between atoms: C_21  and  C_22 
REMARK       I    between atoms: C_22  and  N_23 
ROOT
HETATM    1  C   UNL     1      40.712 -14.593   4.869  1.00  0.00     0.035 A 
HETATM    2  C   UNL     1      40.141 -14.585   3.589  1.00  0.00     0.046 A 
HETATM    3  C   UNL     1      39.371 -13.478   3.172  1.00  0.00     0.030 A 
HETATM    4  C   UNL     1      39.192 -12.417   4.051  1.00  0.00     0.063 A 
HETATM    5  N   UNL     1      38.413 -11.518   3.378  1.00  0.00    -0.277 N 
HETATM    6  H   UNL     1      38.080 -10.622   3.715  1.00  0.00     0.189 HD
HETATM    7  N   UNL     1      38.075 -11.893   2.134  1.00  0.00    -0.168 NA
HETATM    8  C   UNL     1      38.663 -13.104   1.990  1.00  0.00     0.156 A 
HETATM    9  C   UNL     1      39.746 -12.388   5.333  1.00  0.00     0.034 A 
HETATM   10  C   UNL     1      40.512 -13.495   5.719  1.00  0.00     0.032 A 
ENDROOT
BRANCH   1  11
HETATM   11  N   UNL     1      41.514 -15.645   5.363  1.00  0.00    -0.327 N 
HETATM   12  C   UNL     1      41.102 -16.720   6.136  1.00  0.00     0.222 C 
HETATM   13  O   UNL     1      39.987 -16.878   6.616  1.00  0.00    -0.273 OA
HETATM   14  H   UNL     1      42.502 -15.590   5.152  1.00  0.00     0.169 HD
BRANCH  12  15
HETATM   15  C   UNL     1      42.236 -17.706   6.384  1.00  0.00     0.112 C 
BRANCH  15  16
HETATM   16  C   UNL     1      43.468 -17.430   5.499  1.00  0.00     0.027 C 
BRANCH  16  17
HETATM   17  C   UNL     1      44.745 -17.058   6.293  1.00  0.00     0.005 C 
HETATM   18  C   UNL     1      44.815 -15.630   6.818  1.00  0.00     0.006 C 
ENDBRANCH  16  17
BRANCH  16  19
HETATM   19  C   UNL     1      43.747 -18.551   4.503  1.00  0.00    -0.053 A 
HETATM   20  C   UNL     1      43.144 -18.612   3.240  1.00  0.00     0.008 A 
HETATM   21  C   UNL     1      43.413 -19.674   2.370  1.00  0.00     0.007 A 
HETATM   22  C   UNL     1      44.296 -20.693   2.740  1.00  0.00    -0.062 A 
HETATM   23  C   UNL     1      44.566 -21.851   1.826  1.00  0.00     0.048 C 
HETATM   24  C   UNL     1      44.892 -20.643   4.003  1.00  0.00     0.007 A 
HETATM   25  C   UNL     1      44.621 -19.586   4.873  1.00  0.00     0.008 A 
ENDBRANCH  16  19
ENDBRANCH  15  16
ENDBRANCH  12  15
ENDBRANCH   1  11
BRANCH   8  26
HETATM   26  C   UNL     1      38.542 -13.866   0.739  1.00  0.00     0.270 C 
HETATM   27  N   UNL     1      37.345 -14.513   0.593  1.00  0.00    -0.365 N 
HETATM   28  H   UNL     1      36.650 -14.422   1.325  1.00  0.00     0.159 HD
HETATM   29  H   UNL     1      37.169 -15.054  -0.239  1.00  0.00     0.159 HD
HETATM   30  O   UNL     1      39.408 -13.937  -0.125  1.00  0.00    -0.266 OA
ENDBRANCH   8  26
TORSDOF 6
ENDMDL
MODEL 8
REMARK VINA RESULT:      -7.9      2.412      3.216
REMARK  6 active torsions:
REMARK  status: ('A' for Active; 'I' for Inactive)
REMARK    1  A    between atoms: C_2  and  C_3 
REMARK    2  A    between atoms: C_3  and  C_4 
REMARK    3  A    between atoms: C_3  and  C_11 
REMARK    4  A    between atoms: C_11  and  C_12 
REMARK       I    between atoms: C_12  and  N_13 
REMARK    5  A    between atoms: N_13  and  C_14 
REMARK    6  A    between atoms: C_21  and  C_22 
REMARK       I    between atoms: C_22  and  N_23 
ROOT
HETATM    1  C   UNL     1      41.525 -15.036  -0.526  1.00  0.00     0.035 A 
HETATM    2  C   UNL     1      42.005 -13.722  -0.631  1.00  0.00     0.046 A 
HETATM    3  C   UNL     1      42.009 -13.077  -1.886  1.00  0.00     0.030 A 
HETATM    4  C   UNL     1      41.538 -13.766  -2.996  1.00  0.00     0.063 A 
HETATM    5  N   UNL     1      41.671 -12.898  -4.044  1.00  0.00    -0.277 N 
HETATM    6  H   UNL     1      41.428 -13.066  -5.014  1.00  0.00     0.189 HD
HETATM    7  N   UNL     1      42.178 -11.700  -3.715  1.00  0.00    -0.168 NA
HETATM    8  C   UNL     1      42.390 -11.793  -2.381  1.00  0.00     0.156 A 
HETATM    9  C   UNL     1      41.052 -15.074  -2.931  1.00  0.00     0.034 A 
HETATM   10  C   UNL     1      41.052 -15.690  -1.672  1.00  0.00     0.032 A 
ENDROOT
BRANCH   1  11
HETATM   11  N   UNL     1      41.463 -15.752   0.689  1.00  0.00    -0.327 N 
HETATM   12  C   UNL     1      42.344 -16.727   1.133  1.00  0.00     0.222 C 
HETATM   13  O   UNL     1      43.267 -17.211   0.491  1.00  0.00    -0.273 OA
HETATM   14  H   UNL     1      40.672 -15.550   1.286  1.00  0.00     0.169 HD
BRANCH  12  15
HETATM   15  C   UNL     1      42.008 -17.194   2.542  1.00  0.00     0.112 C 
BRANCH  15  16
HETATM   16  C   UNL     1      43.212 -17.106   3.501  1.00  0.00     0.027 C 
BRANCH  16  17
HETATM   17  C   UNL     1      42.966 -16.212   4.742  1.00  0.00     0.005 C 
HETATM   18  C   UNL     1      42.719 -14.735   4.465  1.00  0.00     0.006 C 
ENDBRANCH  16  17
BRANCH  16  19
HETATM   19  C   UNL     1      43.748 -18.475   3.908  1.00  0.00    -0.053 A 
HETATM   20  C   UNL     1      44.105 -19.458   2.975  1.00  0.00     0.008 A 
HETATM   21  C   UNL     1      44.570 -20.709   3.396  1.00  0.00     0.007 A 
HETATM   22  C   UNL     1      44.696 -21.000   4.758  1.00  0.00    -0.062 A 
HETATM   23  C   UNL     1      45.164 -22.348   5.219  1.00  0.00     0.048 C 
HETATM   24  C   UNL     1      44.332 -20.028   5.692  1.00  0.00     0.007 A 
HETATM   25  C   UNL     1      43.864 -18.782   5.273  1.00  0.00     0.008 A 
ENDBRANCH  16  19
ENDBRANCH  15  16
ENDBRANCH  12  15
ENDBRANCH   1  11
BRANCH   8  26
HETATM   26  C   UNL     1      42.940 -10.664  -1.617  1.00  0.00     0.270 C 
HETATM   27  N   UNL     1      42.367  -9.457  -1.911  1.00  0.00    -0.365 N 
HETATM   28  H   UNL     1      41.628  -9.426  -2.604  1.00  0.00     0.159 HD
HETATM   29  H   UNL     1      42.676  -8.629  -1.429  1.00  0.00     0.159 HD
HETATM   30  O   UNL     1      43.829 -10.754  -0.776  1.00  0.00    -0.266 OA
ENDBRANCH   8  26
TORSDOF 6
ENDMDL
MODEL 9
REMARK VINA RESULT:      -7.9      3.030      7.724
REMARK  6 active torsions:
REMARK  status: ('A' for Active; 'I' for Inactive)
REMARK    1  A    between atoms: C_2  and  C_3 
REMARK    2  A    between atoms: C_3  and  C_4 
REMARK    3  A    between atoms: C_3  and  C_11 
REMARK    4  A    between atoms: C_11  and  C_12 
REMARK       I    between atoms: C_12  and  N_13 
REMARK    5  A    between atoms: N_13  and  C_14 
REMARK    6  A    between atoms: C_21  and  C_22 
REMARK       I    between atoms: C_22  and  N_23 
ROOT
HETATM    1  C   UNL     1      43.150 -17.889   2.404  1.00  0.00     0.035 A 
HETATM    2  C   UNL     1      43.459 -18.014   3.766  1.00  0.00     0.046 A 
HETATM    3  C   UNL     1      43.982 -19.230   4.257  1.00  0.00     0.030 A 
HETATM    4  C   UNL     1      44.175 -20.283   3.372  1.00  0.00     0.063 A 
HETATM    5  N   UNL     1      44.677 -21.304   4.128  1.00  0.00    -0.277 N 
HETATM    6  H   UNL     1      44.935 -22.232   3.813  1.00  0.00     0.189 HD
HETATM    7  N   UNL     1      44.838 -21.008   5.428  1.00  0.00    -0.168 NA
HETATM    8  C   UNL     1      44.416 -19.726   5.524  1.00  0.00     0.156 A 
HETATM    9  C   UNL     1      43.879 -20.196   2.010  1.00  0.00     0.034 A 
HETATM   10  C   UNL     1      43.368 -18.976   1.546  1.00  0.00     0.032 A 
ENDROOT
BRANCH   1  11
HETATM   11  N   UNL     1      42.643 -16.708   1.822  1.00  0.00    -0.327 N 
HETATM   12  C   UNL     1      41.311 -16.354   1.666  1.00  0.00     0.222 C 
HETATM   13  O   UNL     1      40.344 -17.063   1.910  1.00  0.00    -0.273 OA
HETATM   14  H   UNL     1      43.330 -16.063   1.451  1.00  0.00     0.169 HD
BRANCH  12  15
HETATM   15  C   UNL     1      41.162 -14.953   1.090  1.00  0.00     0.112 C 
BRANCH  15  16
HETATM   16  C   UNL     1      40.915 -13.886   2.175  1.00  0.00     0.027 C 
BRANCH  16  17
HETATM   17  C   UNL     1      39.422 -13.686   2.537  1.00  0.00     0.005 C 
HETATM   18  C   UNL     1      38.987 -12.254   2.820  1.00  0.00     0.006 C 
ENDBRANCH  16  17
BRANCH  16  19
HETATM   19  C   UNL     1      41.760 -14.106   3.426  1.00  0.00    -0.053 A 
HETATM   20  C   UNL     1      41.250 -14.693   4.592  1.00  0.00     0.008 A 
HETATM   21  C   UNL     1      42.057 -14.853   5.724  1.00  0.00     0.007 A 
HETATM   22  C   UNL     1      43.391 -14.436   5.712  1.00  0.00    -0.062 A 
HETATM   23  C   UNL     1      44.255 -14.575   6.930  1.00  0.00     0.048 C 
HETATM   24  C   UNL     1      43.902 -13.841   4.556  1.00  0.00     0.007 A 
HETATM   25  C   UNL     1      43.097 -13.677   3.428  1.00  0.00     0.008 A 
ENDBRANCH  16  19
ENDBRANCH  15  16
ENDBRANCH  12  15
ENDBRANCH   1  11
BRANCH   8  26
HETATM   26  C   UNL     1      44.440 -19.010   6.807  1.00  0.00     0.270 C 
HETATM   27  N   UNL     1      43.649 -19.568   7.773  1.00  0.00    -0.365 N 
HETATM   28  H   UNL     1      43.126 -20.407   7.549  1.00  0.00     0.159 HD
HETATM   29  H   UNL     1      43.609 -19.148   8.688  1.00  0.00     0.159 HD
HETATM   30  O   UNL     1      45.101 -18.002   7.035  1.00  0.00    -0.266 OA
ENDBRANCH   8  26
TORSDOF 6
ENDMDL
MODEL 10
REMARK VINA RESULT:      -7.8      1.572      3.513
REMARK  6 active torsions:
REMARK  status: ('A' for Active; 'I' for Inactive)
REMARK    1  A    between atoms: C_2  and  C_3 
REMARK    2  A    between atoms: C_3  and  C_4 
REMARK    3  A    between atoms: C_3  and  C_11 
REMARK    4  A    between atoms: C_11  and  C_12 
REMARK       I    between atoms: C_12  and  N_13 
REMARK    5  A    between atoms: N_13  and  C_14 
REMARK    6  A    between atoms: C_21  and  C_22 
REMARK       I    between atoms: C_22  and  N_23 
ROOT
HETATM    1  C   UNL     1      41.106 -16.559   1.057  1.00  0.00     0.035 A 
HETATM    2  C   UNL     1      41.378 -16.024  -0.211  1.00  0.00     0.046 A 
HETATM    3  C   UNL     1      40.798 -14.795  -0.591  1.00  0.00     0.030 A 
HETATM    4  C   UNL     1      39.962 -14.142   0.306  1.00  0.00     0.063 A 
HETATM    5  N   UNL     1      39.558 -13.005  -0.336  1.00  0.00    -0.277 N 
HETATM    6  H   UNL     1      38.937 -12.287   0.018  1.00  0.00     0.189 HD
HETATM    7  N   UNL     1      40.066 -12.852  -1.570  1.00  0.00    -0.168 NA
HETATM    8  C   UNL     1      40.838 -13.950  -1.741  1.00  0.00     0.156 A 
HETATM    9  C   UNL     1      39.668 -14.643   1.576  1.00  0.00     0.034 A 
HETATM   10  C   UNL     1      40.262 -15.861   1.932  1.00  0.00     0.032 A 
ENDROOT
BRANCH   1  11
HETATM   11  N   UNL     1      41.656 -17.770   1.530  1.00  0.00    -0.327 N 
HETATM   12  C   UNL     1      43.001 -18.093   1.640  1.00  0.00     0.222 C 
HETATM   13  O   UNL     1      43.940 -17.419   1.237  1.00  0.00    -0.273 OA
HETATM   14  H   UNL     1      40.994 -18.490   1.790  1.00  0.00     0.169 HD
BRANCH  12  15
HETATM   15  C   UNL     1      43.204 -19.453   2.293  1.00  0.00     0.112 C 
BRANCH  15  16
HETATM   16  C   UNL     1      43.340 -19.361   3.826  1.00  0.00     0.027 C 
BRANCH  16  17
HETATM   17  C   UNL     1      44.779 -19.601   4.348  1.00  0.00     0.005 C 
HETATM   18  C   UNL     1      45.160 -21.050   4.622  1.00  0.00     0.006 C 
ENDBRANCH  16  17
BRANCH  16  19
HETATM   19  C   UNL     1      42.755 -18.074   4.398  1.00  0.00    -0.053 A 
HETATM   20  C   UNL     1      41.438 -17.981   4.868  1.00  0.00     0.008 A 
HETATM   21  C   UNL     1      40.939 -16.771   5.362  1.00  0.00     0.007 A 
HETATM   22  C   UNL     1      41.747 -15.631   5.404  1.00  0.00    -0.062 A 
HETATM   23  C   UNL     1      41.210 -14.323   5.903  1.00  0.00     0.048 C 
HETATM   24  C   UNL     1      43.057 -15.714   4.928  1.00  0.00     0.007 A 
HETATM   25  C   UNL     1      43.555 -16.920   4.430  1.00  0.00     0.008 A 
ENDBRANCH  16  19
ENDBRANCH  15  16
ENDBRANCH  12  15
ENDBRANCH   1  11
BRANCH   8  26
HETATM   26  C   UNL     1      41.593 -14.165  -2.984  1.00  0.00     0.270 C 
HETATM   27  N   UNL     1      42.789 -13.502  -3.033  1.00  0.00    -0.365 N 
HETATM   28  H   UNL     1      43.064 -12.936  -2.238  1.00  0.00     0.159 HD
HETATM   29  H   UNL     1      43.378 -13.597  -3.844  1.00  0.00     0.159 HD
HETATM   30  O   UNL     1      41.223 -14.871  -3.916  1.00  0.00    -0.266 OA
ENDBRANCH   8  26
TORSDOF 6
ENDMDL
