MODEL 1
REMARK VINA RESULT:      -9.0      0.000      0.000
REMARK  7 active torsions:
REMARK  status: ('A' for Active; 'I' for Inactive)
REMARK    1  A    between atoms: C_4  and  C_5 
REMARK    2  A    between atoms: C_8  and  C_9 
REMARK    3  A    between atoms: C_9  and  C_10 
REMARK       I    between atoms: C_10  and  N_11 
REMARK    4  A    between atoms: N_11  and  N_12 
REMARK       I    between atoms: N_12  and  C_13 
REMARK    5  A    between atoms: C_13  and  C_14 
REMARK    6  A    between atoms: C_14  and  C_15 
REMARK    7  A    between atoms: C_16  and  O_17 
ROOT
HETATM    1  C   UNL     1      41.811 -13.500   5.177  1.00  0.00     0.241 C 
HETATM    2  N   UNL     1      42.565 -13.959   6.238  1.00  0.00    -0.267 N 
HETATM    3  O   UNL     1      41.826 -12.318   4.825  1.00  0.00    -0.271 OA
HETATM    4  H   UNL     1      42.380 -14.852   6.699  1.00  0.00     0.190 HD
ENDROOT
BRANCH   1   5
HETATM    5  C   UNL     1      40.982 -14.559   4.481  1.00  0.00     0.164 C 
BRANCH   5   6
HETATM    6  C   UNL     1      41.788 -15.431   3.574  1.00  0.00     0.051 A 
HETATM    7  C   UNL     1      42.197 -15.170   2.280  1.00  0.00     0.079 A 
HETATM    8  S   UNL     1      43.128 -16.471   1.676  1.00  0.00    -0.079 SA
HETATM    9  C   UNL     1      42.956 -17.296   3.180  1.00  0.00     0.108 A 
HETATM   10  N   UNL     1      42.241 -16.644   4.079  1.00  0.00    -0.244 NA
BRANCH   9  11
HETATM   11  C   UNL     1      43.623 -18.586   3.426  1.00  0.00     0.000 A 
HETATM   12  C   UNL     1      43.586 -19.574   2.425  1.00  0.00     0.021 A 
HETATM   13  C   UNL     1      44.197 -20.823   2.606  1.00  0.00    -0.061 A 
HETATM   14  C   UNL     1      44.103 -21.882   1.548  1.00  0.00     0.048 C 
HETATM   15  C   UNL     1      44.851 -21.091   3.813  1.00  0.00     0.007 A 
HETATM   16  C   UNL     1      44.912 -20.119   4.809  1.00  0.00     0.001 A 
HETATM   17  C   UNL     1      44.305 -18.876   4.617  1.00  0.00     0.014 A 
ENDBRANCH   9  11
ENDBRANCH   5   6
ENDBRANCH   1   5
BRANCH   2  18
HETATM   18  N   UNL     1      43.271 -13.014   6.994  1.00  0.00    -0.267 N 
HETATM   19  C   UNL     1      44.343 -13.447   7.748  1.00  0.00     0.240 C 
HETATM   20  O   UNL     1      44.758 -14.605   7.689  1.00  0.00    -0.272 OA
HETATM   21  H   UNL     1      42.820 -12.108   7.128  1.00  0.00     0.190 HD
BRANCH  19  22
HETATM   22  C   UNL     1      44.975 -12.376   8.612  1.00  0.00     0.146 C 
BRANCH  22  23
HETATM   23  C   UNL     1      44.193 -11.962   9.844  1.00  0.00    -0.016 A 
HETATM   24  C   UNL     1      43.207 -10.960   9.723  1.00  0.00     0.074 A 
HETATM   25  C   UNL     1      42.484 -10.550  10.848  1.00  0.00     0.037 A 
HETATM   26  C   UNL     1      42.726 -11.132  12.094  1.00  0.00     0.003 A 
HETATM   27  C   UNL     1      43.692 -12.122  12.222  1.00  0.00     0.001 A 
HETATM   28  C   UNL     1      44.424 -12.534  11.107  1.00  0.00     0.010 A 
BRANCH  24  29
HETATM   29  O   UNL     1      43.041 -10.437   8.465  1.00  0.00    -0.355 OA
HETATM   30  C   UNL     1      41.804  -9.791   8.188  1.00  0.00     0.210 C 
ENDBRANCH  24  29
ENDBRANCH  22  23
ENDBRANCH  19  22
ENDBRANCH   2  18
TORSDOF 7
ENDMDL
MODEL 2
REMARK VINA RESULT:      -8.7      1.195      2.236
REMARK  7 active torsions:
REMARK  status: ('A' for Active; 'I' for Inactive)
REMARK    1  A    between atoms: C_4  and  C_5 
REMARK    2  A    between atoms: C_8  and  C_9 
REMARK    3  A    between atoms: C_9  and  C_10 
REMARK       I    between atoms: C_10  and  N_11 
REMARK    4  A    between atoms: N_11  and  N_12 
REMARK       I    between atoms: N_12  and  C_13 
REMARK    5  A    between atoms: C_13  and  C_14 
REMARK    6  A    between atoms: C_14  and  C_15 
REMARK    7  A    between atoms: C_16  and  O_17 
ROOT
HETATM    1  C   UNL     1      41.737 -13.768   5.812  1.00  0.00     0.241 C 
HETATM    2  N   UNL     1      40.999 -12.737   6.355  1.00  0.00    -0.267 N 
HETATM    3  O   UNL     1      42.959 -13.845   5.955  1.00  0.00    -0.271 OA
HETATM    4  H   UNL     1      40.051 -12.516   6.044  1.00  0.00     0.190 HD
ENDROOT
BRANCH   1   5
HETATM    5  C   UNL     1      40.929 -14.793   5.045  1.00  0.00     0.164 C 
BRANCH   5   6
HETATM    6  C   UNL     1      41.747 -15.569   4.065  1.00  0.00     0.051 A 
HETATM    7  C   UNL     1      42.170 -15.180   2.808  1.00  0.00     0.079 A 
HETATM    8  S   UNL     1      43.111 -16.414   2.088  1.00  0.00    -0.079 SA
HETATM    9  C   UNL     1      42.922 -17.385   3.501  1.00  0.00     0.108 A 
HETATM   10  N   UNL     1      42.196 -16.826   4.452  1.00  0.00    -0.244 NA
BRANCH   9  11
HETATM   11  C   UNL     1      43.590 -18.693   3.624  1.00  0.00     0.000 A 
HETATM   12  C   UNL     1      43.539 -19.588   2.541  1.00  0.00     0.021 A 
HETATM   13  C   UNL     1      44.150 -20.849   2.603  1.00  0.00    -0.061 A 
HETATM   14  C   UNL     1      44.042 -21.810   1.457  1.00  0.00     0.048 C 
HETATM   15  C   UNL     1      44.816 -21.223   3.775  1.00  0.00     0.007 A 
HETATM   16  C   UNL     1      44.890 -20.344   4.853  1.00  0.00     0.001 A 
HETATM   17  C   UNL     1      44.284 -19.087   4.777  1.00  0.00     0.014 A 
ENDBRANCH   9  11
ENDBRANCH   5   6
ENDBRANCH   1   5
BRANCH   2  18
HETATM   18  N   UNL     1      41.695 -11.697   6.985  1.00  0.00    -0.267 N 
HETATM   19  C   UNL     1      41.020 -10.920   7.905  1.00  0.00     0.240 C 
HETATM   20  O   UNL     1      39.873 -11.182   8.265  1.00  0.00    -0.272 OA
HETATM   21  H   UNL     1      42.584 -11.424   6.565  1.00  0.00     0.190 HD
BRANCH  19  22
HETATM   22  C   UNL     1      41.823  -9.758   8.452  1.00  0.00     0.146 C 
BRANCH  22  23
HETATM   23  C   UNL     1      42.379  -9.930   9.853  1.00  0.00    -0.016 A 
HETATM   24  C   UNL     1      43.617 -10.586  10.020  1.00  0.00     0.074 A 
HETATM   25  C   UNL     1      44.143 -10.771  11.303  1.00  0.00     0.037 A 
HETATM   26  C   UNL     1      43.455 -10.303  12.423  1.00  0.00     0.003 A 
HETATM   27  C   UNL     1      42.237  -9.652  12.268  1.00  0.00     0.001 A 
HETATM   28  C   UNL     1      41.700  -9.468  10.993  1.00  0.00     0.010 A 
BRANCH  24  29
HETATM   29  O   UNL     1      44.221 -11.020   8.867  1.00  0.00    -0.355 OA
HETATM   30  C   UNL     1      44.720 -12.353   8.858  1.00  0.00     0.210 C 
ENDBRANCH  24  29
ENDBRANCH  22  23
ENDBRANCH  19  22
ENDBRANCH   2  18
TORSDOF 7
ENDMDL
MODEL 3
REMARK VINA RESULT:      -8.4      2.016      2.975
REMARK  7 active torsions:
REMARK  status: ('A' for Active; 'I' for Inactive)
REMARK    1  A    between atoms: C_4  and  C_5 
REMARK    2  A    between atoms: C_8  and  C_9 
REMARK    3  A    between atoms: C_9  and  C_10 
REMARK       I    between atoms: C_10  and  N_11 
REMARK    4  A    between atoms: N_11  and  N_12 
REMARK       I    between atoms: N_12  and  C_13 
REMARK    5  A    between atoms: C_13  and  C_14 
REMARK    6  A    between atoms: C_14  and  C_15 
REMARK    7  A    between atoms: C_16  and  O_17 
ROOT
HETATM    1  C   UNL     1      43.581 -14.114   6.201  1.00  0.00     0.241 C 
HETATM    2  N   UNL     1      42.500 -13.275   6.383  1.00  0.00    -0.267 N 
HETATM    3  O   UNL     1      44.643 -13.955   6.806  1.00  0.00    -0.271 OA
HETATM    4  H   UNL     1      41.721 -13.231   5.723  1.00  0.00     0.190 HD
ENDROOT
BRANCH   1   5
HETATM    5  C   UNL     1      43.352 -15.241   5.216  1.00  0.00     0.164 C 
BRANCH   5   6
HETATM    6  C   UNL     1      43.579 -16.593   5.809  1.00  0.00     0.051 A 
HETATM    7  C   UNL     1      43.503 -16.966   7.137  1.00  0.00     0.079 A 
HETATM    8  S   UNL     1      43.817 -18.639   7.305  1.00  0.00    -0.079 SA
HETATM    9  C   UNL     1      44.011 -18.776   5.597  1.00  0.00     0.108 A 
HETATM   10  N   UNL     1      43.857 -17.641   4.940  1.00  0.00    -0.244 NA
BRANCH   9  11
HETATM   11  C   UNL     1      44.258 -20.080   4.958  1.00  0.00     0.000 A 
HETATM   12  C   UNL     1      44.115 -20.194   3.564  1.00  0.00     0.021 A 
HETATM   13  C   UNL     1      44.330 -21.412   2.902  1.00  0.00    -0.061 A 
HETATM   14  C   UNL     1      44.123 -21.526   1.421  1.00  0.00     0.048 C 
HETATM   15  C   UNL     1      44.688 -22.537   3.651  1.00  0.00     0.007 A 
HETATM   16  C   UNL     1      44.849 -22.441   5.031  1.00  0.00     0.001 A 
HETATM   17  C   UNL     1      44.639 -21.221   5.680  1.00  0.00     0.014 A 
ENDBRANCH   9  11
ENDBRANCH   5   6
ENDBRANCH   1   5
BRANCH   2  18
HETATM   18  N   UNL     1      42.679 -12.149   7.197  1.00  0.00    -0.267 N 
HETATM   19  C   UNL     1      41.579 -11.363   7.477  1.00  0.00     0.240 C 
HETATM   20  O   UNL     1      40.442 -11.681   7.128  1.00  0.00    -0.272 OA
HETATM   21  H   UNL     1      43.640 -11.842   7.347  1.00  0.00     0.190 HD
BRANCH  19  22
HETATM   22  C   UNL     1      41.889 -10.113   8.274  1.00  0.00     0.146 C 
BRANCH  22  23
HETATM   23  C   UNL     1      42.139 -10.311   9.758  1.00  0.00    -0.016 A 
HETATM   24  C   UNL     1      43.448 -10.602  10.197  1.00  0.00     0.074 A 
HETATM   25  C   UNL     1      43.700 -10.805  11.558  1.00  0.00     0.037 A 
HETATM   26  C   UNL     1      42.665 -10.713  12.490  1.00  0.00     0.003 A 
HETATM   27  C   UNL     1      41.373 -10.423  12.067  1.00  0.00     0.001 A 
HETATM   28  C   UNL     1      41.110 -10.225  10.711  1.00  0.00     0.010 A 
BRANCH  24  29
HETATM   29  O   UNL     1      44.401 -10.682   9.214  1.00  0.00    -0.355 OA
HETATM   30  C   UNL     1      45.724 -11.016   9.618  1.00  0.00     0.210 C 
ENDBRANCH  24  29
ENDBRANCH  22  23
ENDBRANCH  19  22
ENDBRANCH   2  18
TORSDOF 7
ENDMDL
MODEL 4
REMARK VINA RESULT:      -8.3      1.521      2.218
REMARK  7 active torsions:
REMARK  status: ('A' for Active; 'I' for Inactive)
REMARK    1  A    between atoms: C_4  and  C_5 
REMARK    2  A    between atoms: C_8  and  C_9 
REMARK    3  A    between atoms: C_9  and  C_10 
REMARK       I    between atoms: C_10  and  N_11 
REMARK    4  A    between atoms: N_11  and  N_12 
REMARK       I    between atoms: N_12  and  C_13 
REMARK    5  A    between atoms: C_13  and  C_14 
REMARK    6  A    between atoms: C_14  and  C_15 
REMARK    7  A    between atoms: C_16  and  O_17 
ROOT
HETATM    1  C   UNL     1      41.505 -13.787   5.587  1.00  0.00     0.241 C 
HETATM    2  N   UNL     1      40.842 -12.916   6.427  1.00  0.00    -0.267 N 
HETATM    3  O   UNL     1      42.724 -13.730   5.414  1.00  0.00    -0.271 OA
HETATM    4  H   UNL     1      39.830 -12.779   6.390  1.00  0.00     0.190 HD
ENDROOT
BRANCH   1   5
HETATM    5  C   UNL     1      40.622 -14.815   4.912  1.00  0.00     0.164 C 
BRANCH   5   6
HETATM    6  C   UNL     1      41.348 -15.635   3.896  1.00  0.00     0.051 A 
HETATM    7  C   UNL     1      41.531 -15.366   2.553  1.00  0.00     0.079 A 
HETATM    8  S   UNL     1      42.463 -16.598   1.820  1.00  0.00    -0.079 SA
HETATM    9  C   UNL     1      42.593 -17.406   3.338  1.00  0.00     0.108 A 
HETATM   10  N   UNL     1      41.973 -16.797   4.332  1.00  0.00    -0.244 NA
BRANCH   9  11
HETATM   11  C   UNL     1      43.396 -18.633   3.485  1.00  0.00     0.000 A 
HETATM   12  C   UNL     1      43.361 -19.596   2.462  1.00  0.00     0.021 A 
HETATM   13  C   UNL     1      44.098 -20.786   2.550  1.00  0.00    -0.061 A 
HETATM   14  C   UNL     1      44.008 -21.825   1.472  1.00  0.00     0.048 C 
HETATM   15  C   UNL     1      44.879 -21.018   3.687  1.00  0.00     0.007 A 
HETATM   16  C   UNL     1      44.938 -20.068   4.704  1.00  0.00     0.001 A 
HETATM   17  C   UNL     1      44.205 -18.883   4.603  1.00  0.00     0.014 A 
ENDBRANCH   9  11
ENDBRANCH   5   6
ENDBRANCH   1   5
BRANCH   2  18
HETATM   18  N   UNL     1      41.581 -11.872   6.999  1.00  0.00    -0.267 N 
HETATM   19  C   UNL     1      40.941 -11.023   7.879  1.00  0.00     0.240 C 
HETATM   20  O   UNL     1      39.785 -11.221   8.255  1.00  0.00    -0.272 OA
HETATM   21  H   UNL     1      42.478 -11.656   6.564  1.00  0.00     0.190 HD
BRANCH  19  22
HETATM   22  C   UNL     1      41.790  -9.865   8.362  1.00  0.00     0.146 C 
BRANCH  22  23
HETATM   23  C   UNL     1      42.482 -10.056   9.699  1.00  0.00    -0.016 A 
HETATM   24  C   UNL     1      41.851  -9.580  10.868  1.00  0.00     0.074 A 
HETATM   25  C   UNL     1      42.476  -9.729  12.111  1.00  0.00     0.037 A 
HETATM   26  C   UNL     1      43.721 -10.354  12.205  1.00  0.00     0.003 A 
HETATM   27  C   UNL     1      44.348 -10.829  11.059  1.00  0.00     0.001 A 
HETATM   28  C   UNL     1      43.736 -10.680   9.814  1.00  0.00     0.010 A 
BRANCH  24  29
HETATM   29  O   UNL     1      40.635  -8.972  10.683  1.00  0.00    -0.355 OA
HETATM   30  C   UNL     1      39.540  -9.465  11.447  1.00  0.00     0.210 C 
ENDBRANCH  24  29
ENDBRANCH  22  23
ENDBRANCH  19  22
ENDBRANCH   2  18
TORSDOF 7
ENDMDL
MODEL 5
REMARK VINA RESULT:      -8.3      4.305      8.557
REMARK  7 active torsions:
REMARK  status: ('A' for Active; 'I' for Inactive)
REMARK    1  A    between atoms: C_4  and  C_5 
REMARK    2  A    between atoms: C_8  and  C_9 
REMARK    3  A    between atoms: C_9  and  C_10 
REMARK       I    between atoms: C_10  and  N_11 
REMARK    4  A    between atoms: N_11  and  N_12 
REMARK       I    between atoms: N_12  and  C_13 
REMARK    5  A    between atoms: C_13  and  C_14 
REMARK    6  A    between atoms: C_14  and  C_15 
REMARK    7  A    between atoms: C_16  and  O_17 
ROOT
HETATM    1  C   UNL     1      40.389 -14.433   3.252  1.00  0.00     0.241 C 
HETATM    2  N   UNL     1      40.090 -15.278   2.202  1.00  0.00    -0.267 N 
HETATM    3  O   UNL     1      40.626 -13.235   3.081  1.00  0.00    -0.271 OA
HETATM    4  H   UNL     1      40.143 -16.296   2.284  1.00  0.00     0.190 HD
ENDROOT
BRANCH   1   5
HETATM    5  C   UNL     1      40.391 -15.090   4.616  1.00  0.00     0.164 C 
BRANCH   5   6
HETATM    6  C   UNL     1      41.625 -15.890   4.878  1.00  0.00     0.051 A 
HETATM    7  C   UNL     1      42.575 -15.697   5.863  1.00  0.00     0.079 A 
HETATM    8  S   UNL     1      43.784 -16.903   5.769  1.00  0.00    -0.079 SA
HETATM    9  C   UNL     1      42.960 -17.629   4.439  1.00  0.00     0.108 A 
HETATM   10  N   UNL     1      41.852 -17.006   4.081  1.00  0.00    -0.244 NA
BRANCH   9  11
HETATM   11  C   UNL     1      43.448 -18.877   3.827  1.00  0.00     0.000 A 
HETATM   12  C   UNL     1      44.047 -19.849   4.647  1.00  0.00     0.021 A 
HETATM   13  C   UNL     1      44.536 -21.053   4.118  1.00  0.00    -0.061 A 
HETATM   14  C   UNL     1      45.219 -22.055   5.001  1.00  0.00     0.048 C 
HETATM   15  C   UNL     1      44.429 -21.284   2.743  1.00  0.00     0.007 A 
HETATM   16  C   UNL     1      43.825 -20.339   1.917  1.00  0.00     0.001 A 
HETATM   17  C   UNL     1      43.334 -19.146   2.455  1.00  0.00     0.014 A 
ENDBRANCH   9  11
ENDBRANCH   5   6
ENDBRANCH   1   5
BRANCH   2  18
HETATM   18  N   UNL     1      40.177 -14.762   0.903  1.00  0.00    -0.267 N 
HETATM   19  C   UNL     1      41.191 -15.217   0.084  1.00  0.00     0.240 C 
HETATM   20  O   UNL     1      41.942 -16.132   0.422  1.00  0.00    -0.272 OA
HETATM   21  H   UNL     1      39.638 -13.917   0.711  1.00  0.00     0.190 HD
BRANCH  19  22
HETATM   22  C   UNL     1      41.269 -14.525  -1.261  1.00  0.00     0.146 C 
BRANCH  22  23
HETATM   23  C   UNL     1      40.169 -14.861  -2.250  1.00  0.00    -0.016 A 
HETATM   24  C   UNL     1      38.998 -14.074  -2.263  1.00  0.00     0.074 A 
HETATM   25  C   UNL     1      37.963 -14.374  -3.155  1.00  0.00     0.037 A 
HETATM   26  C   UNL     1      38.083 -15.445  -4.042  1.00  0.00     0.003 A 
HETATM   27  C   UNL     1      39.234 -16.224  -4.039  1.00  0.00     0.001 A 
HETATM   28  C   UNL     1      40.270 -15.936  -3.149  1.00  0.00     0.010 A 
BRANCH  24  29
HETATM   29  O   UNL     1      38.961 -13.047  -1.353  1.00  0.00    -0.355 OA
HETATM   30  C   UNL     1      38.743 -11.736  -1.862  1.00  0.00     0.210 C 
ENDBRANCH  24  29
ENDBRANCH  22  23
ENDBRANCH  19  22
ENDBRANCH   2  18
TORSDOF 7
ENDMDL
MODEL 6
REMARK VINA RESULT:      -8.2      2.808      8.975
REMARK  7 active torsions:
REMARK  status: ('A' for Active; 'I' for Inactive)
REMARK    1  A    between atoms: C_4  and  C_5 
REMARK    2  A    between atoms: C_8  and  C_9 
REMARK    3  A    between atoms: C_9  and  C_10 
REMARK       I    between atoms: C_10  and  N_11 
REMARK    4  A    between atoms: N_11  and  N_12 
REMARK       I    between atoms: N_12  and  C_13 
REMARK    5  A    between atoms: C_13  and  C_14 
REMARK    6  A    between atoms: C_14  and  C_15 
REMARK    7  A    between atoms: C_16  and  O_17 
ROOT
HETATM    1  C   UNL     1      40.163 -13.006   5.098  1.00  0.00     0.241 C 
HETATM    2  N   UNL     1      40.556 -13.697   6.226  1.00  0.00    -0.267 N 
HETATM    3  O   UNL     1      39.688 -13.575   4.113  1.00  0.00    -0.271 OA
HETATM    4  H   UNL     1      41.173 -13.292   6.932  1.00  0.00     0.190 HD
ENDROOT
BRANCH   1   5
HETATM    5  C   UNL     1      40.352 -11.506   5.174  1.00  0.00     0.164 C 
BRANCH   5   6
HETATM    6  C   UNL     1      40.484 -11.003   6.575  1.00  0.00     0.051 A 
HETATM    7  C   UNL     1      39.514 -10.422   7.369  1.00  0.00     0.079 A 
HETATM    8  S   UNL     1      40.153 -10.045   8.910  1.00  0.00    -0.079 SA
HETATM    9  C   UNL     1      41.677 -10.701   8.442  1.00  0.00     0.108 A 
HETATM   10  N   UNL     1      41.711 -11.168   7.207  1.00  0.00    -0.244 NA
BRANCH   9  11
HETATM   11  C   UNL     1      42.801 -10.779   9.391  1.00  0.00     0.000 A 
HETATM   12  C   UNL     1      42.631 -10.269  10.691  1.00  0.00     0.021 A 
HETATM   13  C   UNL     1      43.668 -10.309  11.635  1.00  0.00    -0.061 A 
HETATM   14  C   UNL     1      43.485  -9.715  12.999  1.00  0.00     0.048 C 
HETATM   15  C   UNL     1      44.899 -10.863  11.268  1.00  0.00     0.007 A 
HETATM   16  C   UNL     1      45.081 -11.386   9.990  1.00  0.00     0.001 A 
HETATM   17  C   UNL     1      44.040 -11.348   9.059  1.00  0.00     0.014 A 
ENDBRANCH   9  11
ENDBRANCH   5   6
ENDBRANCH   1   5
BRANCH   2  18
HETATM   18  N   UNL     1      40.511 -15.097   6.182  1.00  0.00    -0.267 N 
HETATM   19  C   UNL     1      41.704 -15.789   6.123  1.00  0.00     0.240 C 
HETATM   20  O   UNL     1      42.793 -15.223   6.220  1.00  0.00    -0.272 OA
HETATM   21  H   UNL     1      39.608 -15.517   5.963  1.00  0.00     0.190 HD
BRANCH  19  22
HETATM   22  C   UNL     1      41.552 -17.288   5.972  1.00  0.00     0.146 C 
BRANCH  22  23
HETATM   23  C   UNL     1      42.339 -17.929   4.844  1.00  0.00    -0.016 A 
HETATM   24  C   UNL     1      41.948 -17.680   3.511  1.00  0.00     0.074 A 
HETATM   25  C   UNL     1      42.648 -18.273   2.454  1.00  0.00     0.037 A 
HETATM   26  C   UNL     1      43.738 -19.106   2.709  1.00  0.00     0.003 A 
HETATM   27  C   UNL     1      44.132 -19.354   4.018  1.00  0.00     0.001 A 
HETATM   28  C   UNL     1      43.438 -18.773   5.080  1.00  0.00     0.010 A 
BRANCH  24  29
HETATM   29  O   UNL     1      40.861 -16.857   3.354  1.00  0.00    -0.355 OA
HETATM   30  C   UNL     1      40.321 -16.739   2.042  1.00  0.00     0.210 C 
ENDBRANCH  24  29
ENDBRANCH  22  23
ENDBRANCH  19  22
ENDBRANCH   2  18
TORSDOF 7
ENDMDL
MODEL 7
REMARK VINA RESULT:      -8.2      2.088      2.899
REMARK  7 active torsions:
REMARK  status: ('A' for Active; 'I' for Inactive)
REMARK    1  A    between atoms: C_4  and  C_5 
REMARK    2  A    between atoms: C_8  and  C_9 
REMARK    3  A    between atoms: C_9  and  C_10 
REMARK       I    between atoms: C_10  and  N_11 
REMARK    4  A    between atoms: N_11  and  N_12 
REMARK       I    between atoms: N_12  and  C_13 
REMARK    5  A    between atoms: C_13  and  C_14 
REMARK    6  A    between atoms: C_14  and  C_15 
REMARK    7  A    between atoms: C_16  and  O_17 
ROOT
HETATM    1  C   UNL     1      44.080 -13.665   7.370  1.00  0.00     0.241 C 
HETATM    2  N   UNL     1      44.325 -13.236   8.658  1.00  0.00    -0.267 N 
HETATM    3  O   UNL     1      43.365 -13.029   6.593  1.00  0.00    -0.271 OA
HETATM    4  H   UNL     1      44.692 -13.855   9.384  1.00  0.00     0.190 HD
ENDROOT
BRANCH   1   5
HETATM    5  C   UNL     1      44.764 -14.961   6.991  1.00  0.00     0.164 C 
BRANCH   5   6
HETATM    6  C   UNL     1      43.854 -15.922   6.298  1.00  0.00     0.051 A 
HETATM    7  C   UNL     1      42.487 -15.827   6.119  1.00  0.00     0.079 A 
HETATM    8  S   UNL     1      41.908 -17.168   5.229  1.00  0.00    -0.079 SA
HETATM    9  C   UNL     1      43.513 -17.786   5.110  1.00  0.00     0.108 A 
HETATM   10  N   UNL     1      44.428 -17.040   5.704  1.00  0.00    -0.244 NA
BRANCH   9  11
HETATM   11  C   UNL     1      43.807 -19.009   4.343  1.00  0.00     0.000 A 
HETATM   12  C   UNL     1      44.349 -20.120   5.013  1.00  0.00     0.021 A 
HETATM   13  C   UNL     1      44.655 -21.308   4.333  1.00  0.00    -0.061 A 
HETATM   14  C   UNL     1      45.279 -22.464   5.055  1.00  0.00     0.048 C 
HETATM   15  C   UNL     1      44.421 -21.381   2.956  1.00  0.00     0.007 A 
HETATM   16  C   UNL     1      43.871 -20.296   2.278  1.00  0.00     0.001 A 
HETATM   17  C   UNL     1      43.563 -19.120   2.966  1.00  0.00     0.014 A 
ENDBRANCH   9  11
ENDBRANCH   5   6
ENDBRANCH   1   5
BRANCH   2  18
HETATM   18  N   UNL     1      43.638 -12.102   9.111  1.00  0.00    -0.267 N 
HETATM   19  C   UNL     1      44.375 -11.005   9.510  1.00  0.00     0.240 C 
HETATM   20  O   UNL     1      45.598 -10.957   9.378  1.00  0.00    -0.272 OA
HETATM   21  H   UNL     1      42.651 -12.227   9.338  1.00  0.00     0.190 HD
BRANCH  19  22
HETATM   22  C   UNL     1      43.550  -9.871  10.081  1.00  0.00     0.146 C 
BRANCH  22  23
HETATM   23  C   UNL     1      42.799 -10.170  11.365  1.00  0.00    -0.016 A 
HETATM   24  C   UNL     1      41.423 -10.473  11.295  1.00  0.00     0.074 A 
HETATM   25  C   UNL     1      40.704 -10.737  12.467  1.00  0.00     0.037 A 
HETATM   26  C   UNL     1      41.342 -10.710  13.708  1.00  0.00     0.003 A 
HETATM   27  C   UNL     1      42.698 -10.416  13.786  1.00  0.00     0.001 A 
HETATM   28  C   UNL     1      43.423 -10.146  12.624  1.00  0.00     0.010 A 
BRANCH  24  29
HETATM   29  O   UNL     1      40.875 -10.469  10.037  1.00  0.00    -0.355 OA
HETATM   30  C   UNL     1      39.700 -11.247   9.838  1.00  0.00     0.210 C 
ENDBRANCH  24  29
ENDBRANCH  22  23
ENDBRANCH  19  22
ENDBRANCH   2  18
TORSDOF 7
ENDMDL
MODEL 8
REMARK VINA RESULT:      -8.0      4.091      8.303
REMARK  7 active torsions:
REMARK  status: ('A' for Active; 'I' for Inactive)
REMARK    1  A    between atoms: C_4  and  C_5 
REMARK    2  A    between atoms: C_8  and  C_9 
REMARK    3  A    between atoms: C_9  and  C_10 
REMARK       I    between atoms: C_10  and  N_11 
REMARK    4  A    between atoms: N_11  and  N_12 
REMARK       I    between atoms: N_12  and  C_13 
REMARK    5  A    between atoms: C_13  and  C_14 
REMARK    6  A    between atoms: C_14  and  C_15 
REMARK    7  A    between atoms: C_16  and  O_17 
ROOT
HETATM    1  C   UNL     1      40.127 -14.208   2.771  1.00  0.00     0.241 C 
HETATM    2  N   UNL     1      39.961 -15.441   2.174  1.00  0.00    -0.267 N 
HETATM    3  O   UNL     1      40.209 -13.168   2.114  1.00  0.00    -0.271 OA
HETATM    4  H   UNL     1      40.144 -16.319   2.665  1.00  0.00     0.190 HD
ENDROOT
BRANCH   1   5
HETATM    5  C   UNL     1      40.188 -14.237   4.284  1.00  0.00     0.164 C 
BRANCH   5   6
HETATM    6  C   UNL     1      41.456 -14.830   4.807  1.00  0.00     0.051 A 
HETATM    7  C   UNL     1      42.302 -14.319   5.773  1.00  0.00     0.079 A 
HETATM    8  S   UNL     1      43.607 -15.389   6.047  1.00  0.00    -0.079 SA
HETATM    9  C   UNL     1      42.958 -16.484   4.883  1.00  0.00     0.108 A 
HETATM   10  N   UNL     1      41.837 -16.074   4.318  1.00  0.00    -0.244 NA
BRANCH   9  11
HETATM   11  C   UNL     1      43.594 -17.787   4.621  1.00  0.00     0.000 A 
HETATM   12  C   UNL     1      43.316 -18.450   3.413  1.00  0.00     0.021 A 
HETATM   13  C   UNL     1      43.886 -19.696   3.113  1.00  0.00    -0.061 A 
HETATM   14  C   UNL     1      43.538 -20.411   1.842  1.00  0.00     0.048 C 
HETATM   15  C   UNL     1      44.745 -20.291   4.043  1.00  0.00     0.007 A 
HETATM   16  C   UNL     1      45.044 -19.642   5.239  1.00  0.00     0.001 A 
HETATM   17  C   UNL     1      44.476 -18.398   5.525  1.00  0.00     0.014 A 
ENDBRANCH   9  11
ENDBRANCH   5   6
ENDBRANCH   1   5
BRANCH   2  18
HETATM   18  N   UNL     1      40.005 -15.500   0.775  1.00  0.00    -0.267 N 
HETATM   19  C   UNL     1      41.204 -15.821   0.171  1.00  0.00     0.240 C 
HETATM   20  O   UNL     1      42.193 -16.160   0.821  1.00  0.00    -0.272 OA
HETATM   21  H   UNL     1      39.220 -15.081   0.276  1.00  0.00     0.190 HD
BRANCH  19  22
HETATM   22  C   UNL     1      41.181 -15.756  -1.342  1.00  0.00     0.146 C 
BRANCH  22  23
HETATM   23  C   UNL     1      41.357 -14.379  -1.955  1.00  0.00    -0.016 A 
HETATM   24  C   UNL     1      40.887 -14.150  -3.265  1.00  0.00     0.074 A 
HETATM   25  C   UNL     1      41.052 -12.894  -3.859  1.00  0.00     0.037 A 
HETATM   26  C   UNL     1      41.673 -11.858  -3.159  1.00  0.00     0.003 A 
HETATM   27  C   UNL     1      42.135 -12.073  -1.866  1.00  0.00     0.001 A 
HETATM   28  C   UNL     1      41.981 -13.325  -1.267  1.00  0.00     0.010 A 
BRANCH  24  29
HETATM   29  O   UNL     1      40.297 -15.225  -3.882  1.00  0.00    -0.355 OA
HETATM   30  C   UNL     1      38.875 -15.243  -3.935  1.00  0.00     0.210 C 
ENDBRANCH  24  29
ENDBRANCH  22  23
ENDBRANCH  19  22
ENDBRANCH   2  18
TORSDOF 7
ENDMDL
MODEL 9
REMARK VINA RESULT:      -8.0      4.705      8.790
REMARK  7 active torsions:
REMARK  status: ('A' for Active; 'I' for Inactive)
REMARK    1  A    between atoms: C_4  and  C_5 
REMARK    2  A    between atoms: C_8  and  C_9 
REMARK    3  A    between atoms: C_9  and  C_10 
REMARK       I    between atoms: C_10  and  N_11 
REMARK    4  A    between atoms: N_11  and  N_12 
REMARK       I    between atoms: N_12  and  C_13 
REMARK    5  A    between atoms: C_13  and  C_14 
REMARK    6  A    between atoms: C_14  and  C_15 
REMARK    7  A    between atoms: C_16  and  O_17 
ROOT
HETATM    1  C   UNL     1      39.950 -13.945   1.591  1.00  0.00     0.241 C 
HETATM    2  N   UNL     1      39.530 -14.973   0.771  1.00  0.00    -0.267 N 
HETATM    3  O   UNL     1      40.443 -12.909   1.140  1.00  0.00    -0.271 OA
HETATM    4  H   UNL     1      39.362 -15.920   1.118  1.00  0.00     0.190 HD
ENDROOT
BRANCH   1   5
HETATM    5  C   UNL     1      39.748 -14.189   3.071  1.00  0.00     0.164 C 
BRANCH   5   6
HETATM    6  C   UNL     1      40.877 -14.936   3.701  1.00  0.00     0.051 A 
HETATM    7  C   UNL     1      41.529 -14.657   4.887  1.00  0.00     0.079 A 
HETATM    8  S   UNL     1      42.735 -15.830   5.194  1.00  0.00    -0.079 SA
HETATM    9  C   UNL     1      42.303 -16.658   3.744  1.00  0.00     0.108 A 
HETATM   10  N   UNL     1      41.322 -16.090   3.067  1.00  0.00    -0.244 NA
BRANCH   9  11
HETATM   11  C   UNL     1      42.952 -17.925   3.365  1.00  0.00     0.000 A 
HETATM   12  C   UNL     1      43.550 -18.711   4.366  1.00  0.00     0.021 A 
HETATM   13  C   UNL     1      44.188 -19.922   4.063  1.00  0.00    -0.061 A 
HETATM   14  C   UNL     1      44.865 -20.721   5.136  1.00  0.00     0.048 C 
HETATM   15  C   UNL     1      44.234 -20.351   2.732  1.00  0.00     0.007 A 
HETATM   16  C   UNL     1      43.634 -19.594   1.729  1.00  0.00     0.001 A 
HETATM   17  C   UNL     1      42.995 -18.391   2.043  1.00  0.00     0.014 A 
ENDBRANCH   9  11
ENDBRANCH   5   6
ENDBRANCH   1   5
BRANCH   2  18
HETATM   18  N   UNL     1      39.787 -14.860  -0.602  1.00  0.00    -0.267 N 
HETATM   19  C   UNL     1      40.869 -15.540  -1.123  1.00  0.00     0.240 C 
HETATM   20  O   UNL     1      41.539 -16.321  -0.446  1.00  0.00    -0.272 OA
HETATM   21  H   UNL     1      39.308 -14.107  -1.095  1.00  0.00     0.190 HD
BRANCH  19  22
HETATM   22  C   UNL     1      41.129 -15.273  -2.591  1.00  0.00     0.146 C 
BRANCH  22  23
HETATM   23  C   UNL     1      41.251 -13.815  -2.994  1.00  0.00    -0.016 A 
HETATM   24  C   UNL     1      40.122 -13.158  -3.528  1.00  0.00     0.074 A 
HETATM   25  C   UNL     1      40.214 -11.819  -3.922  1.00  0.00     0.037 A 
HETATM   26  C   UNL     1      41.415 -11.122  -3.783  1.00  0.00     0.003 A 
HETATM   27  C   UNL     1      42.531 -11.760  -3.254  1.00  0.00     0.001 A 
HETATM   28  C   UNL     1      42.452 -13.097  -2.864  1.00  0.00     0.010 A 
BRANCH  24  29
HETATM   29  O   UNL     1      38.986 -13.920  -3.637  1.00  0.00    -0.355 OA
HETATM   30  C   UNL     1      37.759 -13.316  -3.246  1.00  0.00     0.210 C 
ENDBRANCH  24  29
ENDBRANCH  22  23
ENDBRANCH  19  22
ENDBRANCH   2  18
TORSDOF 7
ENDMDL
MODEL 10
REMARK VINA RESULT:      -7.9      2.889      9.453
REMARK  7 active torsions:
REMARK  status: ('A' for Active; 'I' for Inactive)
REMARK    1  A    between atoms: C_4  and  C_5 
REMARK    2  A    between atoms: C_8  and  C_9 
REMARK    3  A    between atoms: C_9  and  C_10 
REMARK       I    between atoms: C_10  and  N_11 
REMARK    4  A    between atoms: N_11  and  N_12 
REMARK       I    between atoms: N_12  and  C_13 
REMARK    5  A    between atoms: C_13  and  C_14 
REMARK    6  A    between atoms: C_14  and  C_15 
REMARK    7  A    between atoms: C_16  and  O_17 
ROOT
HETATM    1  C   UNL     1      40.965 -12.302   5.425  1.00  0.00     0.241 C 
HETATM    2  N   UNL     1      41.134 -13.442   6.184  1.00  0.00    -0.267 N 
HETATM    3  O   UNL     1      41.694 -12.040   4.465  1.00  0.00    -0.271 OA
HETATM    4  H   UNL     1      40.721 -13.550   7.113  1.00  0.00     0.190 HD
ENDROOT
BRANCH   1   5
HETATM    5  C   UNL     1      39.816 -11.415   5.856  1.00  0.00     0.164 C 
BRANCH   5   6
HETATM    6  C   UNL     1      40.061 -10.733   7.162  1.00  0.00     0.051 A 
HETATM    7  C   UNL     1      39.204  -9.913   7.871  1.00  0.00     0.079 A 
HETATM    8  S   UNL     1      39.938  -9.403   9.329  1.00  0.00    -0.079 SA
HETATM    9  C   UNL     1      41.344 -10.325   8.946  1.00  0.00     0.108 A 
HETATM   10  N   UNL     1      41.275 -10.970   7.796  1.00  0.00    -0.244 NA
BRANCH   9  11
HETATM   11  C   UNL     1      42.478 -10.413   9.882  1.00  0.00     0.000 A 
HETATM   12  C   UNL     1      42.325  -9.914  11.188  1.00  0.00     0.021 A 
HETATM   13  C   UNL     1      43.372  -9.965  12.119  1.00  0.00    -0.061 A 
HETATM   14  C   UNL     1      43.207  -9.380  13.490  1.00  0.00     0.048 C 
HETATM   15  C   UNL     1      44.597 -10.520  11.734  1.00  0.00     0.007 A 
HETATM   16  C   UNL     1      44.763 -11.034  10.450  1.00  0.00     0.001 A 
HETATM   17  C   UNL     1      43.711 -10.984   9.532  1.00  0.00     0.014 A 
ENDBRANCH   9  11
ENDBRANCH   5   6
ENDBRANCH   1   5
BRANCH   2  18
HETATM   18  N   UNL     1      42.244 -14.251   5.909  1.00  0.00    -0.267 N 
HETATM   19  C   UNL     1      42.023 -15.517   5.407  1.00  0.00     0.240 C 
HETATM   20  O   UNL     1      40.898 -15.910   5.096  1.00  0.00    -0.272 OA
HETATM   21  H   UNL     1      43.136 -13.953   6.306  1.00  0.00     0.190 HD
BRANCH  19  22
HETATM   22  C   UNL     1      43.275 -16.353   5.242  1.00  0.00     0.146 C 
BRANCH  22  23
HETATM   23  C   UNL     1      43.416 -17.093   3.925  1.00  0.00    -0.016 A 
HETATM   24  C   UNL     1      43.427 -18.504   3.932  1.00  0.00     0.074 A 
HETATM   25  C   UNL     1      43.573 -19.209   2.732  1.00  0.00     0.037 A 
HETATM   26  C   UNL     1      43.700 -18.524   1.522  1.00  0.00     0.003 A 
HETATM   27  C   UNL     1      43.686 -17.135   1.505  1.00  0.00     0.001 A 
HETATM   28  C   UNL     1      43.548 -16.422   2.697  1.00  0.00     0.010 A 
BRANCH  24  29
HETATM   29  O   UNL     1      43.306 -19.094   5.165  1.00  0.00    -0.355 OA
HETATM   30  C   UNL     1      44.395 -19.893   5.612  1.00  0.00     0.210 C 
ENDBRANCH  24  29
ENDBRANCH  22  23
ENDBRANCH  19  22
ENDBRANCH   2  18
TORSDOF 7
ENDMDL
