MODEL 1
REMARK VINA RESULT:     -10.1      0.000      0.000
REMARK  6 active torsions:
REMARK  status: ('A' for Active; 'I' for Inactive)
REMARK    1  A    between atoms: C_4  and  C_5 
REMARK    2  A    between atoms: C_6  and  N_7 
REMARK    3  A    between atoms: C_9  and  C_10 
REMARK       I    between atoms: C_10  and  N_11 
REMARK    4  A    between atoms: N_11  and  C_12 
REMARK    5  A    between atoms: C_12  and  C_13 
REMARK    6  A    between atoms: C_13  and  N_14 
ROOT
HETATM    1  C   UNL     1      43.142 -18.217   4.597  1.00  0.00     0.019 A 
HETATM    2  C   UNL     1      42.890 -17.432   5.686  1.00  0.00     0.111 A 
HETATM    3  C   UNL     1      43.204 -18.019   7.074  1.00  0.00     0.273 A 
HETATM    4  O   UNL     1      43.022 -17.399   8.120  1.00  0.00    -0.266 OA
HETATM    5  N   UNL     1      43.717 -19.278   7.147  1.00  0.00    -0.321 N 
HETATM    6  C   UNL     1      43.979 -20.079   6.046  1.00  0.00     0.046 A 
HETATM    7  C   UNL     1      43.713 -19.588   4.767  1.00  0.00     0.006 A 
HETATM    8  C   UNL     1      44.512 -21.355   6.247  1.00  0.00     0.032 A 
HETATM    9  C   UNL     1      44.795 -22.167   5.151  1.00  0.00     0.026 A 
HETATM   10  C   UNL     1      44.541 -21.695   3.868  1.00  0.00     0.035 A 
HETATM   11 CL   UNL     1      44.896 -22.686   2.508  1.00  0.00    -0.084 Cl
HETATM   12  C   UNL     1      44.005 -20.419   3.672  1.00  0.00     0.038 A 
HETATM   13  H   UNL     1      43.891 -19.619   8.084  1.00  0.00     0.169 HD
ENDROOT
BRANCH   2  14
HETATM   14  N   UNL     1      42.341 -16.105   5.634  1.00  0.00    -0.375 N 
HETATM   15  C   UNL     1      43.211 -14.933   5.941  1.00  0.00     0.137 C 
HETATM   16  C   UNL     1      42.623 -13.633   5.386  1.00  0.00     0.096 C 
HETATM   17  C   UNL     1      41.127 -13.458   5.677  1.00  0.00     0.017 C 
HETATM   18  C   UNL     1      40.313 -14.744   5.555  1.00  0.00     0.021 C 
HETATM   19  C   UNL     1      41.008 -15.904   6.258  1.00  0.00     0.123 C 
BRANCH  16  20
HETATM   20  C   UNL     1      42.957 -13.462   3.915  1.00  0.00     0.223 C 
HETATM   21  N   UNL     1      41.921 -13.155   3.076  1.00  0.00    -0.359 N 
HETATM   22  H   UNL     1      41.002 -13.086   3.524  1.00  0.00     0.162 HD
HETATM   23  O   UNL     1      44.098 -13.637   3.483  1.00  0.00    -0.273 OA
BRANCH  21  24
HETATM   24  C   UNL     1      42.026 -12.671   1.702  1.00  0.00     0.150 C 
BRANCH  24  25
HETATM   25  C   UNL     1      40.921 -13.036   0.684  1.00  0.00     0.254 C 
BRANCH  25  26
HETATM   26  N   UNL     1      41.459 -13.502  -0.646  1.00  0.00    -0.066 N 
HETATM   27  H   UNL     1      42.258 -14.111  -0.380  1.00  0.00     0.280 HD
HETATM   28  C   UNL     1      40.497 -14.305  -1.494  1.00  0.00     0.261 C 
HETATM   29  C   UNL     1      41.194 -14.757  -2.782  1.00  0.00     0.195 C 
HETATM   30  O   UNL     1      41.720 -13.638  -3.505  1.00  0.00    -0.388 OA
HETATM   31  C   UNL     1      42.697 -12.929  -2.733  1.00  0.00     0.195 C 
HETATM   32  C   UNL     1      42.074 -12.369  -1.449  1.00  0.00     0.261 C 
ENDBRANCH  25  26
ENDBRANCH  24  25
ENDBRANCH  21  24
ENDBRANCH  16  20
ENDBRANCH   2  14
BRANCH   1  33
HETATM   33  C   UNL     1      42.881 -17.671   3.236  1.00  0.00    -0.023 A 
HETATM   34  C   UNL     1      43.945 -17.397   2.370  1.00  0.00     0.012 A 
HETATM   35  C   UNL     1      43.700 -16.946   1.071  1.00  0.00     0.001 A 
HETATM   36  C   UNL     1      42.388 -16.777   0.627  1.00  0.00     0.000 A 
HETATM   37  C   UNL     1      41.322 -17.075   1.473  1.00  0.00     0.001 A 
HETATM   38  C   UNL     1      41.566 -17.532   2.769  1.00  0.00     0.012 A 
ENDBRANCH   1  33
TORSDOF 6
ENDMDL
MODEL 2
REMARK VINA RESULT:      -9.9      2.429      3.871
REMARK  6 active torsions:
REMARK  status: ('A' for Active; 'I' for Inactive)
REMARK    1  A    between atoms: C_4  and  C_5 
REMARK    2  A    between atoms: C_6  and  N_7 
REMARK    3  A    between atoms: C_9  and  C_10 
REMARK       I    between atoms: C_10  and  N_11 
REMARK    4  A    between atoms: N_11  and  C_12 
REMARK    5  A    between atoms: C_12  and  C_13 
REMARK    6  A    between atoms: C_13  and  N_14 
ROOT
HETATM    1  C   UNL     1      43.146 -17.964   3.807  1.00  0.00     0.019 A 
HETATM    2  C   UNL     1      42.567 -17.186   2.846  1.00  0.00     0.111 A 
HETATM    3  C   UNL     1      42.445 -17.777   1.430  1.00  0.00     0.273 A 
HETATM    4  O   UNL     1      41.936 -17.166   0.491  1.00  0.00    -0.266 OA
HETATM    5  N   UNL     1      42.913 -19.035   1.207  1.00  0.00    -0.321 N 
HETATM    6  C   UNL     1      43.499 -19.833   2.178  1.00  0.00     0.046 A 
HETATM    7  C   UNL     1      43.627 -19.341   3.478  1.00  0.00     0.006 A 
HETATM    8  C   UNL     1      43.937 -21.114   1.831  1.00  0.00     0.032 A 
HETATM    9  C   UNL     1      44.514 -21.934   2.798  1.00  0.00     0.026 A 
HETATM   10  C   UNL     1      44.648 -21.463   4.100  1.00  0.00     0.035 A 
HETATM   11 CL   UNL     1      45.351 -22.472   5.303  1.00  0.00    -0.084 Cl
HETATM   12  C   UNL     1      44.212 -20.181   4.442  1.00  0.00     0.038 A 
HETATM   13  H   UNL     1      42.820 -19.369   0.255  1.00  0.00     0.169 HD
ENDROOT
BRANCH   2  14
HETATM   14  N   UNL     1      42.074 -15.852   3.054  1.00  0.00    -0.375 N 
HETATM   15  C   UNL     1      43.035 -14.712   3.122  1.00  0.00     0.137 C 
HETATM   16  C   UNL     1      42.339 -13.373   2.868  1.00  0.00     0.096 C 
HETATM   17  C   UNL     1      41.029 -13.199   3.648  1.00  0.00     0.017 C 
HETATM   18  C   UNL     1      40.179 -14.465   3.730  1.00  0.00     0.021 C 
HETATM   19  C   UNL     1      41.029 -15.677   4.095  1.00  0.00     0.123 C 
BRANCH  16  20
HETATM   20  C   UNL     1      42.174 -13.110   1.382  1.00  0.00     0.223 C 
HETATM   21  N   UNL     1      41.793 -14.169   0.604  1.00  0.00    -0.359 N 
HETATM   22  H   UNL     1      41.671 -15.056   1.104  1.00  0.00     0.162 HD
HETATM   23  O   UNL     1      42.416 -12.008   0.886  1.00  0.00    -0.273 OA
BRANCH  21  24
HETATM   24  C   UNL     1      41.303 -14.110  -0.770  1.00  0.00     0.150 C 
BRANCH  24  25
HETATM   25  C   UNL     1      39.820 -13.760  -1.031  1.00  0.00     0.254 C 
BRANCH  25  26
HETATM   26  N   UNL     1      39.144 -14.693  -2.005  1.00  0.00    -0.066 N 
HETATM   27  H   UNL     1      38.881 -15.506  -1.413  1.00  0.00     0.280 HD
HETATM   28  C   UNL     1      37.898 -14.152  -2.670  1.00  0.00     0.261 C 
HETATM   29  C   UNL     1      37.290 -15.223  -3.583  1.00  0.00     0.195 C 
HETATM   30  O   UNL     1      38.243 -15.677  -4.551  1.00  0.00    -0.388 OA
HETATM   31  C   UNL     1      39.385 -16.270  -3.921  1.00  0.00     0.195 C 
HETATM   32  C   UNL     1      40.111 -15.250  -3.036  1.00  0.00     0.261 C 
ENDBRANCH  25  26
ENDBRANCH  24  25
ENDBRANCH  21  24
ENDBRANCH  16  20
ENDBRANCH   2  14
BRANCH   1  33
HETATM   33  C   UNL     1      43.253 -17.439   5.196  1.00  0.00    -0.023 A 
HETATM   34  C   UNL     1      42.298 -17.789   6.158  1.00  0.00     0.012 A 
HETATM   35  C   UNL     1      42.431 -17.350   7.477  1.00  0.00     0.001 A 
HETATM   36  C   UNL     1      43.525 -16.567   7.845  1.00  0.00     0.000 A 
HETATM   37  C   UNL     1      44.495 -16.237   6.901  1.00  0.00     0.001 A 
HETATM   38  C   UNL     1      44.367 -16.682   5.584  1.00  0.00     0.012 A 
ENDBRANCH   1  33
TORSDOF 6
ENDMDL
MODEL 3
REMARK VINA RESULT:      -9.9      0.993      1.521
REMARK  6 active torsions:
REMARK  status: ('A' for Active; 'I' for Inactive)
REMARK    1  A    between atoms: C_4  and  C_5 
REMARK    2  A    between atoms: C_6  and  N_7 
REMARK    3  A    between atoms: C_9  and  C_10 
REMARK       I    between atoms: C_10  and  N_11 
REMARK    4  A    between atoms: N_11  and  C_12 
REMARK    5  A    between atoms: C_12  and  C_13 
REMARK    6  A    between atoms: C_13  and  N_14 
ROOT
HETATM    1  C   UNL     1      43.019 -17.786   3.900  1.00  0.00     0.019 A 
HETATM    2  C   UNL     1      43.074 -17.019   5.029  1.00  0.00     0.111 A 
HETATM    3  C   UNL     1      43.816 -17.598   6.247  1.00  0.00     0.273 A 
HETATM    4  O   UNL     1      43.931 -16.991   7.311  1.00  0.00    -0.266 OA
HETATM    5  N   UNL     1      44.377 -18.833   6.141  1.00  0.00    -0.321 N 
HETATM    6  C   UNL     1      44.329 -19.616   4.998  1.00  0.00     0.046 A 
HETATM    7  C   UNL     1      43.670 -19.131   3.866  1.00  0.00     0.006 A 
HETATM    8  C   UNL     1      44.950 -20.868   5.006  1.00  0.00     0.032 A 
HETATM    9  C   UNL     1      44.923 -21.662   3.862  1.00  0.00     0.026 A 
HETATM   10  C   UNL     1      44.275 -21.195   2.722  1.00  0.00     0.035 A 
HETATM   11 CL   UNL     1      44.245 -22.164   1.302  1.00  0.00    -0.084 Cl
HETATM   12  C   UNL     1      43.653 -19.944   2.720  1.00  0.00     0.038 A 
HETATM   13  H   UNL     1      44.840 -19.170   6.976  1.00  0.00     0.169 HD
ENDROOT
BRANCH   2  14
HETATM   14  N   UNL     1      42.480 -15.717   5.168  1.00  0.00    -0.375 N 
HETATM   15  C   UNL     1      43.355 -14.511   5.243  1.00  0.00     0.137 C 
HETATM   16  C   UNL     1      42.582 -13.232   4.910  1.00  0.00     0.096 C 
HETATM   17  C   UNL     1      41.225 -13.128   5.619  1.00  0.00     0.017 C 
HETATM   18  C   UNL     1      40.462 -14.449   5.703  1.00  0.00     0.021 C 
HETATM   19  C   UNL     1      41.374 -15.585   6.150  1.00  0.00     0.123 C 
BRANCH  16  20
HETATM   20  C   UNL     1      42.474 -13.028   3.409  1.00  0.00     0.223 C 
HETATM   21  N   UNL     1      41.402 -12.309   2.957  1.00  0.00    -0.359 N 
HETATM   22  H   UNL     1      40.756 -11.986   3.683  1.00  0.00     0.162 HD
HETATM   23  O   UNL     1      43.286 -13.527   2.626  1.00  0.00    -0.273 OA
BRANCH  21  24
HETATM   24  C   UNL     1      41.232 -11.746   1.620  1.00  0.00     0.150 C 
BRANCH  24  25
HETATM   25  C   UNL     1      40.233 -12.405   0.642  1.00  0.00     0.254 C 
BRANCH  25  26
HETATM   26  N   UNL     1      40.721 -12.439  -0.785  1.00  0.00    -0.066 N 
HETATM   27  H   UNL     1      40.560 -11.467  -1.115  1.00  0.00     0.280 HD
HETATM   28  C   UNL     1      42.185 -12.777  -0.966  1.00  0.00     0.261 C 
HETATM   29  C   UNL     1      42.550 -12.717  -2.453  1.00  0.00     0.195 C 
HETATM   30  O   UNL     1      41.714 -13.586  -3.225  1.00  0.00    -0.388 OA
HETATM   31  C   UNL     1      40.335 -13.211  -3.123  1.00  0.00     0.195 C 
HETATM   32  C   UNL     1      39.849 -13.310  -1.673  1.00  0.00     0.261 C 
ENDBRANCH  25  26
ENDBRANCH  24  25
ENDBRANCH  21  24
ENDBRANCH  16  20
ENDBRANCH   2  14
BRANCH   1  33
HETATM   33  C   UNL     1      42.337 -17.247   2.691  1.00  0.00    -0.023 A 
HETATM   34  C   UNL     1      40.952 -17.051   2.690  1.00  0.00     0.012 A 
HETATM   35  C   UNL     1      40.319 -16.486   1.581  1.00  0.00     0.001 A 
HETATM   36  C   UNL     1      41.070 -16.102   0.470  1.00  0.00     0.000 A 
HETATM   37  C   UNL     1      42.453 -16.267   0.473  1.00  0.00     0.001 A 
HETATM   38  C   UNL     1      43.087 -16.825   1.584  1.00  0.00     0.012 A 
ENDBRANCH   1  33
TORSDOF 6
ENDMDL
MODEL 4
REMARK VINA RESULT:      -9.3      1.482      1.815
REMARK  6 active torsions:
REMARK  status: ('A' for Active; 'I' for Inactive)
REMARK    1  A    between atoms: C_4  and  C_5 
REMARK    2  A    between atoms: C_6  and  N_7 
REMARK    3  A    between atoms: C_9  and  C_10 
REMARK       I    between atoms: C_10  and  N_11 
REMARK    4  A    between atoms: N_11  and  C_12 
REMARK    5  A    between atoms: C_12  and  C_13 
REMARK    6  A    between atoms: C_13  and  N_14 
ROOT
HETATM    1  C   UNL     1      42.986 -17.817   3.977  1.00  0.00     0.019 A 
HETATM    2  C   UNL     1      43.000 -17.054   5.110  1.00  0.00     0.111 A 
HETATM    3  C   UNL     1      43.701 -17.636   6.351  1.00  0.00     0.273 A 
HETATM    4  O   UNL     1      43.778 -17.032   7.420  1.00  0.00    -0.266 OA
HETATM    5  N   UNL     1      44.268 -18.869   6.259  1.00  0.00    -0.321 N 
HETATM    6  C   UNL     1      44.261 -19.648   5.112  1.00  0.00     0.046 A 
HETATM    7  C   UNL     1      43.641 -19.160   3.961  1.00  0.00     0.006 A 
HETATM    8  C   UNL     1      44.884 -20.899   5.138  1.00  0.00     0.032 A 
HETATM    9  C   UNL     1      44.898 -21.688   3.990  1.00  0.00     0.026 A 
HETATM   10  C   UNL     1      44.289 -21.219   2.831  1.00  0.00     0.035 A 
HETATM   11 CL   UNL     1      44.309 -22.182   1.406  1.00  0.00    -0.084 Cl
HETATM   12  C   UNL     1      43.664 -19.969   2.811  1.00  0.00     0.038 A 
HETATM   13  H   UNL     1      44.703 -19.209   7.108  1.00  0.00     0.169 HD
ENDROOT
BRANCH   2  14
HETATM   14  N   UNL     1      42.399 -15.753   5.233  1.00  0.00    -0.375 N 
HETATM   15  C   UNL     1      43.264 -14.560   5.464  1.00  0.00     0.137 C 
HETATM   16  C   UNL     1      42.541 -13.261   5.097  1.00  0.00     0.096 C 
HETATM   17  C   UNL     1      41.110 -13.175   5.642  1.00  0.00     0.017 C 
HETATM   18  C   UNL     1      40.337 -14.490   5.577  1.00  0.00     0.021 C 
HETATM   19  C   UNL     1      41.184 -15.653   6.080  1.00  0.00     0.123 C 
BRANCH  16  20
HETATM   20  C   UNL     1      42.615 -12.993   3.604  1.00  0.00     0.223 C 
HETATM   21  N   UNL     1      41.634 -12.206   3.067  1.00  0.00    -0.359 N 
HETATM   22  H   UNL     1      40.923 -11.881   3.729  1.00  0.00     0.162 HD
HETATM   23  O   UNL     1      43.489 -13.497   2.896  1.00  0.00    -0.273 OA
BRANCH  21  24
HETATM   24  C   UNL     1      41.642 -11.582   1.746  1.00  0.00     0.150 C 
BRANCH  24  25
HETATM   25  C   UNL     1      41.530 -12.472   0.487  1.00  0.00     0.254 C 
BRANCH  25  26
HETATM   26  N   UNL     1      41.614 -11.700  -0.805  1.00  0.00    -0.066 N 
HETATM   27  H   UNL     1      41.840 -12.432  -1.507  1.00  0.00     0.280 HD
HETATM   28  C   UNL     1      40.343 -10.996  -1.229  1.00  0.00     0.261 C 
HETATM   29  C   UNL     1      40.559 -10.305  -2.580  1.00  0.00     0.195 C 
HETATM   30  O   UNL     1      41.665  -9.396  -2.524  1.00  0.00    -0.388 OA
HETATM   31  C   UNL     1      42.885 -10.078  -2.208  1.00  0.00     0.195 C 
HETATM   32  C   UNL     1      42.796 -10.746  -0.832  1.00  0.00     0.261 C 
ENDBRANCH  25  26
ENDBRANCH  24  25
ENDBRANCH  21  24
ENDBRANCH  16  20
ENDBRANCH   2  14
BRANCH   1  33
HETATM   33  C   UNL     1      42.345 -17.274   2.747  1.00  0.00    -0.023 A 
HETATM   34  C   UNL     1      40.952 -17.170   2.664  1.00  0.00     0.012 A 
HETATM   35  C   UNL     1      40.352 -16.602   1.538  1.00  0.00     0.001 A 
HETATM   36  C   UNL     1      41.143 -16.125   0.493  1.00  0.00     0.000 A 
HETATM   37  C   UNL     1      42.531 -16.200   0.578  1.00  0.00     0.001 A 
HETATM   38  C   UNL     1      43.131 -16.760   1.706  1.00  0.00     0.012 A 
ENDBRANCH   1  33
TORSDOF 6
ENDMDL
MODEL 5
REMARK VINA RESULT:      -8.8      3.738      7.911
REMARK  6 active torsions:
REMARK  status: ('A' for Active; 'I' for Inactive)
REMARK    1  A    between atoms: C_4  and  C_5 
REMARK    2  A    between atoms: C_6  and  N_7 
REMARK    3  A    between atoms: C_9  and  C_10 
REMARK       I    between atoms: C_10  and  N_11 
REMARK    4  A    between atoms: N_11  and  C_12 
REMARK    5  A    between atoms: C_12  and  C_13 
REMARK    6  A    between atoms: C_13  and  N_14 
ROOT
HETATM    1  C   UNL     1      41.410 -15.544   2.003  1.00  0.00     0.019 A 
HETATM    2  C   UNL     1      41.124 -14.997   3.221  1.00  0.00     0.111 A 
HETATM    3  C   UNL     1      40.152 -13.804   3.255  1.00  0.00     0.273 A 
HETATM    4  O   UNL     1      39.821 -13.239   4.296  1.00  0.00    -0.266 OA
HETATM    5  N   UNL     1      39.626 -13.360   2.080  1.00  0.00    -0.321 N 
HETATM    6  C   UNL     1      39.908 -13.913   0.841  1.00  0.00     0.046 A 
HETATM    7  C   UNL     1      40.782 -14.998   0.761  1.00  0.00     0.006 A 
HETATM    8  C   UNL     1      39.301 -13.373  -0.297  1.00  0.00     0.032 A 
HETATM    9  C   UNL     1      39.563 -13.926  -1.548  1.00  0.00     0.026 A 
HETATM   10  C   UNL     1      40.428 -15.011  -1.649  1.00  0.00     0.035 A 
HETATM   11 CL   UNL     1      40.749 -15.706  -3.189  1.00  0.00    -0.084 Cl
HETATM   12  C   UNL     1      41.034 -15.544  -0.509  1.00  0.00     0.038 A 
HETATM   13  H   UNL     1      39.004 -12.565   2.159  1.00  0.00     0.169 HD
ENDROOT
BRANCH   2  14
HETATM   14  N   UNL     1      41.674 -15.442   4.473  1.00  0.00    -0.375 N 
HETATM   15  C   UNL     1      43.154 -15.517   4.644  1.00  0.00     0.137 C 
HETATM   16  C   UNL     1      43.550 -15.539   6.122  1.00  0.00     0.096 C 
HETATM   17  C   UNL     1      42.721 -16.512   6.970  1.00  0.00     0.017 C 
HETATM   18  C   UNL     1      41.239 -16.552   6.605  1.00  0.00     0.021 C 
HETATM   19  C   UNL     1      41.045 -16.634   5.096  1.00  0.00     0.123 C 
BRANCH  16  20
HETATM   20  C   UNL     1      43.581 -14.137   6.704  1.00  0.00     0.223 C 
HETATM   21  N   UNL     1      44.332 -13.950   7.832  1.00  0.00    -0.359 N 
HETATM   22  H   UNL     1      44.796 -14.790   8.191  1.00  0.00     0.162 HD
HETATM   23  O   UNL     1      42.923 -13.216   6.215  1.00  0.00    -0.273 OA
BRANCH  21  24
HETATM   24  C   UNL     1      44.743 -12.671   8.404  1.00  0.00     0.150 C 
BRANCH  24  25
HETATM   25  C   UNL     1      44.655 -12.461   9.933  1.00  0.00     0.254 C 
BRANCH  25  26
HETATM   26  N   UNL     1      43.312 -11.953  10.395  1.00  0.00    -0.066 N 
HETATM   27  H   UNL     1      42.673 -12.747  10.191  1.00  0.00     0.280 HD
HETATM   28  C   UNL     1      43.212 -11.615  11.866  1.00  0.00     0.261 C 
HETATM   29  C   UNL     1      41.784 -11.169  12.200  1.00  0.00     0.195 C 
HETATM   30  O   UNL     1      41.383 -10.065  11.381  1.00  0.00    -0.388 OA
HETATM   31  C   UNL     1      41.393 -10.413   9.991  1.00  0.00     0.195 C 
HETATM   32  C   UNL     1      42.804 -10.806   9.538  1.00  0.00     0.261 C 
ENDBRANCH  25  26
ENDBRANCH  24  25
ENDBRANCH  21  24
ENDBRANCH  16  20
ENDBRANCH   2  14
BRANCH   1  33
HETATM   33  C   UNL     1      42.322 -16.720   1.934  1.00  0.00    -0.023 A 
HETATM   34  C   UNL     1      41.818 -18.014   2.105  1.00  0.00     0.012 A 
HETATM   35  C   UNL     1      42.659 -19.122   1.977  1.00  0.00     0.001 A 
HETATM   36  C   UNL     1      44.007 -18.942   1.666  1.00  0.00     0.000 A 
HETATM   37  C   UNL     1      44.511 -17.659   1.467  1.00  0.00     0.001 A 
HETATM   38  C   UNL     1      43.670 -16.552   1.588  1.00  0.00     0.012 A 
ENDBRANCH   1  33
TORSDOF 6
ENDMDL
MODEL 6
REMARK VINA RESULT:      -8.6      2.332      3.802
REMARK  6 active torsions:
REMARK  status: ('A' for Active; 'I' for Inactive)
REMARK    1  A    between atoms: C_4  and  C_5 
REMARK    2  A    between atoms: C_6  and  N_7 
REMARK    3  A    between atoms: C_9  and  C_10 
REMARK       I    between atoms: C_10  and  N_11 
REMARK    4  A    between atoms: N_11  and  C_12 
REMARK    5  A    between atoms: C_12  and  C_13 
REMARK    6  A    between atoms: C_13  and  N_14 
ROOT
HETATM    1  C   UNL     1      43.143 -17.898   3.828  1.00  0.00     0.019 A 
HETATM    2  C   UNL     1      42.564 -17.098   2.885  1.00  0.00     0.111 A 
HETATM    3  C   UNL     1      42.439 -17.657   1.457  1.00  0.00     0.273 A 
HETATM    4  O   UNL     1      41.930 -17.025   0.533  1.00  0.00    -0.266 OA
HETATM    5  N   UNL     1      42.905 -18.911   1.206  1.00  0.00    -0.321 N 
HETATM    6  C   UNL     1      43.490 -19.731   2.159  1.00  0.00     0.046 A 
HETATM    7  C   UNL     1      43.621 -19.268   3.469  1.00  0.00     0.006 A 
HETATM    8  C   UNL     1      43.925 -21.005   1.782  1.00  0.00     0.032 A 
HETATM    9  C   UNL     1      44.502 -21.847   2.730  1.00  0.00     0.026 A 
HETATM   10  C   UNL     1      44.639 -21.406   4.043  1.00  0.00     0.035 A 
HETATM   11 CL   UNL     1      45.342 -22.441   5.222  1.00  0.00    -0.084 Cl
HETATM   12  C   UNL     1      44.205 -20.130   4.413  1.00  0.00     0.038 A 
HETATM   13  H   UNL     1      42.810 -19.223   0.247  1.00  0.00     0.169 HD
ENDROOT
BRANCH   2  14
HETATM   14  N   UNL     1      42.074 -15.767   3.124  1.00  0.00    -0.375 N 
HETATM   15  C   UNL     1      43.034 -14.628   3.187  1.00  0.00     0.137 C 
HETATM   16  C   UNL     1      42.331 -13.286   2.968  1.00  0.00     0.096 C 
HETATM   17  C   UNL     1      41.038 -13.126   3.778  1.00  0.00     0.017 C 
HETATM   18  C   UNL     1      40.192 -14.395   3.860  1.00  0.00     0.021 C 
HETATM   19  C   UNL     1      41.051 -15.609   4.189  1.00  0.00     0.123 C 
BRANCH  16  20
HETATM   20  C   UNL     1      42.132 -13.002   1.489  1.00  0.00     0.223 C 
HETATM   21  N   UNL     1      41.633 -14.020   0.725  1.00  0.00    -0.359 N 
HETATM   22  H   UNL     1      41.453 -14.895   1.227  1.00  0.00     0.162 HD
HETATM   23  O   UNL     1      42.451 -11.923   0.986  1.00  0.00    -0.273 OA
BRANCH  21  24
HETATM   24  C   UNL     1      41.097 -13.912  -0.629  1.00  0.00     0.150 C 
BRANCH  24  25
HETATM   25  C   UNL     1      42.019 -13.428  -1.773  1.00  0.00     0.254 C 
BRANCH  25  26
HETATM   26  N   UNL     1      41.434 -12.294  -2.577  1.00  0.00    -0.066 N 
HETATM   27  H   UNL     1      41.595 -11.465  -1.973  1.00  0.00     0.280 HD
HETATM   28  C   UNL     1      42.080 -12.048  -3.923  1.00  0.00     0.261 C 
HETATM   29  C   UNL     1      41.426 -10.837  -4.598  1.00  0.00     0.195 C 
HETATM   30  O   UNL     1      40.011 -11.019  -4.724  1.00  0.00    -0.388 OA
HETATM   31  C   UNL     1      39.387 -11.164  -3.442  1.00  0.00     0.195 C 
HETATM   32  C   UNL     1      39.924 -12.400  -2.711  1.00  0.00     0.261 C 
ENDBRANCH  25  26
ENDBRANCH  24  25
ENDBRANCH  21  24
ENDBRANCH  16  20
ENDBRANCH   2  14
BRANCH   1  33
HETATM   33  C   UNL     1      43.252 -17.404   5.229  1.00  0.00    -0.023 A 
HETATM   34  C   UNL     1      42.292 -17.765   6.181  1.00  0.00     0.012 A 
HETATM   35  C   UNL     1      42.426 -17.355   7.510  1.00  0.00     0.001 A 
HETATM   36  C   UNL     1      43.528 -16.592   7.896  1.00  0.00     0.000 A 
HETATM   37  C   UNL     1      44.503 -16.252   6.961  1.00  0.00     0.001 A 
HETATM   38  C   UNL     1      44.373 -16.666   5.635  1.00  0.00     0.012 A 
ENDBRANCH   1  33
TORSDOF 6
ENDMDL
MODEL 7
REMARK VINA RESULT:      -8.5      3.375      7.777
REMARK  6 active torsions:
REMARK  status: ('A' for Active; 'I' for Inactive)
REMARK    1  A    between atoms: C_4  and  C_5 
REMARK    2  A    between atoms: C_6  and  N_7 
REMARK    3  A    between atoms: C_9  and  C_10 
REMARK       I    between atoms: C_10  and  N_11 
REMARK    4  A    between atoms: N_11  and  C_12 
REMARK    5  A    between atoms: C_12  and  C_13 
REMARK    6  A    between atoms: C_13  and  N_14 
ROOT
HETATM    1  C   UNL     1      39.947 -14.029   1.866  1.00  0.00     0.019 A 
HETATM    2  C   UNL     1      40.063 -13.480   3.112  1.00  0.00     0.111 A 
HETATM    3  C   UNL     1      39.197 -12.247   3.429  1.00  0.00     0.273 A 
HETATM    4  O   UNL     1      39.218 -11.678   4.520  1.00  0.00    -0.266 OA
HETATM    5  N   UNL     1      38.364 -11.771   2.465  1.00  0.00    -0.321 N 
HETATM    6  C   UNL     1      38.238 -12.325   1.200  1.00  0.00     0.046 A 
HETATM    7  C   UNL     1      39.000 -13.446   0.867  1.00  0.00     0.006 A 
HETATM    8  C   UNL     1      37.341 -11.751   0.294  1.00  0.00     0.032 A 
HETATM    9  C   UNL     1      37.192 -12.303  -0.976  1.00  0.00     0.026 A 
HETATM   10  C   UNL     1      37.940 -13.423  -1.326  1.00  0.00     0.035 A 
HETATM   11 CL   UNL     1      37.755 -14.118  -2.888  1.00  0.00    -0.084 Cl
HETATM   12  C   UNL     1      38.837 -13.991  -0.418  1.00  0.00     0.038 A 
HETATM   13  H   UNL     1      37.828 -10.952   2.723  1.00  0.00     0.169 HD
ENDROOT
BRANCH   2  14
HETATM   14  N   UNL     1      40.943 -13.959   4.143  1.00  0.00    -0.375 N 
HETATM   15  C   UNL     1      40.421 -14.891   5.184  1.00  0.00     0.137 C 
HETATM   16  C   UNL     1      41.554 -15.650   5.879  1.00  0.00     0.096 C 
HETATM   17  C   UNL     1      42.730 -14.759   6.298  1.00  0.00     0.017 C 
HETATM   18  C   UNL     1      43.086 -13.676   5.281  1.00  0.00     0.021 C 
HETATM   19  C   UNL     1      41.838 -12.959   4.780  1.00  0.00     0.123 C 
BRANCH  16  20
HETATM   20  C   UNL     1      41.995 -16.852   5.062  1.00  0.00     0.223 C 
HETATM   21  N   UNL     1      43.241 -16.797   4.501  1.00  0.00    -0.359 N 
HETATM   22  H   UNL     1      43.759 -15.930   4.674  1.00  0.00     0.162 HD
HETATM   23  O   UNL     1      41.249 -17.815   4.870  1.00  0.00    -0.273 OA
BRANCH  21  24
HETATM   24  C   UNL     1      43.988 -17.912   3.925  1.00  0.00     0.150 C 
BRANCH  24  25
HETATM   25  C   UNL     1      44.349 -19.123   4.815  1.00  0.00     0.254 C 
BRANCH  25  26
HETATM   26  N   UNL     1      44.153 -20.452   4.131  1.00  0.00    -0.066 N 
HETATM   27  H   UNL     1      43.168 -20.694   4.358  1.00  0.00     0.280 HD
HETATM   28  C   UNL     1      44.316 -20.443   2.627  1.00  0.00     0.261 C 
HETATM   29  C   UNL     1      44.032 -21.841   2.066  1.00  0.00     0.195 C 
HETATM   30  O   UNL     1      44.876 -22.823   2.677  1.00  0.00    -0.388 OA
HETATM   31  C   UNL     1      44.657 -22.893   4.091  1.00  0.00     0.195 C 
HETATM   32  C   UNL     1      44.988 -21.554   4.761  1.00  0.00     0.261 C 
ENDBRANCH  25  26
ENDBRANCH  24  25
ENDBRANCH  21  24
ENDBRANCH  16  20
ENDBRANCH   2  14
BRANCH   1  33
HETATM   33  C   UNL     1      40.745 -15.241   1.532  1.00  0.00    -0.023 A 
HETATM   34  C   UNL     1      42.075 -15.117   1.115  1.00  0.00     0.012 A 
HETATM   35  C   UNL     1      42.845 -16.255   0.863  1.00  0.00     0.001 A 
HETATM   36  C   UNL     1      42.293 -17.523   1.038  1.00  0.00     0.000 A 
HETATM   37  C   UNL     1      40.979 -17.657   1.480  1.00  0.00     0.001 A 
HETATM   38  C   UNL     1      40.211 -16.521   1.739  1.00  0.00     0.012 A 
ENDBRANCH   1  33
TORSDOF 6
ENDMDL
MODEL 8
REMARK VINA RESULT:      -8.3      3.472      9.291
REMARK  6 active torsions:
REMARK  status: ('A' for Active; 'I' for Inactive)
REMARK    1  A    between atoms: C_4  and  C_5 
REMARK    2  A    between atoms: C_6  and  N_7 
REMARK    3  A    between atoms: C_9  and  C_10 
REMARK       I    between atoms: C_10  and  N_11 
REMARK    4  A    between atoms: N_11  and  C_12 
REMARK    5  A    between atoms: C_12  and  C_13 
REMARK    6  A    between atoms: C_13  and  N_14 
ROOT
HETATM    1  C   UNL     1      40.946 -13.110  -1.819  1.00  0.00     0.019 A 
HETATM    2  C   UNL     1      41.296 -13.303  -0.513  1.00  0.00     0.111 A 
HETATM    3  C   UNL     1      42.246 -12.275   0.127  1.00  0.00     0.273 A 
HETATM    4  O   UNL     1      42.621 -12.348   1.297  1.00  0.00    -0.266 OA
HETATM    5  N   UNL     1      42.684 -11.232  -0.630  1.00  0.00    -0.321 N 
HETATM    6  C   UNL     1      42.330 -11.028  -1.955  1.00  0.00     0.046 A 
HETATM    7  C   UNL     1      41.468 -11.932  -2.578  1.00  0.00     0.006 A 
HETATM    8  C   UNL     1      42.840  -9.915  -2.629  1.00  0.00     0.032 A 
HETATM    9  C   UNL     1      42.483  -9.687  -3.956  1.00  0.00     0.026 A 
HETATM   10  C   UNL     1      41.622 -10.574  -4.594  1.00  0.00     0.035 A 
HETATM   11 CL   UNL     1      41.168 -10.296  -6.230  1.00  0.00    -0.084 Cl
HETATM   12  C   UNL     1      41.118 -11.687  -3.917  1.00  0.00     0.038 A 
HETATM   13  H   UNL     1      43.317 -10.595  -0.163  1.00  0.00     0.169 HD
ENDROOT
BRANCH   2  14
HETATM   14  N   UNL     1      40.855 -14.400   0.303  1.00  0.00    -0.375 N 
HETATM   15  C   UNL     1      41.255 -15.793  -0.053  1.00  0.00     0.137 C 
HETATM   16  C   UNL     1      41.115 -16.742   1.140  1.00  0.00     0.096 C 
HETATM   17  C   UNL     1      39.789 -16.592   1.898  1.00  0.00     0.017 C 
HETATM   18  C   UNL     1      39.315 -15.147   2.047  1.00  0.00     0.021 C 
HETATM   19  C   UNL     1      39.432 -14.390   0.730  1.00  0.00     0.123 C 
BRANCH  16  20
HETATM   20  C   UNL     1      42.323 -16.657   2.056  1.00  0.00     0.223 C 
HETATM   21  N   UNL     1      42.735 -17.819   2.647  1.00  0.00    -0.359 N 
HETATM   22  H   UNL     1      42.171 -18.646   2.425  1.00  0.00     0.162 HD
HETATM   23  O   UNL     1      42.882 -15.585   2.297  1.00  0.00    -0.273 OA
BRANCH  21  24
HETATM   24  C   UNL     1      44.009 -18.049   3.324  1.00  0.00     0.150 C 
BRANCH  24  25
HETATM   25  C   UNL     1      44.061 -19.009   4.535  1.00  0.00     0.254 C 
BRANCH  25  26
HETATM   26  N   UNL     1      44.168 -18.298   5.861  1.00  0.00    -0.066 N 
HETATM   27  H   UNL     1      45.177 -18.055   5.921  1.00  0.00     0.280 HD
HETATM   28  C   UNL     1      43.355 -17.029   5.990  1.00  0.00     0.261 C 
HETATM   29  C   UNL     1      43.606 -16.388   7.360  1.00  0.00     0.195 C 
HETATM   30  O   UNL     1      43.313 -17.306   8.419  1.00  0.00    -0.388 OA
HETATM   31  C   UNL     1      44.147 -18.470   8.348  1.00  0.00     0.195 C 
HETATM   32  C   UNL     1      43.914 -19.227   7.036  1.00  0.00     0.261 C 
ENDBRANCH  25  26
ENDBRANCH  24  25
ENDBRANCH  21  24
ENDBRANCH  16  20
ENDBRANCH   2  14
BRANCH   1  33
HETATM   33  C   UNL     1      40.004 -14.066  -2.465  1.00  0.00    -0.023 A 
HETATM   34  C   UNL     1      38.630 -13.801  -2.478  1.00  0.00     0.012 A 
HETATM   35  C   UNL     1      37.751 -14.663  -3.138  1.00  0.00     0.001 A 
HETATM   36  C   UNL     1      38.243 -15.789  -3.798  1.00  0.00     0.000 A 
HETATM   37  C   UNL     1      39.612 -16.045  -3.814  1.00  0.00     0.001 A 
HETATM   38  C   UNL     1      40.491 -15.181  -3.161  1.00  0.00     0.012 A 
ENDBRANCH   1  33
TORSDOF 6
ENDMDL
MODEL 9
REMARK VINA RESULT:      -8.1      2.700      4.115
REMARK  6 active torsions:
REMARK  status: ('A' for Active; 'I' for Inactive)
REMARK    1  A    between atoms: C_4  and  C_5 
REMARK    2  A    between atoms: C_6  and  N_7 
REMARK    3  A    between atoms: C_9  and  C_10 
REMARK       I    between atoms: C_10  and  N_11 
REMARK    4  A    between atoms: N_11  and  C_12 
REMARK    5  A    between atoms: C_12  and  C_13 
REMARK    6  A    between atoms: C_13  and  N_14 
ROOT
HETATM    1  C   UNL     1      42.404 -16.489   3.939  1.00  0.00     0.019 A 
HETATM    2  C   UNL     1      41.335 -15.884   3.342  1.00  0.00     0.111 A 
HETATM    3  C   UNL     1      40.701 -16.593   2.131  1.00  0.00     0.273 A 
HETATM    4  O   UNL     1      39.733 -16.141   1.523  1.00  0.00    -0.266 OA
HETATM    5  N   UNL     1      41.229 -17.779   1.721  1.00  0.00    -0.321 N 
HETATM    6  C   UNL     1      42.311 -18.400   2.325  1.00  0.00     0.046 A 
HETATM    7  C   UNL     1      42.917 -17.797   3.428  1.00  0.00     0.006 A 
HETATM    8  C   UNL     1      42.761 -19.623   1.817  1.00  0.00     0.032 A 
HETATM    9  C   UNL     1      43.838 -20.268   2.420  1.00  0.00     0.026 A 
HETATM   10  C   UNL     1      44.453 -19.685   3.523  1.00  0.00     0.035 A 
HETATM   11 CL   UNL     1      45.777 -20.480   4.281  1.00  0.00    -0.084 Cl
HETATM   12  C   UNL     1      44.002 -18.462   4.025  1.00  0.00     0.038 A 
HETATM   13  H   UNL     1      40.782 -18.194   0.913  1.00  0.00     0.169 HD
ENDROOT
BRANCH   2  14
HETATM   14  N   UNL     1      40.767 -14.629   3.751  1.00  0.00    -0.375 N 
HETATM   15  C   UNL     1      41.311 -13.356   3.195  1.00  0.00     0.137 C 
HETATM   16  C   UNL     1      40.317 -12.202   3.351  1.00  0.00     0.096 C 
HETATM   17  C   UNL     1      39.685 -12.114   4.746  1.00  0.00     0.017 C 
HETATM   18  C   UNL     1      39.342 -13.470   5.361  1.00  0.00     0.021 C 
HETATM   19  C   UNL     1      40.492 -14.456   5.200  1.00  0.00     0.123 C 
BRANCH  16  20
HETATM   20  C   UNL     1      39.282 -12.213   2.240  1.00  0.00     0.223 C 
HETATM   21  N   UNL     1      39.186 -13.355   1.494  1.00  0.00    -0.359 N 
HETATM   22  H   UNL     1      39.843 -14.099   1.748  1.00  0.00     0.162 HD
HETATM   23  O   UNL     1      38.591 -11.224   1.987  1.00  0.00    -0.273 OA
BRANCH  21  24
HETATM   24  C   UNL     1      38.105 -13.710   0.579  1.00  0.00     0.150 C 
BRANCH  24  25
HETATM   25  C   UNL     1      38.207 -13.307  -0.910  1.00  0.00     0.254 C 
BRANCH  25  26
HETATM   26  N   UNL     1      38.684 -14.424  -1.804  1.00  0.00    -0.066 N 
HETATM   27  H   UNL     1      38.495 -15.277  -1.242  1.00  0.00     0.280 HD
HETATM   28  C   UNL     1      37.969 -14.547  -3.132  1.00  0.00     0.261 C 
HETATM   29  C   UNL     1      38.517 -15.753  -3.905  1.00  0.00     0.195 C 
HETATM   30  O   UNL     1      39.934 -15.651  -4.082  1.00  0.00    -0.388 OA
HETATM   31  C   UNL     1      40.618 -15.623  -2.823  1.00  0.00     0.195 C 
HETATM   32  C   UNL     1      40.191 -14.403  -1.999  1.00  0.00     0.261 C 
ENDBRANCH  25  26
ENDBRANCH  24  25
ENDBRANCH  21  24
ENDBRANCH  16  20
ENDBRANCH   2  14
BRANCH   1  33
HETATM   33  C   UNL     1      43.024 -15.850   5.133  1.00  0.00    -0.023 A 
HETATM   34  C   UNL     1      42.927 -16.458   6.389  1.00  0.00     0.012 A 
HETATM   35  C   UNL     1      43.562 -15.893   7.498  1.00  0.00     0.001 A 
HETATM   36  C   UNL     1      44.307 -14.723   7.353  1.00  0.00     0.000 A 
HETATM   37  C   UNL     1      44.432 -14.126   6.101  1.00  0.00     0.001 A 
HETATM   38  C   UNL     1      43.804 -14.693   4.992  1.00  0.00     0.012 A 
ENDBRANCH   1  33
TORSDOF 6
ENDMDL
MODEL 10
REMARK VINA RESULT:      -8.0      3.580      8.248
REMARK  6 active torsions:
REMARK  status: ('A' for Active; 'I' for Inactive)
REMARK    1  A    between atoms: C_4  and  C_5 
REMARK    2  A    between atoms: C_6  and  N_7 
REMARK    3  A    between atoms: C_9  and  C_10 
REMARK       I    between atoms: C_10  and  N_11 
REMARK    4  A    between atoms: N_11  and  C_12 
REMARK    5  A    between atoms: C_12  and  C_13 
REMARK    6  A    between atoms: C_13  and  N_14 
ROOT
HETATM    1  C   UNL     1      41.214 -12.306   4.960  1.00  0.00     0.019 A 
HETATM    2  C   UNL     1      40.904 -12.140   3.641  1.00  0.00     0.111 A 
HETATM    3  C   UNL     1      40.685 -10.702   3.137  1.00  0.00     0.273 A 
HETATM    4  O   UNL     1      40.407 -10.438   1.968  1.00  0.00    -0.266 OA
HETATM    5  N   UNL     1      40.813  -9.676   4.021  1.00  0.00    -0.321 N 
HETATM    6  C   UNL     1      41.131  -9.836   5.361  1.00  0.00     0.046 A 
HETATM    7  C   UNL     1      41.343 -11.121   5.863  1.00  0.00     0.006 A 
HETATM    8  C   UNL     1      41.242  -8.703   6.172  1.00  0.00     0.032 A 
HETATM    9  C   UNL     1      41.575  -8.845   7.517  1.00  0.00     0.026 A 
HETATM   10  C   UNL     1      41.794 -10.117   8.036  1.00  0.00     0.035 A 
HETATM   11 CL   UNL     1      42.215 -10.302   9.693  1.00  0.00    -0.084 Cl
HETATM   12  C   UNL     1      41.679 -11.247   7.222  1.00  0.00     0.038 A 
HETATM   13  H   UNL     1      40.645  -8.753   3.640  1.00  0.00     0.169 HD
ENDROOT
BRANCH   2  14
HETATM   14  N   UNL     1      40.753 -13.208   2.691  1.00  0.00    -0.375 N 
HETATM   15  C   UNL     1      41.580 -13.214   1.449  1.00  0.00     0.137 C 
HETATM   16  C   UNL     1      41.644 -14.608   0.820  1.00  0.00     0.096 C 
HETATM   17  C   UNL     1      40.281 -15.308   0.728  1.00  0.00     0.017 C 
HETATM   18  C   UNL     1      39.384 -15.089   1.945  1.00  0.00     0.021 C 
HETATM   19  C   UNL     1      39.366 -13.623   2.361  1.00  0.00     0.123 C 
BRANCH  16  20
HETATM   20  C   UNL     1      42.698 -15.469   1.494  1.00  0.00     0.223 C 
HETATM   21  N   UNL     1      42.899 -16.719   0.979  1.00  0.00    -0.359 N 
HETATM   22  H   UNL     1      42.298 -16.967   0.186  1.00  0.00     0.162 HD
HETATM   23  O   UNL     1      43.313 -15.081   2.490  1.00  0.00    -0.273 OA
BRANCH  21  24
HETATM   24  C   UNL     1      44.023 -17.608   1.260  1.00  0.00     0.150 C 
BRANCH  24  25
HETATM   25  C   UNL     1      43.747 -19.063   1.703  1.00  0.00     0.254 C 
BRANCH  25  26
HETATM   26  N   UNL     1      44.377 -19.419   3.027  1.00  0.00    -0.066 N 
HETATM   27  H   UNL     1      45.380 -19.187   2.883  1.00  0.00     0.280 HD
HETATM   28  C   UNL     1      43.866 -18.646   4.222  1.00  0.00     0.261 C 
HETATM   29  C   UNL     1      44.632 -19.069   5.480  1.00  0.00     0.195 C 
HETATM   30  O   UNL     1      44.536 -20.482   5.692  1.00  0.00    -0.388 OA
HETATM   31  C   UNL     1      45.101 -21.215   4.597  1.00  0.00     0.195 C 
HETATM   32  C   UNL     1      44.350 -20.914   3.295  1.00  0.00     0.261 C 
ENDBRANCH  25  26
ENDBRANCH  24  25
ENDBRANCH  21  24
ENDBRANCH  16  20
ENDBRANCH   2  14
BRANCH   1  33
HETATM   33  C   UNL     1      41.465 -13.680   5.478  1.00  0.00    -0.023 A 
HETATM   34  C   UNL     1      40.394 -14.548   5.722  1.00  0.00     0.012 A 
HETATM   35  C   UNL     1      40.630 -15.857   6.146  1.00  0.00     0.001 A 
HETATM   36  C   UNL     1      41.938 -16.310   6.317  1.00  0.00     0.000 A 
HETATM   37  C   UNL     1      43.010 -15.463   6.050  1.00  0.00     0.001 A 
HETATM   38  C   UNL     1      42.776 -14.156   5.619  1.00  0.00     0.012 A 
ENDBRANCH   1  33
TORSDOF 6
ENDMDL
