MODEL 1
REMARK VINA RESULT:      -6.4      0.000      0.000
REMARK  2 active torsions:
REMARK  status: ('A' for Active; 'I' for Inactive)
REMARK    1  A    between atoms: C_3  and  S_4 
REMARK    2  A    between atoms: C_9  and  N_10 
ROOT
HETATM    1  C   UNL     1      45.023 -20.418   4.350  1.00  0.00     0.050 C 
HETATM    2  C   UNL     1      44.252 -19.152   4.102  1.00  0.00    -0.039 A 
HETATM    3  C   UNL     1      43.769 -18.295   5.104  1.00  0.00     0.067 A 
HETATM    4  C   UNL     1      43.073 -17.115   4.767  1.00  0.00     0.055 A 
HETATM    5  C   UNL     1      42.803 -16.766   3.437  1.00  0.00     0.053 A 
HETATM    6  C   UNL     1      43.247 -17.661   2.440  1.00  0.00     0.061 A 
HETATM    7 CL   UNL     1      42.890 -17.391   0.764  1.00  0.00    -0.082 Cl
HETATM    8  C   UNL     1      43.956 -18.824   2.767  1.00  0.00     0.034 A 
ENDROOT
BRANCH   5   9
HETATM    9  N   UNL     1      42.127 -15.574   3.105  1.00  0.00    -0.376 N 
HETATM   10  C   UNL     1      40.833 -15.309   3.763  1.00  0.00     0.150 C 
HETATM   11  C   UNL     1      40.100 -14.173   3.018  1.00  0.00     0.252 C 
HETATM   12  N   UNL     1      40.985 -12.949   2.922  1.00  0.00    -0.072 N 
HETATM   13  H   UNL     1      41.131 -12.558   3.861  1.00  0.00     0.277 HD
HETATM   14  H   UNL     1      40.506 -12.227   2.369  1.00  0.00     0.277 HD
HETATM   15  C   UNL     1      42.328 -13.252   2.291  1.00  0.00     0.252 C 
HETATM   16  C   UNL     1      43.028 -14.398   3.046  1.00  0.00     0.150 C 
ENDBRANCH   5   9
BRANCH   3  17
HETATM   17  S   UNL     1      44.031 -18.598   6.852  1.00  0.00     0.172 S 
HETATM   18  C   UNL     1      42.998 -17.432   7.698  1.00  0.00     0.167 C 
HETATM   19  O   UNL     1      43.574 -19.944   7.126  1.00  0.00    -0.223 OA
HETATM   20  O   UNL     1      45.407 -18.219   7.135  1.00  0.00    -0.223 OA
ENDBRANCH   3  17
TORSDOF 2
ENDMDL
MODEL 2
REMARK VINA RESULT:      -6.3      1.434      1.558
REMARK  2 active torsions:
REMARK  status: ('A' for Active; 'I' for Inactive)
REMARK    1  A    between atoms: C_3  and  S_4 
REMARK    2  A    between atoms: C_9  and  N_10 
ROOT
HETATM    1  C   UNL     1      44.100 -21.013   2.395  1.00  0.00     0.050 C 
HETATM    2  C   UNL     1      43.602 -19.625   2.682  1.00  0.00    -0.039 A 
HETATM    3  C   UNL     1      43.780 -18.943   3.897  1.00  0.00     0.067 A 
HETATM    4  C   UNL     1      43.291 -17.629   4.061  1.00  0.00     0.055 A 
HETATM    5  C   UNL     1      42.585 -16.967   3.047  1.00  0.00     0.053 A 
HETATM    6  C   UNL     1      42.367 -17.682   1.850  1.00  0.00     0.061 A 
HETATM    7 CL   UNL     1      41.424 -17.009   0.559  1.00  0.00    -0.082 Cl
HETATM    8  C   UNL     1      42.866 -18.979   1.674  1.00  0.00     0.034 A 
ENDROOT
BRANCH   5   9
HETATM    9  N   UNL     1      42.120 -15.646   3.208  1.00  0.00    -0.376 N 
HETATM   10  C   UNL     1      41.200 -15.371   4.330  1.00  0.00     0.150 C 
HETATM   11  C   UNL     1      40.536 -13.992   4.124  1.00  0.00     0.252 C 
HETATM   12  N   UNL     1      41.590 -12.923   3.937  1.00  0.00    -0.072 N 
HETATM   13  H   UNL     1      42.114 -12.802   4.813  1.00  0.00     0.277 HD
HETATM   14  H   UNL     1      41.131 -12.025   3.740  1.00  0.00     0.277 HD
HETATM   15  C   UNL     1      42.555 -13.247   2.817  1.00  0.00     0.252 C 
HETATM   16  C   UNL     1      43.190 -14.634   3.041  1.00  0.00     0.150 C 
ENDBRANCH   5   9
BRANCH   3  17
HETATM   17  S   UNL     1      44.661 -19.648   5.290  1.00  0.00     0.172 S 
HETATM   18  C   UNL     1      45.253 -18.266   6.228  1.00  0.00     0.167 C 
HETATM   19  O   UNL     1      43.697 -20.393   6.072  1.00  0.00    -0.223 OA
HETATM   20  O   UNL     1      45.833 -20.314   4.743  1.00  0.00    -0.223 OA
ENDBRANCH   3  17
TORSDOF 2
ENDMDL
MODEL 3
REMARK VINA RESULT:      -6.1      3.175      4.002
REMARK  2 active torsions:
REMARK  status: ('A' for Active; 'I' for Inactive)
REMARK    1  A    between atoms: C_3  and  S_4 
REMARK    2  A    between atoms: C_9  and  N_10 
ROOT
HETATM    1  C   UNL     1      44.652 -21.152   5.247  1.00  0.00     0.050 C 
HETATM    2  C   UNL     1      44.110 -19.752   5.300  1.00  0.00    -0.039 A 
HETATM    3  C   UNL     1      43.820 -18.959   4.178  1.00  0.00     0.067 A 
HETATM    4  C   UNL     1      43.292 -17.660   4.333  1.00  0.00     0.055 A 
HETATM    5  C   UNL     1      43.068 -17.094   5.597  1.00  0.00     0.053 A 
HETATM    6  C   UNL     1      43.413 -17.880   6.717  1.00  0.00     0.061 A 
HETATM    7 CL   UNL     1      43.277 -17.258   8.330  1.00  0.00    -0.082 Cl
HETATM    8  C   UNL     1      43.919 -19.178   6.569  1.00  0.00     0.034 A 
ENDROOT
BRANCH   5   9
HETATM    9  N   UNL     1      42.519 -15.805   5.746  1.00  0.00    -0.376 N 
HETATM   10  C   UNL     1      43.361 -14.650   5.377  1.00  0.00     0.150 C 
HETATM   11  C   UNL     1      42.734 -13.356   5.941  1.00  0.00     0.252 C 
HETATM   12  N   UNL     1      41.299 -13.223   5.480  1.00  0.00    -0.072 N 
HETATM   13  H   UNL     1      41.278 -13.070   4.464  1.00  0.00     0.277 HD
HETATM   14  H   UNL     1      40.879 -12.391   5.915  1.00  0.00     0.277 HD
HETATM   15  C   UNL     1      40.464 -14.439   5.822  1.00  0.00     0.252 C 
HETATM   16  C   UNL     1      41.121 -15.715   5.261  1.00  0.00     0.150 C 
ENDBRANCH   5   9
BRANCH   3  17
HETATM   17  S   UNL     1      44.046 -19.534   2.495  1.00  0.00     0.172 S 
HETATM   18  C   UNL     1      44.105 -18.072   1.495  1.00  0.00     0.167 C 
HETATM   19  O   UNL     1      45.324 -20.213   2.444  1.00  0.00    -0.223 OA
HETATM   20  O   UNL     1      42.827 -20.239   2.132  1.00  0.00    -0.223 OA
ENDBRANCH   3  17
TORSDOF 2
ENDMDL
MODEL 4
REMARK VINA RESULT:      -5.7      2.167      3.469
REMARK  2 active torsions:
REMARK  status: ('A' for Active; 'I' for Inactive)
REMARK    1  A    between atoms: C_3  and  S_4 
REMARK    2  A    between atoms: C_9  and  N_10 
ROOT
HETATM    1  C   UNL     1      43.210 -17.332   7.996  1.00  0.00     0.050 C 
HETATM    2  C   UNL     1      42.809 -16.932   6.604  1.00  0.00    -0.039 A 
HETATM    3  C   UNL     1      43.218 -17.587   5.431  1.00  0.00     0.067 A 
HETATM    4  C   UNL     1      42.769 -17.146   4.169  1.00  0.00     0.055 A 
HETATM    5  C   UNL     1      41.933 -16.029   4.026  1.00  0.00     0.053 A 
HETATM    6  C   UNL     1      41.571 -15.348   5.207  1.00  0.00     0.061 A 
HETATM    7 CL   UNL     1      40.623 -13.897   5.156  1.00  0.00    -0.082 Cl
HETATM    8  C   UNL     1      41.999 -15.793   6.465  1.00  0.00     0.034 A 
ENDROOT
BRANCH   5   9
HETATM    9  N   UNL     1      41.468 -15.607   2.764  1.00  0.00    -0.376 N 
HETATM   10  C   UNL     1      42.328 -15.860   1.591  1.00  0.00     0.150 C 
HETATM   11  C   UNL     1      41.826 -15.024   0.395  1.00  0.00     0.252 C 
HETATM   12  N   UNL     1      40.362 -15.302   0.135  1.00  0.00    -0.072 N 
HETATM   13  H   UNL     1      40.250 -16.270  -0.193  1.00  0.00     0.277 HD
HETATM   14  H   UNL     1      40.030 -14.692  -0.623  1.00  0.00     0.277 HD
HETATM   15  C   UNL     1      39.503 -15.087   1.362  1.00  0.00     0.252 C 
HETATM   16  C   UNL     1      40.036 -15.921   2.543  1.00  0.00     0.150 C 
ENDBRANCH   5   9
BRANCH   3  17
HETATM   17  S   UNL     1      44.283 -19.029   5.442  1.00  0.00     0.172 S 
HETATM   18  C   UNL     1      44.330 -19.599   3.764  1.00  0.00     0.167 C 
HETATM   19  O   UNL     1      45.601 -18.585   5.845  1.00  0.00    -0.223 OA
HETATM   20  O   UNL     1      43.587 -20.050   6.209  1.00  0.00    -0.223 OA
ENDBRANCH   3  17
TORSDOF 2
ENDMDL
MODEL 5
REMARK VINA RESULT:      -5.6      3.970      5.596
REMARK  2 active torsions:
REMARK  status: ('A' for Active; 'I' for Inactive)
REMARK    1  A    between atoms: C_3  and  S_4 
REMARK    2  A    between atoms: C_9  and  N_10 
ROOT
HETATM    1  C   UNL     1      41.341 -16.531   0.161  1.00  0.00     0.050 C 
HETATM    2  C   UNL     1      41.770 -16.703   1.591  1.00  0.00    -0.039 A 
HETATM    3  C   UNL     1      41.320 -15.917   2.665  1.00  0.00     0.067 A 
HETATM    4  C   UNL     1      41.767 -16.172   3.978  1.00  0.00     0.055 A 
HETATM    5  C   UNL     1      42.693 -17.184   4.265  1.00  0.00     0.053 A 
HETATM    6  C   UNL     1      43.178 -17.933   3.172  1.00  0.00     0.061 A 
HETATM    7 CL   UNL     1      44.400 -19.146   3.382  1.00  0.00    -0.082 Cl
HETATM    8  C   UNL     1      42.724 -17.697   1.867  1.00  0.00     0.034 A 
ENDROOT
BRANCH   5   9
HETATM    9  N   UNL     1      43.119 -17.449   5.583  1.00  0.00    -0.376 N 
HETATM   10  C   UNL     1      42.692 -16.519   6.646  1.00  0.00     0.150 C 
HETATM   11  C   UNL     1      43.536 -16.767   7.915  1.00  0.00     0.252 C 
HETATM   12  N   UNL     1      43.456 -18.221   8.324  1.00  0.00    -0.072 N 
HETATM   13  H   UNL     1      42.500 -18.438   8.632  1.00  0.00     0.277 HD
HETATM   14  H   UNL     1      44.072 -18.380   9.132  1.00  0.00     0.277 HD
HETATM   15  C   UNL     1      43.847 -19.162   7.205  1.00  0.00     0.252 C 
HETATM   16  C   UNL     1      43.001 -18.881   5.948  1.00  0.00     0.150 C 
ENDBRANCH   5   9
BRANCH   3  17
HETATM   17  S   UNL     1      40.134 -14.586   2.467  1.00  0.00     0.172 S 
HETATM   18  C   UNL     1      39.792 -14.006   4.107  1.00  0.00     0.167 C 
HETATM   19  O   UNL     1      40.787 -13.542   1.705  1.00  0.00    -0.223 OA
HETATM   20  O   UNL     1      38.909 -15.195   1.975  1.00  0.00    -0.223 OA
ENDBRANCH   3  17
TORSDOF 2
ENDMDL
MODEL 6
REMARK VINA RESULT:      -5.5      7.009      8.559
REMARK  2 active torsions:
REMARK  status: ('A' for Active; 'I' for Inactive)
REMARK    1  A    between atoms: C_3  and  S_4 
REMARK    2  A    between atoms: C_9  and  N_10 
ROOT
HETATM    1  C   UNL     1      43.864 -10.197  12.079  1.00  0.00     0.050 C 
HETATM    2  C   UNL     1      43.081 -10.285  10.799  1.00  0.00    -0.039 A 
HETATM    3  C   UNL     1      43.525 -10.919   9.628  1.00  0.00     0.067 A 
HETATM    4  C   UNL     1      42.704 -10.967   8.481  1.00  0.00     0.055 A 
HETATM    5  C   UNL     1      41.440 -10.361   8.446  1.00  0.00     0.053 A 
HETATM    6  C   UNL     1      41.027  -9.681   9.612  1.00  0.00     0.061 A 
HETATM    7 CL   UNL     1      39.529  -8.808   9.661  1.00  0.00    -0.082 Cl
HETATM    8  C   UNL     1      41.829  -9.647  10.760  1.00  0.00     0.034 A 
ENDROOT
BRANCH   5   9
HETATM    9  N   UNL     1      40.615 -10.431   7.306  1.00  0.00    -0.376 N 
HETATM   10  C   UNL     1      40.690  -9.325   6.331  1.00  0.00     0.150 C 
HETATM   11  C   UNL     1      39.484  -9.404   5.370  1.00  0.00     0.252 C 
HETATM   12  N   UNL     1      39.415 -10.770   4.723  1.00  0.00    -0.072 N 
HETATM   13  H   UNL     1      40.221 -10.894   4.098  1.00  0.00     0.277 HD
HETATM   14  H   UNL     1      38.573 -10.825   4.136  1.00  0.00     0.277 HD
HETATM   15  C   UNL     1      39.391 -11.893   5.737  1.00  0.00     0.252 C 
HETATM   16  C   UNL     1      40.596 -11.780   6.691  1.00  0.00     0.150 C 
ENDBRANCH   5   9
BRANCH   3  17
HETATM   17  S   UNL     1      45.113 -11.743   9.509  1.00  0.00     0.172 S 
HETATM   18  C   UNL     1      44.960 -12.881   8.159  1.00  0.00     0.167 C 
HETATM   19  O   UNL     1      46.096 -10.731   9.185  1.00  0.00    -0.223 OA
HETATM   20  O   UNL     1      45.255 -12.543  10.715  1.00  0.00    -0.223 OA
ENDBRANCH   3  17
TORSDOF 2
ENDMDL
MODEL 7
REMARK VINA RESULT:      -5.5      2.364      3.618
REMARK  2 active torsions:
REMARK  status: ('A' for Active; 'I' for Inactive)
REMARK    1  A    between atoms: C_3  and  S_4 
REMARK    2  A    between atoms: C_9  and  N_10 
ROOT
HETATM    1  C   UNL     1      44.102 -15.724   7.291  1.00  0.00     0.050 C 
HETATM    2  C   UNL     1      43.453 -15.588   5.942  1.00  0.00    -0.039 A 
HETATM    3  C   UNL     1      43.311 -16.628   5.011  1.00  0.00     0.067 A 
HETATM    4  C   UNL     1      42.665 -16.404   3.776  1.00  0.00     0.055 A 
HETATM    5  C   UNL     1      42.174 -15.142   3.413  1.00  0.00     0.053 A 
HETATM    6  C   UNL     1      42.371 -14.092   4.335  1.00  0.00     0.061 A 
HETATM    7 CL   UNL     1      41.898 -12.465   3.960  1.00  0.00    -0.082 Cl
HETATM    8  C   UNL     1      42.993 -14.313   5.570  1.00  0.00     0.034 A 
ENDROOT
BRANCH   5   9
HETATM    9  N   UNL     1      41.510 -14.929   2.188  1.00  0.00    -0.376 N 
HETATM   10  C   UNL     1      42.097 -15.525   0.972  1.00  0.00     0.150 C 
HETATM   11  C   UNL     1      41.447 -14.891  -0.277  1.00  0.00     0.252 C 
HETATM   12  N   UNL     1      39.941 -15.025  -0.211  1.00  0.00    -0.072 N 
HETATM   13  H   UNL     1      39.681 -16.016  -0.289  1.00  0.00     0.277 HD
HETATM   14  H   UNL     1      39.522 -14.543  -1.017  1.00  0.00     0.277 HD
HETATM   15  C   UNL     1      39.363 -14.454   1.066  1.00  0.00     0.252 C 
HETATM   16  C   UNL     1      40.041 -15.093   2.294  1.00  0.00     0.150 C 
ENDBRANCH   5   9
BRANCH   3  17
HETATM   17  S   UNL     1      43.881 -18.299   5.323  1.00  0.00     0.172 S 
HETATM   18  C   UNL     1      43.751 -19.145   3.770  1.00  0.00     0.167 C 
HETATM   19  O   UNL     1      45.271 -18.210   5.716  1.00  0.00    -0.223 OA
HETATM   20  O   UNL     1      42.905 -18.909   6.213  1.00  0.00    -0.223 OA
ENDBRANCH   3  17
TORSDOF 2
ENDMDL
MODEL 8
REMARK VINA RESULT:      -5.4      4.471      6.583
REMARK  2 active torsions:
REMARK  status: ('A' for Active; 'I' for Inactive)
REMARK    1  A    between atoms: C_3  and  S_4 
REMARK    2  A    between atoms: C_9  and  N_10 
ROOT
HETATM    1  C   UNL     1      39.572 -13.577   2.739  1.00  0.00     0.050 C 
HETATM    2  C   UNL     1      40.390 -14.838   2.730  1.00  0.00    -0.039 A 
HETATM    3  C   UNL     1      40.944 -15.428   1.582  1.00  0.00     0.067 A 
HETATM    4  C   UNL     1      41.717 -16.604   1.681  1.00  0.00     0.055 A 
HETATM    5  C   UNL     1      41.936 -17.249   2.906  1.00  0.00     0.053 A 
HETATM    6  C   UNL     1      41.330 -16.677   4.045  1.00  0.00     0.061 A 
HETATM    7 CL   UNL     1      41.443 -17.434   5.602  1.00  0.00    -0.082 Cl
HETATM    8  C   UNL     1      40.578 -15.498   3.956  1.00  0.00     0.034 A 
ENDROOT
BRANCH   5   9
HETATM    9  N   UNL     1      42.728 -18.411   3.002  1.00  0.00    -0.376 N 
HETATM   10  C   UNL     1      42.966 -19.187   1.769  1.00  0.00     0.150 C 
HETATM   11  C   UNL     1      43.531 -20.577   2.138  1.00  0.00     0.252 C 
HETATM   12  N   UNL     1      44.763 -20.432   3.003  1.00  0.00    -0.072 N 
HETATM   13  H   UNL     1      45.521 -20.010   2.452  1.00  0.00     0.277 HD
HETATM   14  H   UNL     1      45.088 -21.364   3.289  1.00  0.00     0.277 HD
HETATM   15  C   UNL     1      44.512 -19.590   4.236  1.00  0.00     0.252 C 
HETATM   16  C   UNL     1      43.936 -18.217   3.839  1.00  0.00     0.150 C 
ENDBRANCH   5   9
BRANCH   3  17
HETATM   17  S   UNL     1      40.760 -14.727  -0.058  1.00  0.00     0.172 S 
HETATM   18  C   UNL     1      41.769 -13.270  -0.070  1.00  0.00     0.167 C 
HETATM   19  O   UNL     1      41.288 -15.695  -0.997  1.00  0.00    -0.223 OA
HETATM   20  O   UNL     1      39.380 -14.281  -0.164  1.00  0.00    -0.223 OA
ENDBRANCH   3  17
TORSDOF 2
ENDMDL
MODEL 9
REMARK VINA RESULT:      -5.3      3.729      5.375
REMARK  2 active torsions:
REMARK  status: ('A' for Active; 'I' for Inactive)
REMARK    1  A    between atoms: C_3  and  S_4 
REMARK    2  A    between atoms: C_9  and  N_10 
ROOT
HETATM    1  C   UNL     1      40.065 -14.693   5.091  1.00  0.00     0.050 C 
HETATM    2  C   UNL     1      40.398 -14.644   3.626  1.00  0.00    -0.039 A 
HETATM    3  C   UNL     1      41.424 -15.379   3.011  1.00  0.00     0.067 A 
HETATM    4  C   UNL     1      41.644 -15.280   1.621  1.00  0.00     0.055 A 
HETATM    5  C   UNL     1      40.883 -14.429   0.807  1.00  0.00     0.053 A 
HETATM    6  C   UNL     1      39.889 -13.656   1.445  1.00  0.00     0.061 A 
HETATM    7 CL   UNL     1      38.949 -12.495   0.565  1.00  0.00    -0.082 Cl
HETATM    8  C   UNL     1      39.654 -13.765   2.821  1.00  0.00     0.034 A 
ENDROOT
BRANCH   5   9
HETATM    9  N   UNL     1      41.092 -14.352  -0.585  1.00  0.00    -0.376 N 
HETATM   10  C   UNL     1      42.096 -13.389  -1.079  1.00  0.00     0.150 C 
HETATM   11  C   UNL     1      41.920 -13.199  -2.601  1.00  0.00     0.252 C 
HETATM   12  N   UNL     1      41.973 -14.535  -3.309  1.00  0.00    -0.072 N 
HETATM   13  H   UNL     1      42.919 -14.928  -3.229  1.00  0.00     0.277 HD
HETATM   14  H   UNL     1      41.792 -14.396  -4.311  1.00  0.00     0.277 HD
HETATM   15  C   UNL     1      40.972 -15.526  -2.754  1.00  0.00     0.252 C 
HETATM   16  C   UNL     1      41.161 -15.684  -1.232  1.00  0.00     0.150 C 
ENDBRANCH   5   9
BRANCH   3  17
HETATM   17  S   UNL     1      42.484 -16.513   3.910  1.00  0.00     0.172 S 
HETATM   18  C   UNL     1      43.591 -17.188   2.702  1.00  0.00     0.167 C 
HETATM   19  O   UNL     1      43.229 -15.728   4.872  1.00  0.00    -0.223 OA
HETATM   20  O   UNL     1      41.635 -17.606   4.356  1.00  0.00    -0.223 OA
ENDBRANCH   3  17
TORSDOF 2
ENDMDL
MODEL 10
REMARK VINA RESULT:      -5.2      1.925      2.354
REMARK  2 active torsions:
REMARK  status: ('A' for Active; 'I' for Inactive)
REMARK    1  A    between atoms: C_3  and  S_4 
REMARK    2  A    between atoms: C_9  and  N_10 
ROOT
HETATM    1  C   UNL     1      43.040 -19.224   5.254  1.00  0.00     0.050 C 
HETATM    2  C   UNL     1      42.671 -17.847   4.776  1.00  0.00    -0.039 A 
HETATM    3  C   UNL     1      43.056 -16.650   5.402  1.00  0.00     0.067 A 
HETATM    4  C   UNL     1      42.676 -15.404   4.862  1.00  0.00     0.055 A 
HETATM    5  C   UNL     1      41.879 -15.303   3.713  1.00  0.00     0.053 A 
HETATM    6  C   UNL     1      41.455 -16.513   3.123  1.00  0.00     0.061 A 
HETATM    7 CL   UNL     1      40.387 -16.522   1.757  1.00  0.00    -0.082 Cl
HETATM    8  C   UNL     1      41.846 -17.754   3.643  1.00  0.00     0.034 A 
ENDROOT
BRANCH   5   9
HETATM    9  N   UNL     1      41.522 -14.054   3.165  1.00  0.00    -0.376 N 
HETATM   10  C   UNL     1      40.964 -13.035   4.075  1.00  0.00     0.150 C 
HETATM   11  C   UNL     1      40.315 -11.906   3.247  1.00  0.00     0.252 C 
HETATM   12  N   UNL     1      41.309 -11.343   2.255  1.00  0.00    -0.072 N 
HETATM   13  H   UNL     1      42.062 -10.859   2.761  1.00  0.00     0.277 HD
HETATM   14  H   UNL     1      40.842 -10.637   1.671  1.00  0.00     0.277 HD
HETATM   15  C   UNL     1      41.908 -12.410   1.364  1.00  0.00     0.252 C 
HETATM   16  C   UNL     1      42.534 -13.530   2.217  1.00  0.00     0.150 C 
ENDBRANCH   5   9
BRANCH   3  17
HETATM   17  S   UNL     1      44.075 -16.606   6.876  1.00  0.00     0.172 S 
HETATM   18  C   UNL     1      45.325 -17.838   6.628  1.00  0.00     0.167 C 
HETATM   19  O   UNL     1      44.686 -15.295   6.934  1.00  0.00    -0.223 OA
HETATM   20  O   UNL     1      43.239 -17.074   7.971  1.00  0.00    -0.223 OA
ENDBRANCH   3  17
TORSDOF 2
ENDMDL
