MODEL 1
REMARK VINA RESULT:     -10.0      0.000      0.000
REMARK  6 active torsions:
REMARK  status: ('A' for Active; 'I' for Inactive)
REMARK       I    between atoms: N_2  and  C_3 
REMARK    1  A    between atoms: N_2  and  C_15 
REMARK       I    between atoms: C_3  and  N_4 
REMARK    2  A    between atoms: N_4  and  C_5 
REMARK    3  A    between atoms: C_15  and  C_16 
REMARK    4  A    between atoms: C_16  and  C_17 
REMARK    5  A    between atoms: C_17  and  C_18 
REMARK    6  A    between atoms: C_22  and  C_23 
ROOT
HETATM    1  C   UNL     1      44.251 -13.263   7.600  1.00  0.00     0.127 C 
ENDROOT
BRANCH   1   2
HETATM    2  N   UNL     1      45.298 -12.556   8.346  1.00  0.00    -0.338 N 
HETATM    3  C   UNL     1      46.619 -12.541   7.726  1.00  0.00     0.154 C 
HETATM    4  C   UNL     1      45.059 -11.566   9.299  1.00  0.00     0.322 C 
HETATM    5  N   UNL     1      43.854 -11.667   9.950  1.00  0.00    -0.309 N 
HETATM    6  O   UNL     1      45.860 -10.649   9.457  1.00  0.00    -0.247 OA
HETATM    7  H   UNL     1      43.411 -12.571   9.921  1.00  0.00     0.170 HD
BRANCH   5   8
HETATM    8  C   UNL     1      43.241 -10.713  10.792  1.00  0.00     0.036 A 
HETATM    9  C   UNL     1      43.624 -10.481  12.117  1.00  0.00     0.039 A 
HETATM   10  C   UNL     1      42.959  -9.504  12.843  1.00  0.00    -0.024 A 
HETATM   11  C   UNL     1      41.950  -8.743  12.278  1.00  0.00    -0.026 A 
HETATM   12  C   UNL     1      43.172  -9.075  14.248  1.00  0.00     0.207 C 
HETATM   13  C   UNL     1      41.463  -7.759  13.277  1.00  0.00     0.207 C 
HETATM   14  C   UNL     1      41.561  -8.939  10.967  1.00  0.00     0.012 A 
HETATM   15  O   UNL     1      42.078  -8.167  14.521  1.00  0.00    -0.382 OA
HETATM   16  C   UNL     1      42.206  -9.938  10.229  1.00  0.00     0.030 A 
ENDBRANCH   5   8
ENDBRANCH   1   2
BRANCH   1  17
HETATM   17  C   UNL     1      44.717 -14.593   6.986  1.00  0.00     0.026 C 
BRANCH  17  18
HETATM   18  C   UNL     1      43.639 -15.683   6.977  1.00  0.00     0.060 C 
BRANCH  18  19
HETATM   19  C   UNL     1      44.063 -16.946   6.311  1.00  0.00     0.030 A 
HETATM   20  N   UNL     1      45.225 -17.612   6.595  1.00  0.00    -0.282 N 
HETATM   21  H   UNL     1      45.938 -17.388   7.286  1.00  0.00     0.189 HD
HETATM   22  N   UNL     1      45.420 -18.697   5.830  1.00  0.00    -0.174 NA
HETATM   23  C   UNL     1      44.369 -18.734   4.998  1.00  0.00     0.089 A 
HETATM   24  C   UNL     1      43.482 -17.661   5.287  1.00  0.00     0.060 A 
BRANCH  23  25
HETATM   25  C   UNL     1      44.250 -19.762   3.955  1.00  0.00    -0.003 A 
HETATM   26  C   UNL     1      44.681 -21.076   4.176  1.00  0.00     0.056 A 
HETATM   27  C   UNL     1      44.536 -22.035   3.176  1.00  0.00     0.117 A 
HETATM   28  F   UNL     1      44.949 -23.289   3.406  1.00  0.00    -0.206 F 
HETATM   29  C   UNL     1      43.970 -21.719   1.947  1.00  0.00     0.042 A 
HETATM   30  C   UNL     1      43.540 -20.418   1.711  1.00  0.00     0.004 A 
HETATM   31  C   UNL     1      43.680 -19.446   2.708  1.00  0.00     0.014 A 
ENDBRANCH  23  25
ENDBRANCH  18  19
ENDBRANCH  17  18
ENDBRANCH   1  17
TORSDOF 6
ENDMDL
MODEL 2
REMARK VINA RESULT:      -9.9      4.682     11.784
REMARK  6 active torsions:
REMARK  status: ('A' for Active; 'I' for Inactive)
REMARK       I    between atoms: N_2  and  C_3 
REMARK    1  A    between atoms: N_2  and  C_15 
REMARK       I    between atoms: C_3  and  N_4 
REMARK    2  A    between atoms: N_4  and  C_5 
REMARK    3  A    between atoms: C_15  and  C_16 
REMARK    4  A    between atoms: C_16  and  C_17 
REMARK    5  A    between atoms: C_17  and  C_18 
REMARK    6  A    between atoms: C_22  and  C_23 
ROOT
HETATM    1  C   UNL     1      44.010 -14.407   5.526  1.00  0.00     0.127 C 
ENDROOT
BRANCH   1   2
HETATM    2  N   UNL     1      42.710 -15.077   5.417  1.00  0.00    -0.338 N 
HETATM    3  C   UNL     1      41.540 -14.219   5.570  1.00  0.00     0.154 C 
HETATM    4  C   UNL     1      42.498 -16.290   4.762  1.00  0.00     0.322 C 
HETATM    5  N   UNL     1      43.584 -17.129   4.729  1.00  0.00    -0.309 N 
HETATM    6  O   UNL     1      41.427 -16.515   4.204  1.00  0.00    -0.247 OA
HETATM    7  H   UNL     1      44.299 -16.952   5.415  1.00  0.00     0.170 HD
BRANCH   5   8
HETATM    8  C   UNL     1      43.746 -18.307   3.966  1.00  0.00     0.036 A 
HETATM    9  C   UNL     1      44.146 -19.535   4.502  1.00  0.00     0.039 A 
HETATM   10  C   UNL     1      44.254 -20.629   3.656  1.00  0.00    -0.024 A 
HETATM   11  C   UNL     1      43.952 -20.535   2.308  1.00  0.00    -0.026 A 
HETATM   12  C   UNL     1      44.657 -22.021   3.975  1.00  0.00     0.207 C 
HETATM   13  C   UNL     1      44.119 -21.868   1.677  1.00  0.00     0.207 C 
HETATM   14  C   UNL     1      43.541 -19.339   1.754  1.00  0.00     0.012 A 
HETATM   15  O   UNL     1      44.774 -22.671   2.686  1.00  0.00    -0.382 OA
HETATM   16  C   UNL     1      43.449 -18.220   2.590  1.00  0.00     0.030 A 
ENDBRANCH   5   8
ENDBRANCH   1   2
BRANCH   1  17
HETATM   17  C   UNL     1      44.661 -14.535   6.914  1.00  0.00     0.026 C 
BRANCH  17  18
HETATM   18  C   UNL     1      45.808 -13.547   7.155  1.00  0.00     0.060 C 
BRANCH  18  19
HETATM   19  C   UNL     1      45.476 -12.458   8.114  1.00  0.00     0.030 A 
HETATM   20  N   UNL     1      46.368 -11.513   8.544  1.00  0.00    -0.282 N 
HETATM   21  H   UNL     1      47.342 -11.384   8.276  1.00  0.00     0.189 HD
HETATM   22  N   UNL     1      45.855 -10.666   9.449  1.00  0.00    -0.174 NA
HETATM   23  C   UNL     1      44.594 -11.079   9.643  1.00  0.00     0.089 A 
HETATM   24  C   UNL     1      44.312 -12.190   8.802  1.00  0.00     0.060 A 
BRANCH  23  25
HETATM   25  C   UNL     1      43.713 -10.427  10.621  1.00  0.00    -0.003 A 
HETATM   26  C   UNL     1      44.101 -10.269  11.957  1.00  0.00     0.056 A 
HETATM   27  C   UNL     1      43.255  -9.627  12.858  1.00  0.00     0.117 A 
HETATM   28  F   UNL     1      43.644  -9.480  14.132  1.00  0.00    -0.206 F 
HETATM   29  C   UNL     1      42.018  -9.134  12.463  1.00  0.00     0.042 A 
HETATM   30  C   UNL     1      41.616  -9.285  11.140  1.00  0.00     0.004 A 
HETATM   31  C   UNL     1      42.459  -9.928  10.226  1.00  0.00     0.014 A 
ENDBRANCH  23  25
ENDBRANCH  18  19
ENDBRANCH  17  18
ENDBRANCH   1  17
TORSDOF 6
ENDMDL
MODEL 3
REMARK VINA RESULT:      -9.5      5.905      7.245
REMARK  6 active torsions:
REMARK  status: ('A' for Active; 'I' for Inactive)
REMARK       I    between atoms: N_2  and  C_3 
REMARK    1  A    between atoms: N_2  and  C_15 
REMARK       I    between atoms: C_3  and  N_4 
REMARK    2  A    between atoms: N_4  and  C_5 
REMARK    3  A    between atoms: C_15  and  C_16 
REMARK    4  A    between atoms: C_16  and  C_17 
REMARK    5  A    between atoms: C_17  and  C_18 
REMARK    6  A    between atoms: C_22  and  C_23 
ROOT
HETATM    1  C   UNL     1      41.796 -12.694   0.300  1.00  0.00     0.127 C 
ENDROOT
BRANCH   1   2
HETATM    2  N   UNL     1      41.625 -11.942   1.549  1.00  0.00    -0.338 N 
HETATM    3  C   UNL     1      40.953 -10.653   1.424  1.00  0.00     0.154 C 
HETATM    4  C   UNL     1      41.627 -12.511   2.822  1.00  0.00     0.322 C 
HETATM    5  N   UNL     1      42.361 -13.666   2.940  1.00  0.00    -0.309 N 
HETATM    6  O   UNL     1      40.947 -12.024   3.720  1.00  0.00    -0.247 OA
HETATM    7  H   UNL     1      43.056 -13.822   2.228  1.00  0.00     0.170 HD
BRANCH   5   8
HETATM    8  C   UNL     1      42.377 -14.575   4.021  1.00  0.00     0.036 A 
HETATM    9  C   UNL     1      43.441 -14.699   4.920  1.00  0.00     0.039 A 
HETATM   10  C   UNL     1      43.336 -15.617   5.955  1.00  0.00    -0.024 A 
HETATM   11  C   UNL     1      42.200 -16.387   6.128  1.00  0.00    -0.026 A 
HETATM   12  C   UNL     1      44.315 -15.934   7.024  1.00  0.00     0.207 C 
HETATM   13  C   UNL     1      42.364 -17.236   7.334  1.00  0.00     0.207 C 
HETATM   14  C   UNL     1      41.128 -16.276   5.264  1.00  0.00     0.012 A 
HETATM   15  O   UNL     1      43.757 -17.089   7.697  1.00  0.00    -0.382 OA
HETATM   16  C   UNL     1      41.227 -15.371   4.201  1.00  0.00     0.030 A 
ENDBRANCH   5   8
ENDBRANCH   1   2
BRANCH   1  17
HETATM   17  C   UNL     1      40.753 -13.805   0.097  1.00  0.00     0.026 C 
BRANCH  17  18
HETATM   18  C   UNL     1      41.299 -15.046  -0.619  1.00  0.00     0.060 C 
BRANCH  18  19
HETATM   19  C   UNL     1      41.506 -16.217   0.277  1.00  0.00     0.030 A 
HETATM   20  N   UNL     1      40.502 -16.852   0.957  1.00  0.00    -0.282 N 
HETATM   21  H   UNL     1      39.502 -16.663   0.945  1.00  0.00     0.189 HD
HETATM   22  N   UNL     1      40.937 -17.848   1.745  1.00  0.00    -0.174 NA
HETATM   23  C   UNL     1      42.270 -17.854   1.602  1.00  0.00     0.089 A 
HETATM   24  C   UNL     1      42.663 -16.857   0.668  1.00  0.00     0.060 A 
BRANCH  23  25
HETATM   25  C   UNL     1      43.121 -18.780   2.361  1.00  0.00    -0.003 A 
HETATM   26  C   UNL     1      43.452 -20.043   1.857  1.00  0.00     0.056 A 
HETATM   27  C   UNL     1      44.279 -20.892   2.589  1.00  0.00     0.117 A 
HETATM   28  F   UNL     1      44.590 -22.095   2.088  1.00  0.00    -0.206 F 
HETATM   29  C   UNL     1      44.789 -20.516   3.825  1.00  0.00     0.042 A 
HETATM   30  C   UNL     1      44.467 -19.265   4.342  1.00  0.00     0.004 A 
HETATM   31  C   UNL     1      43.638 -18.405   3.615  1.00  0.00     0.014 A 
ENDBRANCH  23  25
ENDBRANCH  18  19
ENDBRANCH  17  18
ENDBRANCH   1  17
TORSDOF 6
ENDMDL
MODEL 4
REMARK VINA RESULT:      -9.5      6.297      7.565
REMARK  6 active torsions:
REMARK  status: ('A' for Active; 'I' for Inactive)
REMARK       I    between atoms: N_2  and  C_3 
REMARK    1  A    between atoms: N_2  and  C_15 
REMARK       I    between atoms: C_3  and  N_4 
REMARK    2  A    between atoms: N_4  and  C_5 
REMARK    3  A    between atoms: C_15  and  C_16 
REMARK    4  A    between atoms: C_16  and  C_17 
REMARK    5  A    between atoms: C_17  and  C_18 
REMARK    6  A    between atoms: C_22  and  C_23 
ROOT
HETATM    1  C   UNL     1      40.330 -13.491   1.623  1.00  0.00     0.127 C 
ENDROOT
BRANCH   1   2
HETATM    2  N   UNL     1      40.121 -13.200   3.046  1.00  0.00    -0.338 N 
HETATM    3  C   UNL     1      39.044 -12.263   3.350  1.00  0.00     0.154 C 
HETATM    4  C   UNL     1      40.519 -14.033   4.091  1.00  0.00     0.322 C 
HETATM    5  N   UNL     1      41.606 -14.826   3.818  1.00  0.00    -0.309 N 
HETATM    6  O   UNL     1      39.869 -14.078   5.132  1.00  0.00    -0.247 OA
HETATM    7  H   UNL     1      42.189 -14.528   3.053  1.00  0.00     0.170 HD
BRANCH   5   8
HETATM    8  C   UNL     1      42.101 -15.909   4.578  1.00  0.00     0.036 A 
HETATM    9  C   UNL     1      43.333 -15.900   5.239  1.00  0.00     0.039 A 
HETATM   10  C   UNL     1      43.707 -17.018   5.970  1.00  0.00    -0.024 A 
HETATM   11  C   UNL     1      42.879 -18.123   6.078  1.00  0.00    -0.026 A 
HETATM   12  C   UNL     1      44.948 -17.254   6.749  1.00  0.00     0.207 C 
HETATM   13  C   UNL     1      43.526 -19.133   6.952  1.00  0.00     0.207 C 
HETATM   14  C   UNL     1      41.650 -18.154   5.448  1.00  0.00     0.012 A 
HETATM   15  O   UNL     1      44.876 -18.648   7.135  1.00  0.00    -0.382 OA
HETATM   16  C   UNL     1      41.269 -17.043   4.687  1.00  0.00     0.030 A 
ENDBRANCH   5   8
ENDBRANCH   1   2
BRANCH   1  17
HETATM   17  C   UNL     1      39.964 -14.929   1.223  1.00  0.00     0.026 C 
BRANCH  17  18
HETATM   18  C   UNL     1      40.933 -15.558   0.215  1.00  0.00     0.060 C 
BRANCH  18  19
HETATM   19  C   UNL     1      41.950 -16.454   0.833  1.00  0.00     0.030 A 
HETATM   20  N   UNL     1      43.255 -16.101   1.049  1.00  0.00    -0.282 N 
HETATM   21  H   UNL     1      43.717 -15.214   0.863  1.00  0.00     0.189 HD
HETATM   22  N   UNL     1      43.997 -17.091   1.568  1.00  0.00    -0.174 NA
HETATM   23  C   UNL     1      43.164 -18.138   1.674  1.00  0.00     0.089 A 
HETATM   24  C   UNL     1      41.861 -17.766   1.243  1.00  0.00     0.060 A 
BRANCH  23  25
HETATM   25  C   UNL     1      43.629 -19.445   2.156  1.00  0.00    -0.003 A 
HETATM   26  C   UNL     1      44.386 -19.561   3.328  1.00  0.00     0.056 A 
HETATM   27  C   UNL     1      44.794 -20.815   3.774  1.00  0.00     0.117 A 
HETATM   28  F   UNL     1      45.514 -20.909   4.900  1.00  0.00    -0.206 F 
HETATM   29  C   UNL     1      44.470 -21.972   3.075  1.00  0.00     0.042 A 
HETATM   30  C   UNL     1      43.721 -21.874   1.908  1.00  0.00     0.004 A 
HETATM   31  C   UNL     1      43.305 -20.618   1.451  1.00  0.00     0.014 A 
ENDBRANCH  23  25
ENDBRANCH  18  19
ENDBRANCH  17  18
ENDBRANCH   1  17
TORSDOF 6
ENDMDL
MODEL 5
REMARK VINA RESULT:      -9.1      2.864      3.406
REMARK  6 active torsions:
REMARK  status: ('A' for Active; 'I' for Inactive)
REMARK       I    between atoms: N_2  and  C_3 
REMARK    1  A    between atoms: N_2  and  C_15 
REMARK       I    between atoms: C_3  and  N_4 
REMARK    2  A    between atoms: N_4  and  C_5 
REMARK    3  A    between atoms: C_15  and  C_16 
REMARK    4  A    between atoms: C_16  and  C_17 
REMARK    5  A    between atoms: C_17  and  C_18 
REMARK    6  A    between atoms: C_22  and  C_23 
ROOT
HETATM    1  C   UNL     1      40.423 -12.173   6.359  1.00  0.00     0.127 C 
ENDROOT
BRANCH   1   2
HETATM    2  N   UNL     1      41.254 -10.968   6.255  1.00  0.00    -0.338 N 
HETATM    3  C   UNL     1      41.097 -10.195   5.027  1.00  0.00     0.154 C 
HETATM    4  C   UNL     1      41.798 -10.286   7.342  1.00  0.00     0.322 C 
HETATM    5  N   UNL     1      42.042 -11.061   8.449  1.00  0.00    -0.309 N 
HETATM    6  O   UNL     1      41.959  -9.070   7.295  1.00  0.00    -0.247 OA
HETATM    7  H   UNL     1      42.107 -12.053   8.289  1.00  0.00     0.170 HD
BRANCH   5   8
HETATM    8  C   UNL     1      42.377 -10.629   9.752  1.00  0.00     0.036 A 
HETATM    9  C   UNL     1      41.457 -10.086  10.655  1.00  0.00     0.039 A 
HETATM   10  C   UNL     1      41.899  -9.712  11.915  1.00  0.00    -0.024 A 
HETATM   11  C   UNL     1      43.216  -9.888  12.302  1.00  0.00    -0.026 A 
HETATM   12  C   UNL     1      41.130  -9.117  13.037  1.00  0.00     0.207 C 
HETATM   13  C   UNL     1      43.376  -9.439  13.708  1.00  0.00     0.207 C 
HETATM   14  C   UNL     1      44.144 -10.436  11.437  1.00  0.00     0.012 A 
HETATM   15  O   UNL     1      42.135  -8.765  14.019  1.00  0.00    -0.382 OA
HETATM   16  C   UNL     1      43.718 -10.796  10.154  1.00  0.00     0.030 A 
ENDBRANCH   5   8
ENDBRANCH   1   2
BRANCH   1  17
HETATM   17  C   UNL     1      40.686 -13.207   5.252  1.00  0.00     0.026 C 
BRANCH  17  18
HETATM   18  C   UNL     1      40.270 -14.635   5.624  1.00  0.00     0.060 C 
BRANCH  18  19
HETATM   19  C   UNL     1      40.910 -15.688   4.787  1.00  0.00     0.030 A 
HETATM   20  N   UNL     1      40.485 -16.035   3.533  1.00  0.00    -0.282 N 
HETATM   21  H   UNL     1      39.727 -15.639   2.981  1.00  0.00     0.189 HD
HETATM   22  N   UNL     1      41.182 -17.047   2.995  1.00  0.00    -0.174 NA
HETATM   23  C   UNL     1      42.077 -17.397   3.931  1.00  0.00     0.089 A 
HETATM   24  C   UNL     1      41.950 -16.547   5.064  1.00  0.00     0.060 A 
BRANCH  23  25
HETATM   25  C   UNL     1      42.998 -18.523   3.732  1.00  0.00    -0.003 A 
HETATM   26  C   UNL     1      42.980 -19.279   2.553  1.00  0.00     0.056 A 
HETATM   27  C   UNL     1      43.880 -20.327   2.382  1.00  0.00     0.117 A 
HETATM   28  F   UNL     1      43.853 -21.036   1.246  1.00  0.00    -0.206 F 
HETATM   29  C   UNL     1      44.807 -20.652   3.365  1.00  0.00     0.042 A 
HETATM   30  C   UNL     1      44.836 -19.914   4.544  1.00  0.00     0.004 A 
HETATM   31  C   UNL     1      43.937 -18.858   4.725  1.00  0.00     0.014 A 
ENDBRANCH  23  25
ENDBRANCH  18  19
ENDBRANCH  17  18
ENDBRANCH   1  17
TORSDOF 6
ENDMDL
MODEL 6
REMARK VINA RESULT:      -9.0      1.743      2.113
REMARK  6 active torsions:
REMARK  status: ('A' for Active; 'I' for Inactive)
REMARK       I    between atoms: N_2  and  C_3 
REMARK    1  A    between atoms: N_2  and  C_15 
REMARK       I    between atoms: C_3  and  N_4 
REMARK    2  A    between atoms: N_4  and  C_5 
REMARK    3  A    between atoms: C_15  and  C_16 
REMARK    4  A    between atoms: C_16  and  C_17 
REMARK    5  A    between atoms: C_17  and  C_18 
REMARK    6  A    between atoms: C_22  and  C_23 
ROOT
HETATM    1  C   UNL     1      43.543 -13.188   6.812  1.00  0.00     0.127 C 
ENDROOT
BRANCH   1   2
HETATM    2  N   UNL     1      44.716 -13.078   7.687  1.00  0.00    -0.338 N 
HETATM    3  C   UNL     1      46.001 -13.380   7.064  1.00  0.00     0.154 C 
HETATM    4  C   UNL     1      44.766 -12.314   8.852  1.00  0.00     0.322 C 
HETATM    5  N   UNL     1      43.559 -12.139   9.482  1.00  0.00    -0.309 N 
HETATM    6  O   UNL     1      45.819 -11.792   9.208  1.00  0.00    -0.247 OA
HETATM    7  H   UNL     1      42.838 -12.801   9.247  1.00  0.00     0.170 HD
BRANCH   5   8
HETATM    8  C   UNL     1      43.253 -11.251  10.538  1.00  0.00     0.036 A 
HETATM    9  C   UNL     1      42.767  -9.953  10.351  1.00  0.00     0.039 A 
HETATM   10  C   UNL     1      42.487  -9.178  11.466  1.00  0.00    -0.024 A 
HETATM   11  C   UNL     1      42.653  -9.669  12.750  1.00  0.00    -0.026 A 
HETATM   12  C   UNL     1      41.971  -7.788  11.532  1.00  0.00     0.207 C 
HETATM   13  C   UNL     1      42.233  -8.633  13.726  1.00  0.00     0.207 C 
HETATM   14  C   UNL     1      43.118 -10.952  12.966  1.00  0.00     0.012 A 
HETATM   15  O   UNL     1      42.055  -7.436  12.935  1.00  0.00    -0.382 OA
HETATM   16  C   UNL     1      43.428 -11.739  11.850  1.00  0.00     0.030 A 
ENDBRANCH   5   8
ENDBRANCH   1   2
BRANCH   1  17
HETATM   17  C   UNL     1      43.381 -14.571   6.161  1.00  0.00     0.026 C 
BRANCH  17  18
HETATM   18  C   UNL     1      42.843 -14.523   4.727  1.00  0.00     0.060 C 
BRANCH  18  19
HETATM   19  C   UNL     1      43.061 -15.779   3.957  1.00  0.00     0.030 A 
HETATM   20  N   UNL     1      42.673 -15.962   2.657  1.00  0.00    -0.282 N 
HETATM   21  H   UNL     1      42.225 -15.302   2.025  1.00  0.00     0.189 HD
HETATM   22  N   UNL     1      42.927 -17.194   2.192  1.00  0.00    -0.174 NA
HETATM   23  C   UNL     1      43.474 -17.855   3.223  1.00  0.00     0.089 A 
HETATM   24  C   UNL     1      43.595 -16.989   4.344  1.00  0.00     0.060 A 
BRANCH  23  25
HETATM   25  C   UNL     1      43.840 -19.273   3.120  1.00  0.00    -0.003 A 
HETATM   26  C   UNL     1      44.475 -19.940   4.176  1.00  0.00     0.056 A 
HETATM   27  C   UNL     1      44.790 -21.291   4.059  1.00  0.00     0.117 A 
HETATM   28  F   UNL     1      45.393 -21.914   5.081  1.00  0.00    -0.206 F 
HETATM   29  C   UNL     1      44.492 -22.006   2.906  1.00  0.00     0.042 A 
HETATM   30  C   UNL     1      43.865 -21.359   1.846  1.00  0.00     0.004 A 
HETATM   31  C   UNL     1      43.542 -20.001   1.954  1.00  0.00     0.014 A 
ENDBRANCH  23  25
ENDBRANCH  18  19
ENDBRANCH  17  18
ENDBRANCH   1  17
TORSDOF 6
ENDMDL
MODEL 7
REMARK VINA RESULT:      -9.0      5.443      6.912
REMARK  6 active torsions:
REMARK  status: ('A' for Active; 'I' for Inactive)
REMARK       I    between atoms: N_2  and  C_3 
REMARK    1  A    between atoms: N_2  and  C_15 
REMARK       I    between atoms: C_3  and  N_4 
REMARK    2  A    between atoms: N_4  and  C_5 
REMARK    3  A    between atoms: C_15  and  C_16 
REMARK    4  A    between atoms: C_16  and  C_17 
REMARK    5  A    between atoms: C_17  and  C_18 
REMARK    6  A    between atoms: C_22  and  C_23 
ROOT
HETATM    1  C   UNL     1      41.643 -12.157   1.618  1.00  0.00     0.127 C 
ENDROOT
BRANCH   1   2
HETATM    2  N   UNL     1      41.402 -11.553   2.933  1.00  0.00    -0.338 N 
HETATM    3  C   UNL     1      40.459 -10.439   2.956  1.00  0.00     0.154 C 
HETATM    4  C   UNL     1      41.617 -12.197   4.151  1.00  0.00     0.322 C 
HETATM    5  N   UNL     1      42.590 -13.165   4.131  1.00  0.00    -0.309 N 
HETATM    6  O   UNL     1      40.913 -11.938   5.123  1.00  0.00    -0.247 OA
HETATM    7  H   UNL     1      43.250 -13.112   3.372  1.00  0.00     0.170 HD
BRANCH   5   8
HETATM    8  C   UNL     1      42.880 -14.123   5.128  1.00  0.00     0.036 A 
HETATM    9  C   UNL     1      42.100 -15.258   5.370  1.00  0.00     0.039 A 
HETATM   10  C   UNL     1      42.493 -16.139   6.367  1.00  0.00    -0.024 A 
HETATM   11  C   UNL     1      43.647 -15.931   7.102  1.00  0.00    -0.026 A 
HETATM   12  C   UNL     1      41.843 -17.396   6.813  1.00  0.00     0.207 C 
HETATM   13  C   UNL     1      43.827 -17.054   8.056  1.00  0.00     0.207 C 
HETATM   14  C   UNL     1      44.446 -14.827   6.876  1.00  0.00     0.012 A 
HETATM   15  O   UNL     1      42.581 -17.786   7.997  1.00  0.00    -0.382 OA
HETATM   16  C   UNL     1      44.049 -13.916   5.889  1.00  0.00     0.030 A 
ENDBRANCH   5   8
ENDBRANCH   1   2
BRANCH   1  17
HETATM   17  C   UNL     1      40.635 -13.257   1.245  1.00  0.00     0.026 C 
BRANCH  17  18
HETATM   18  C   UNL     1      41.128 -14.204   0.146  1.00  0.00     0.060 C 
BRANCH  18  19
HETATM   19  C   UNL     1      41.470 -15.569   0.634  1.00  0.00     0.030 A 
HETATM   20  N   UNL     1      40.663 -16.664   0.482  1.00  0.00    -0.282 N 
HETATM   21  H   UNL     1      39.762 -16.734   0.015  1.00  0.00     0.189 HD
HETATM   22  N   UNL     1      41.157 -17.774   1.051  1.00  0.00    -0.174 NA
HETATM   23  C   UNL     1      42.312 -17.396   1.617  1.00  0.00     0.089 A 
HETATM   24  C   UNL     1      42.554 -16.020   1.355  1.00  0.00     0.060 A 
BRANCH  23  25
HETATM   25  C   UNL     1      43.130 -18.335   2.395  1.00  0.00    -0.003 A 
HETATM   26  C   UNL     1      43.781 -17.934   3.569  1.00  0.00     0.056 A 
HETATM   27  C   UNL     1      44.531 -18.852   4.299  1.00  0.00     0.117 A 
HETATM   28  F   UNL     1      45.143 -18.452   5.423  1.00  0.00    -0.206 F 
HETATM   29  C   UNL     1      44.658 -20.173   3.888  1.00  0.00     0.042 A 
HETATM   30  C   UNL     1      44.021 -20.587   2.724  1.00  0.00     0.004 A 
HETATM   31  C   UNL     1      43.263 -19.673   1.983  1.00  0.00     0.014 A 
ENDBRANCH  23  25
ENDBRANCH  18  19
ENDBRANCH  17  18
ENDBRANCH   1  17
TORSDOF 6
ENDMDL
MODEL 8
REMARK VINA RESULT:      -8.8      5.840      9.177
REMARK  6 active torsions:
REMARK  status: ('A' for Active; 'I' for Inactive)
REMARK       I    between atoms: N_2  and  C_3 
REMARK    1  A    between atoms: N_2  and  C_15 
REMARK       I    between atoms: C_3  and  N_4 
REMARK    2  A    between atoms: N_4  and  C_5 
REMARK    3  A    between atoms: C_15  and  C_16 
REMARK    4  A    between atoms: C_16  and  C_17 
REMARK    5  A    between atoms: C_17  and  C_18 
REMARK    6  A    between atoms: C_22  and  C_23 
ROOT
HETATM    1  C   UNL     1      41.932 -13.076   4.884  1.00  0.00     0.127 C 
ENDROOT
BRANCH   1   2
HETATM    2  N   UNL     1      40.589 -12.991   4.298  1.00  0.00    -0.338 N 
HETATM    3  C   UNL     1      39.566 -12.385   5.143  1.00  0.00     0.154 C 
HETATM    4  C   UNL     1      40.321 -13.008   2.929  1.00  0.00     0.322 C 
HETATM    5  N   UNL     1      41.242 -13.683   2.167  1.00  0.00    -0.309 N 
HETATM    6  O   UNL     1      39.363 -12.388   2.477  1.00  0.00    -0.247 OA
HETATM    7  H   UNL     1      41.824 -14.343   2.657  1.00  0.00     0.170 HD
BRANCH   5   8
HETATM    8  C   UNL     1      41.363 -13.690   0.759  1.00  0.00     0.036 A 
HETATM    9  C   UNL     1      40.999 -14.770  -0.050  1.00  0.00     0.039 A 
HETATM   10  C   UNL     1      41.147 -14.655  -1.425  1.00  0.00    -0.024 A 
HETATM   11  C   UNL     1      41.620 -13.492  -2.007  1.00  0.00    -0.026 A 
HETATM   12  C   UNL     1      40.839 -15.647  -2.484  1.00  0.00     0.207 C 
HETATM   13  C   UNL     1      41.627 -13.652  -3.482  1.00  0.00     0.207 C 
HETATM   14  C   UNL     1      41.974 -12.403  -1.234  1.00  0.00     0.012 A 
HETATM   15  O   UNL     1      41.367 -15.059  -3.698  1.00  0.00    -0.382 OA
HETATM   16  C   UNL     1      41.852 -12.512   0.156  1.00  0.00     0.030 A 
ENDBRANCH   5   8
ENDBRANCH   1   2
BRANCH   1  17
HETATM   17  C   UNL     1      42.147 -14.316   5.768  1.00  0.00     0.026 C 
BRANCH  17  18
HETATM   18  C   UNL     1      41.414 -15.567   5.271  1.00  0.00     0.060 C 
BRANCH  18  19
HETATM   19  C   UNL     1      42.292 -16.539   4.562  1.00  0.00     0.030 A 
HETATM   20  N   UNL     1      43.138 -16.206   3.539  1.00  0.00    -0.282 N 
HETATM   21  H   UNL     1      43.321 -15.291   3.133  1.00  0.00     0.189 HD
HETATM   22  N   UNL     1      43.787 -17.258   3.019  1.00  0.00    -0.174 NA
HETATM   23  C   UNL     1      43.339 -18.322   3.702  1.00  0.00     0.089 A 
HETATM   24  C   UNL     1      42.413 -17.905   4.697  1.00  0.00     0.060 A 
BRANCH  23  25
HETATM   25  C   UNL     1      43.781 -19.685   3.379  1.00  0.00    -0.003 A 
HETATM   26  C   UNL     1      44.449 -20.476   4.322  1.00  0.00     0.056 A 
HETATM   27  C   UNL     1      44.837 -21.773   3.995  1.00  0.00     0.117 A 
HETATM   28  F   UNL     1      45.471 -22.517   4.911  1.00  0.00    -0.206 F 
HETATM   29  C   UNL     1      44.578 -22.311   2.741  1.00  0.00     0.042 A 
HETATM   30  C   UNL     1      43.917 -21.539   1.792  1.00  0.00     0.004 A 
HETATM   31  C   UNL     1      43.523 -20.234   2.110  1.00  0.00     0.014 A 
ENDBRANCH  23  25
ENDBRANCH  18  19
ENDBRANCH  17  18
ENDBRANCH   1  17
TORSDOF 6
ENDMDL
MODEL 9
REMARK VINA RESULT:      -8.7      5.718      9.016
REMARK  6 active torsions:
REMARK  status: ('A' for Active; 'I' for Inactive)
REMARK       I    between atoms: N_2  and  C_3 
REMARK    1  A    between atoms: N_2  and  C_15 
REMARK       I    between atoms: C_3  and  N_4 
REMARK    2  A    between atoms: N_4  and  C_5 
REMARK    3  A    between atoms: C_15  and  C_16 
REMARK    4  A    between atoms: C_16  and  C_17 
REMARK    5  A    between atoms: C_17  and  C_18 
REMARK    6  A    between atoms: C_22  and  C_23 
ROOT
HETATM    1  C   UNL     1      41.577 -13.576   5.298  1.00  0.00     0.127 C 
ENDROOT
BRANCH   1   2
HETATM    2  N   UNL     1      40.273 -13.508   4.628  1.00  0.00    -0.338 N 
HETATM    3  C   UNL     1      39.171 -12.999   5.439  1.00  0.00     0.154 C 
HETATM    4  C   UNL     1      40.095 -13.447   3.247  1.00  0.00     0.322 C 
HETATM    5  N   UNL     1      41.093 -14.033   2.508  1.00  0.00    -0.309 N 
HETATM    6  O   UNL     1      39.142 -12.838   2.769  1.00  0.00    -0.247 OA
HETATM    7  H   UNL     1      41.671 -14.698   2.995  1.00  0.00     0.170 HD
BRANCH   5   8
HETATM    8  C   UNL     1      41.305 -13.943   1.114  1.00  0.00     0.036 A 
HETATM    9  C   UNL     1      40.920 -14.930   0.201  1.00  0.00     0.039 A 
HETATM   10  C   UNL     1      41.166 -14.723  -1.149  1.00  0.00    -0.024 A 
HETATM   11  C   UNL     1      41.757 -13.559  -1.608  1.00  0.00    -0.026 A 
HETATM   12  C   UNL     1      40.859 -15.608  -2.300  1.00  0.00     0.207 C 
HETATM   13  C   UNL     1      41.849 -13.609  -3.088  1.00  0.00     0.207 C 
HETATM   14  C   UNL     1      42.135 -12.561  -0.731  1.00  0.00     0.012 A 
HETATM   15  O   UNL     1      41.506 -14.971  -3.430  1.00  0.00    -0.382 OA
HETATM   16  C   UNL     1      41.915 -12.764   0.637  1.00  0.00     0.030 A 
ENDBRANCH   5   8
ENDBRANCH   1   2
BRANCH   1  17
HETATM   17  C   UNL     1      41.997 -15.000   5.697  1.00  0.00     0.026 C 
BRANCH  17  18
HETATM   18  C   UNL     1      43.513 -15.225   5.689  1.00  0.00     0.060 C 
BRANCH  18  19
HETATM   19  C   UNL     1      43.910 -16.660   5.665  1.00  0.00     0.030 A 
HETATM   20  N   UNL     1      44.735 -17.245   6.588  1.00  0.00    -0.282 N 
HETATM   21  H   UNL     1      45.166 -16.833   7.412  1.00  0.00     0.189 HD
HETATM   22  N   UNL     1      44.994 -18.536   6.330  1.00  0.00    -0.174 NA
HETATM   23  C   UNL     1      44.342 -18.806   5.189  1.00  0.00     0.089 A 
HETATM   24  C   UNL     1      43.630 -17.655   4.753  1.00  0.00     0.060 A 
BRANCH  23  25
HETATM   25  C   UNL     1      44.432 -20.123   4.546  1.00  0.00    -0.003 A 
HETATM   26  C   UNL     1      44.276 -20.269   3.162  1.00  0.00     0.056 A 
HETATM   27  C   UNL     1      44.388 -21.527   2.576  1.00  0.00     0.117 A 
HETATM   28  F   UNL     1      44.241 -21.648   1.250  1.00  0.00    -0.206 F 
HETATM   29  C   UNL     1      44.650 -22.659   3.338  1.00  0.00     0.042 A 
HETATM   30  C   UNL     1      44.805 -22.532   4.714  1.00  0.00     0.004 A 
HETATM   31  C   UNL     1      44.695 -21.272   5.313  1.00  0.00     0.014 A 
ENDBRANCH  23  25
ENDBRANCH  18  19
ENDBRANCH  17  18
ENDBRANCH   1  17
TORSDOF 6
ENDMDL
MODEL 10
REMARK VINA RESULT:      -8.7      6.479     10.645
REMARK  6 active torsions:
REMARK  status: ('A' for Active; 'I' for Inactive)
REMARK       I    between atoms: N_2  and  C_3 
REMARK    1  A    between atoms: N_2  and  C_15 
REMARK       I    between atoms: C_3  and  N_4 
REMARK    2  A    between atoms: N_4  and  C_5 
REMARK    3  A    between atoms: C_15  and  C_16 
REMARK    4  A    between atoms: C_16  and  C_17 
REMARK    5  A    between atoms: C_17  and  C_18 
REMARK    6  A    between atoms: C_22  and  C_23 
ROOT
HETATM    1  C   UNL     1      43.167 -14.714   5.538  1.00  0.00     0.127 C 
ENDROOT
BRANCH   1   2
HETATM    2  N   UNL     1      42.105 -15.709   5.723  1.00  0.00    -0.338 N 
HETATM    3  C   UNL     1      40.801 -15.179   6.108  1.00  0.00     0.154 C 
HETATM    4  C   UNL     1      42.104 -16.981   5.151  1.00  0.00     0.322 C 
HETATM    5  N   UNL     1      43.348 -17.505   4.901  1.00  0.00    -0.309 N 
HETATM    6  O   UNL     1      41.046 -17.521   4.840  1.00  0.00    -0.247 OA
HETATM    7  H   UNL     1      44.111 -17.095   5.414  1.00  0.00     0.170 HD
BRANCH   5   8
HETATM    8  C   UNL     1      43.668 -18.653   4.143  1.00  0.00     0.036 A 
HETATM    9  C   UNL     1      43.999 -19.891   4.703  1.00  0.00     0.039 A 
HETATM   10  C   UNL     1      44.278 -20.954   3.857  1.00  0.00    -0.024 A 
HETATM   11  C   UNL     1      44.212 -20.821   2.481  1.00  0.00    -0.026 A 
HETATM   12  C   UNL     1      44.653 -22.349   4.200  1.00  0.00     0.207 C 
HETATM   13  C   UNL     1      44.518 -22.128   1.848  1.00  0.00     0.207 C 
HETATM   14  C   UNL     1      43.874 -19.614   1.899  1.00  0.00     0.012 A 
HETATM   15  O   UNL     1      45.007 -22.952   2.931  1.00  0.00    -0.382 OA
HETATM   16  C   UNL     1      43.612 -18.526   2.739  1.00  0.00     0.030 A 
ENDBRANCH   5   8
ENDBRANCH   1   2
BRANCH   1  17
HETATM   17  C   UNL     1      42.994 -13.847   4.280  1.00  0.00     0.026 C 
BRANCH  17  18
HETATM   18  C   UNL     1      43.470 -14.522   2.989  1.00  0.00     0.060 C 
BRANCH  18  19
HETATM   19  C   UNL     1      42.378 -14.803   2.017  1.00  0.00     0.030 A 
HETATM   20  N   UNL     1      41.563 -15.902   2.073  1.00  0.00    -0.282 N 
HETATM   21  H   UNL     1      41.546 -16.651   2.761  1.00  0.00     0.189 HD
HETATM   22  N   UNL     1      40.687 -15.969   1.058  1.00  0.00    -0.174 NA
HETATM   23  C   UNL     1      40.948 -14.897   0.295  1.00  0.00     0.089 A 
HETATM   24  C   UNL     1      41.991 -14.128   0.880  1.00  0.00     0.060 A 
BRANCH  23  25
HETATM   25  C   UNL     1      40.224 -14.651  -0.958  1.00  0.00    -0.003 A 
HETATM   26  C   UNL     1      39.088 -13.834  -0.994  1.00  0.00     0.056 A 
HETATM   27  C   UNL     1      38.434 -13.600  -2.201  1.00  0.00     0.117 A 
HETATM   28  F   UNL     1      37.351 -12.811  -2.218  1.00  0.00    -0.206 F 
HETATM   29  C   UNL     1      38.882 -14.166  -3.388  1.00  0.00     0.042 A 
HETATM   30  C   UNL     1      40.008 -14.983  -3.370  1.00  0.00     0.004 A 
HETATM   31  C   UNL     1      40.673 -15.224  -2.163  1.00  0.00     0.014 A 
ENDBRANCH  23  25
ENDBRANCH  18  19
ENDBRANCH  17  18
ENDBRANCH   1  17
TORSDOF 6
ENDMDL
