MODEL 1
REMARK VINA RESULT:     -10.5      0.000      0.000
REMARK  5 active torsions:
REMARK  status: ('A' for Active; 'I' for Inactive)
REMARK    1  A    between atoms: C_4  and  C_5 
REMARK       I    between atoms: C_5  and  N_6 
REMARK    2  A    between atoms: N_6  and  C_7 
REMARK    3  A    between atoms: C_7  and  C_8 
REMARK       I    between atoms: C_8  and  N_9 
REMARK    4  A    between atoms: N_9  and  C_10 
REMARK    5  A    between atoms: C_13  and  C_14 
ROOT
HETATM    1  C   UNL     1      44.761 -13.918   6.892  1.00  0.00     0.241 C 
HETATM    2  N   UNL     1      44.304 -15.082   7.463  1.00  0.00    -0.304 N 
HETATM    3  O   UNL     1      44.821 -13.664   5.692  1.00  0.00    -0.271 OA
HETATM    4  H   UNL     1      44.442 -15.235   8.457  1.00  0.00     0.171 HD
ENDROOT
BRANCH   2   5
HETATM    5  C   UNL     1      43.811 -16.131   6.747  1.00  0.00     0.173 A 
HETATM    6  S   UNL     1      42.177 -15.940   6.289  1.00  0.00    -0.061 SA
HETATM    7  C   UNL     1      42.226 -17.491   5.553  1.00  0.00     0.086 A 
HETATM    8  C   UNL     1      43.482 -18.042   5.708  1.00  0.00     0.078 A 
HETATM    9  N   UNL     1      44.393 -17.240   6.379  1.00  0.00    -0.223 NA
BRANCH   8  10
HETATM   10  C   UNL     1      43.919 -19.388   5.321  1.00  0.00     0.021 A 
HETATM   11  C   UNL     1      43.940 -19.964   4.012  1.00  0.00     0.004 A 
HETATM   12  C   UNL     1      44.370 -21.287   4.164  1.00  0.00     0.043 A 
HETATM   13  C   UNL     1      43.650 -19.516   2.703  1.00  0.00     0.014 A 
HETATM   14  C   UNL     1      44.491 -22.181   3.092  1.00  0.00     0.030 A 
HETATM   15  N   UNL     1      44.630 -21.484   5.501  1.00  0.00    -0.364 N 
HETATM   16  C   UNL     1      44.179 -21.711   1.814  1.00  0.00     0.002 A 
HETATM   17  C   UNL     1      43.770 -20.396   1.619  1.00  0.00     0.001 A 
HETATM   18  H   UNL     1      44.965 -22.350   5.901  1.00  0.00     0.165 HD
HETATM   19  C   UNL     1      44.374 -20.344   6.205  1.00  0.00     0.103 A 
ENDBRANCH   8  10
ENDBRANCH   2   5
BRANCH   1  20
HETATM   20  C   UNL     1      45.380 -12.943   7.911  1.00  0.00     0.226 C 
BRANCH  20  21
HETATM   21  N   UNL     1      44.505 -12.458   8.975  1.00  0.00    -0.348 N 
HETATM   22  C   UNL     1      44.703 -11.243   9.585  1.00  0.00     0.252 C 
HETATM   23  O   UNL     1      45.745 -10.610   9.441  1.00  0.00    -0.268 OA
HETATM   24  H   UNL     1      43.718 -13.036   9.239  1.00  0.00     0.163 HD
BRANCH  22  25
HETATM   25  C   UNL     1      43.647 -10.763  10.510  1.00  0.00     0.033 A 
HETATM   26  C   UNL     1      42.313 -10.875  10.100  1.00  0.00     0.023 A 
HETATM   27  C   UNL     1      41.276 -10.454  10.939  1.00  0.00    -0.061 A 
HETATM   28  C   UNL     1      39.846 -10.536  10.490  1.00  0.00     0.048 C 
HETATM   29  C   UNL     1      41.592  -9.920  12.195  1.00  0.00     0.013 A 
HETATM   30  C   UNL     1      42.923  -9.830  12.629  1.00  0.00    -0.061 A 
HETATM   31  C   UNL     1      43.953 -10.247  11.776  1.00  0.00     0.023 A 
HETATM   32  C   UNL     1      43.227  -9.268  13.987  1.00  0.00     0.048 C 
ENDBRANCH  22  25
ENDBRANCH  20  21
ENDBRANCH   1  20
TORSDOF 5
ENDMDL
MODEL 2
REMARK VINA RESULT:     -10.3      1.253      2.032
REMARK  5 active torsions:
REMARK  status: ('A' for Active; 'I' for Inactive)
REMARK    1  A    between atoms: C_4  and  C_5 
REMARK       I    between atoms: C_5  and  N_6 
REMARK    2  A    between atoms: N_6  and  C_7 
REMARK    3  A    between atoms: C_7  and  C_8 
REMARK       I    between atoms: C_8  and  N_9 
REMARK    4  A    between atoms: N_9  and  C_10 
REMARK    5  A    between atoms: C_13  and  C_14 
ROOT
HETATM    1  C   UNL     1      45.406 -13.230   7.574  1.00  0.00     0.241 C 
HETATM    2  N   UNL     1      44.295 -14.029   7.697  1.00  0.00    -0.304 N 
HETATM    3  O   UNL     1      46.241 -13.267   6.673  1.00  0.00    -0.271 OA
HETATM    4  H   UNL     1      43.761 -14.008   8.559  1.00  0.00     0.171 HD
ENDROOT
BRANCH   2   5
HETATM    5  C   UNL     1      43.945 -14.980   6.786  1.00  0.00     0.173 A 
HETATM    6  S   UNL     1      42.623 -14.532   5.801  1.00  0.00    -0.061 SA
HETATM    7  C   UNL     1      42.710 -16.062   5.027  1.00  0.00     0.086 A 
HETATM    8  C   UNL     1      43.738 -16.805   5.574  1.00  0.00     0.078 A 
HETATM    9  N   UNL     1      44.455 -16.163   6.572  1.00  0.00    -0.223 NA
BRANCH   8  10
HETATM   10  C   UNL     1      44.088 -18.197   5.275  1.00  0.00     0.021 A 
HETATM   11  C   UNL     1      43.984 -18.882   4.024  1.00  0.00     0.004 A 
HETATM   12  C   UNL     1      44.371 -20.207   4.260  1.00  0.00     0.043 A 
HETATM   13  C   UNL     1      43.612 -18.534   2.706  1.00  0.00     0.014 A 
HETATM   14  C   UNL     1      44.372 -21.193   3.264  1.00  0.00     0.030 A 
HETATM   15  N   UNL     1      44.725 -20.302   5.587  1.00  0.00    -0.364 N 
HETATM   16  C   UNL     1      43.981 -20.818   1.977  1.00  0.00     0.002 A 
HETATM   17  C   UNL     1      43.612 -19.507   1.698  1.00  0.00     0.001 A 
HETATM   18  H   UNL     1      45.054 -21.146   6.035  1.00  0.00     0.165 HD
HETATM   19  C   UNL     1      44.571 -19.096   6.204  1.00  0.00     0.103 A 
ENDBRANCH   8  10
ENDBRANCH   2   5
BRANCH   1  20
HETATM   20  C   UNL     1      45.644 -12.326   8.797  1.00  0.00     0.226 C 
BRANCH  20  21
HETATM   21  N   UNL     1      44.458 -11.799   9.467  1.00  0.00    -0.348 N 
HETATM   22  C   UNL     1      44.146 -12.128  10.765  1.00  0.00     0.252 C 
HETATM   23  O   UNL     1      44.703 -13.053  11.348  1.00  0.00    -0.268 OA
HETATM   24  H   UNL     1      43.875 -11.150   8.954  1.00  0.00     0.163 HD
BRANCH  22  25
HETATM   25  C   UNL     1      43.035 -11.386  11.409  1.00  0.00     0.033 A 
HETATM   26  C   UNL     1      43.183 -11.014  12.751  1.00  0.00     0.023 A 
HETATM   27  C   UNL     1      42.173 -10.300  13.404  1.00  0.00    -0.061 A 
HETATM   28  C   UNL     1      42.309  -9.931  14.852  1.00  0.00     0.048 C 
HETATM   29  C   UNL     1      41.013  -9.961  12.695  1.00  0.00     0.013 A 
HETATM   30  C   UNL     1      40.866 -10.301  11.343  1.00  0.00    -0.061 A 
HETATM   31  C   UNL     1      41.880 -11.025  10.703  1.00  0.00     0.023 A 
HETATM   32  C   UNL     1      39.617  -9.910  10.608  1.00  0.00     0.048 C 
ENDBRANCH  22  25
ENDBRANCH  20  21
ENDBRANCH   1  20
TORSDOF 5
ENDMDL
MODEL 3
REMARK VINA RESULT:     -10.1      1.875      2.384
REMARK  5 active torsions:
REMARK  status: ('A' for Active; 'I' for Inactive)
REMARK    1  A    between atoms: C_4  and  C_5 
REMARK       I    between atoms: C_5  and  N_6 
REMARK    2  A    between atoms: N_6  and  C_7 
REMARK    3  A    between atoms: C_7  and  C_8 
REMARK       I    between atoms: C_8  and  N_9 
REMARK    4  A    between atoms: N_9  and  C_10 
REMARK    5  A    between atoms: C_13  and  C_14 
ROOT
HETATM    1  C   UNL     1      44.368 -14.207   7.200  1.00  0.00     0.241 C 
HETATM    2  N   UNL     1      43.713 -13.759   6.078  1.00  0.00    -0.304 N 
HETATM    3  O   UNL     1      44.321 -15.340   7.672  1.00  0.00    -0.271 OA
HETATM    4  H   UNL     1      43.708 -12.766   5.869  1.00  0.00     0.171 HD
ENDROOT
BRANCH   2   5
HETATM    5  C   UNL     1      42.925 -14.550   5.296  1.00  0.00     0.173 A 
HETATM    6  S   UNL     1      41.253 -14.263   5.496  1.00  0.00    -0.061 SA
HETATM    7  C   UNL     1      40.927 -15.514   4.366  1.00  0.00     0.086 A 
HETATM    8  C   UNL     1      42.113 -16.061   3.918  1.00  0.00     0.078 A 
HETATM    9  N   UNL     1      43.258 -15.482   4.445  1.00  0.00    -0.223 NA
BRANCH   8  10
HETATM   10  C   UNL     1      42.283 -17.215   3.030  1.00  0.00     0.021 A 
HETATM   11  C   UNL     1      43.076 -18.385   3.249  1.00  0.00     0.004 A 
HETATM   12  C   UNL     1      42.970 -19.162   2.088  1.00  0.00     0.043 A 
HETATM   13  C   UNL     1      43.873 -18.887   4.302  1.00  0.00     0.014 A 
HETATM   14  C   UNL     1      43.639 -20.383   1.921  1.00  0.00     0.030 A 
HETATM   15  N   UNL     1      42.122 -18.504   1.228  1.00  0.00    -0.364 N 
HETATM   16  C   UNL     1      44.433 -20.840   2.975  1.00  0.00     0.002 A 
HETATM   17  C   UNL     1      44.545 -20.108   4.152  1.00  0.00     0.001 A 
HETATM   18  H   UNL     1      41.856 -18.841   0.313  1.00  0.00     0.165 HD
HETATM   19  C   UNL     1      41.693 -17.337   1.789  1.00  0.00     0.103 A 
ENDBRANCH   8  10
ENDBRANCH   2   5
BRANCH   1  20
HETATM   20  C   UNL     1      45.088 -13.087   7.972  1.00  0.00     0.226 C 
BRANCH  20  21
HETATM   21  N   UNL     1      44.315 -12.390   8.996  1.00  0.00    -0.348 N 
HETATM   22  C   UNL     1      44.677 -11.150   9.465  1.00  0.00     0.252 C 
HETATM   23  O   UNL     1      45.780 -10.667   9.230  1.00  0.00    -0.268 OA
HETATM   24  H   UNL     1      43.475 -12.837   9.339  1.00  0.00     0.163 HD
BRANCH  22  25
HETATM   25  C   UNL     1      43.718 -10.451  10.356  1.00  0.00     0.033 A 
HETATM   26  C   UNL     1      42.472 -10.091   9.827  1.00  0.00     0.023 A 
HETATM   27  C   UNL     1      41.524  -9.444  10.627  1.00  0.00    -0.061 A 
HETATM   28  C   UNL     1      40.201  -9.022  10.057  1.00  0.00     0.048 C 
HETATM   29  C   UNL     1      41.839  -9.163  11.963  1.00  0.00     0.013 A 
HETATM   30  C   UNL     1      43.072  -9.545  12.512  1.00  0.00    -0.061 A 
HETATM   31  C   UNL     1      44.017 -10.184  11.698  1.00  0.00     0.023 A 
HETATM   32  C   UNL     1      43.372  -9.243  13.951  1.00  0.00     0.048 C 
ENDBRANCH  22  25
ENDBRANCH  20  21
ENDBRANCH   1  20
TORSDOF 5
ENDMDL
MODEL 4
REMARK VINA RESULT:      -9.5      2.405      3.090
REMARK  5 active torsions:
REMARK  status: ('A' for Active; 'I' for Inactive)
REMARK    1  A    between atoms: C_4  and  C_5 
REMARK       I    between atoms: C_5  and  N_6 
REMARK    2  A    between atoms: N_6  and  C_7 
REMARK    3  A    between atoms: C_7  and  C_8 
REMARK       I    between atoms: C_8  and  N_9 
REMARK    4  A    between atoms: N_9  and  C_10 
REMARK    5  A    between atoms: C_13  and  C_14 
ROOT
HETATM    1  C   UNL     1      40.828 -12.358   5.974  1.00  0.00     0.241 C 
HETATM    2  N   UNL     1      40.645 -13.694   6.242  1.00  0.00    -0.304 N 
HETATM    3  O   UNL     1      41.467 -11.878   5.041  1.00  0.00    -0.271 OA
HETATM    4  H   UNL     1      40.226 -13.970   7.123  1.00  0.00     0.171 HD
ENDROOT
BRANCH   2   5
HETATM    5  C   UNL     1      41.138 -14.695   5.460  1.00  0.00     0.173 A 
HETATM    6  S   UNL     1      40.300 -14.888   3.984  1.00  0.00    -0.061 SA
HETATM    7  C   UNL     1      41.328 -16.208   3.600  1.00  0.00     0.086 A 
HETATM    8  C   UNL     1      42.235 -16.408   4.622  1.00  0.00     0.078 A 
HETATM    9  N   UNL     1      42.130 -15.516   5.678  1.00  0.00    -0.223 NA
BRANCH   8  10
HETATM   10  C   UNL     1      43.219 -17.489   4.742  1.00  0.00     0.021 A 
HETATM   11  C   UNL     1      43.468 -18.558   3.825  1.00  0.00     0.004 A 
HETATM   12  C   UNL     1      44.448 -19.368   4.413  1.00  0.00     0.043 A 
HETATM   13  C   UNL     1      42.982 -18.938   2.554  1.00  0.00     0.014 A 
HETATM   14  C   UNL     1      44.934 -20.538   3.814  1.00  0.00     0.030 A 
HETATM   15  N   UNL     1      44.797 -18.788   5.611  1.00  0.00    -0.364 N 
HETATM   16  C   UNL     1      44.418 -20.893   2.566  1.00  0.00     0.002 A 
HETATM   17  C   UNL     1      43.460 -20.103   1.940  1.00  0.00     0.001 A 
HETATM   18  H   UNL     1      45.492 -19.155   6.247  1.00  0.00     0.165 HD
HETATM   19  C   UNL     1      44.073 -17.650   5.814  1.00  0.00     0.103 A 
ENDBRANCH   8  10
ENDBRANCH   2   5
BRANCH   1  20
HETATM   20  C   UNL     1      40.279 -11.436   7.077  1.00  0.00     0.226 C 
BRANCH  20  21
HETATM   21  N   UNL     1      41.214 -11.029   8.123  1.00  0.00    -0.348 N 
HETATM   22  C   UNL     1      40.817 -10.847   9.426  1.00  0.00     0.252 C 
HETATM   23  O   UNL     1      39.631 -10.783   9.737  1.00  0.00    -0.268 OA
HETATM   24  H   UNL     1      42.185 -10.911   7.867  1.00  0.00     0.163 HD
BRANCH  22  25
HETATM   25  C   UNL     1      41.878 -10.628  10.439  1.00  0.00     0.033 A 
HETATM   26  C   UNL     1      43.201 -10.917  10.078  1.00  0.00     0.023 A 
HETATM   27  C   UNL     1      44.243 -10.714  10.989  1.00  0.00    -0.061 A 
HETATM   28  C   UNL     1      45.657 -11.056  10.622  1.00  0.00     0.048 C 
HETATM   29  C   UNL     1      43.945 -10.217  12.264  1.00  0.00     0.013 A 
HETATM   30  C   UNL     1      42.629  -9.896  12.627  1.00  0.00    -0.061 A 
HETATM   31  C   UNL     1      41.592 -10.112  11.709  1.00  0.00     0.023 A 
HETATM   32  C   UNL     1      42.345  -9.351  13.996  1.00  0.00     0.048 C 
ENDBRANCH  22  25
ENDBRANCH  20  21
ENDBRANCH   1  20
TORSDOF 5
ENDMDL
MODEL 5
REMARK VINA RESULT:      -9.4      3.254      4.269
REMARK  5 active torsions:
REMARK  status: ('A' for Active; 'I' for Inactive)
REMARK    1  A    between atoms: C_4  and  C_5 
REMARK       I    between atoms: C_5  and  N_6 
REMARK    2  A    between atoms: N_6  and  C_7 
REMARK    3  A    between atoms: C_7  and  C_8 
REMARK       I    between atoms: C_8  and  N_9 
REMARK    4  A    between atoms: N_9  and  C_10 
REMARK    5  A    between atoms: C_13  and  C_14 
ROOT
HETATM    1  C   UNL     1      39.513 -12.372   6.665  1.00  0.00     0.241 C 
HETATM    2  N   UNL     1      40.740 -12.974   6.519  1.00  0.00    -0.304 N 
HETATM    3  O   UNL     1      38.685 -12.170   5.780  1.00  0.00    -0.271 OA
HETATM    4  H   UNL     1      41.399 -12.951   7.289  1.00  0.00     0.171 HD
ENDROOT
BRANCH   2   5
HETATM    5  C   UNL     1      41.200 -13.474   5.337  1.00  0.00     0.173 A 
HETATM    6  S   UNL     1      41.854 -12.286   4.299  1.00  0.00    -0.061 SA
HETATM    7  C   UNL     1      42.145 -13.505   3.125  1.00  0.00     0.086 A 
HETATM    8  C   UNL     1      41.724 -14.728   3.607  1.00  0.00     0.078 A 
HETATM    9  N   UNL     1      41.201 -14.701   4.891  1.00  0.00    -0.223 NA
BRANCH   8  10
HETATM   10  C   UNL     1      41.696 -16.007   2.890  1.00  0.00     0.021 A 
HETATM   11  C   UNL     1      42.533 -17.149   3.094  1.00  0.00     0.004 A 
HETATM   12  C   UNL     1      42.169 -18.090   2.122  1.00  0.00     0.043 A 
HETATM   13  C   UNL     1      43.560 -17.505   3.997  1.00  0.00     0.014 A 
HETATM   14  C   UNL     1      42.795 -19.337   1.992  1.00  0.00     0.030 A 
HETATM   15  N   UNL     1      41.135 -17.549   1.393  1.00  0.00    -0.364 N 
HETATM   16  C   UNL     1      43.819 -19.648   2.889  1.00  0.00     0.002 A 
HETATM   17  C   UNL     1      44.193 -18.749   3.882  1.00  0.00     0.001 A 
HETATM   18  H   UNL     1      40.667 -18.013   0.627  1.00  0.00     0.165 HD
HETATM   19  C   UNL     1      40.834 -16.301   1.854  1.00  0.00     0.103 A 
ENDBRANCH   8  10
ENDBRANCH   2   5
BRANCH   1  20
HETATM   20  C   UNL     1      39.288 -11.784   8.070  1.00  0.00     0.226 C 
BRANCH  20  21
HETATM   21  N   UNL     1      40.478 -11.378   8.812  1.00  0.00    -0.348 N 
HETATM   22  C   UNL     1      40.397 -10.695  10.002  1.00  0.00     0.252 C 
HETATM   23  O   UNL     1      39.349 -10.185  10.384  1.00  0.00    -0.268 OA
HETATM   24  H   UNL     1      41.380 -11.642   8.439  1.00  0.00     0.163 HD
BRANCH  22  25
HETATM   25  C   UNL     1      41.654 -10.506  10.768  1.00  0.00     0.033 A 
HETATM   26  C   UNL     1      42.868 -10.724  10.103  1.00  0.00     0.023 A 
HETATM   27  C   UNL     1      44.083 -10.546  10.772  1.00  0.00    -0.061 A 
HETATM   28  C   UNL     1      45.386 -10.814  10.077  1.00  0.00     0.048 C 
HETATM   29  C   UNL     1      44.069 -10.145  12.114  1.00  0.00     0.013 A 
HETATM   30  C   UNL     1      42.861  -9.895  12.782  1.00  0.00    -0.061 A 
HETATM   31  C   UNL     1      41.650 -10.086  12.104  1.00  0.00     0.023 A 
HETATM   32  C   UNL     1      42.880  -9.452  14.215  1.00  0.00     0.048 C 
ENDBRANCH  22  25
ENDBRANCH  20  21
ENDBRANCH   1  20
TORSDOF 5
ENDMDL
MODEL 6
REMARK VINA RESULT:      -9.2      2.567      3.354
REMARK  5 active torsions:
REMARK  status: ('A' for Active; 'I' for Inactive)
REMARK    1  A    between atoms: C_4  and  C_5 
REMARK       I    between atoms: C_5  and  N_6 
REMARK    2  A    between atoms: N_6  and  C_7 
REMARK    3  A    between atoms: C_7  and  C_8 
REMARK       I    between atoms: C_8  and  N_9 
REMARK    4  A    between atoms: N_9  and  C_10 
REMARK    5  A    between atoms: C_13  and  C_14 
ROOT
HETATM    1  C   UNL     1      40.022 -12.791   6.367  1.00  0.00     0.241 C 
HETATM    2  N   UNL     1      41.345 -13.130   6.209  1.00  0.00    -0.304 N 
HETATM    3  O   UNL     1      39.059 -13.320   5.817  1.00  0.00    -0.271 OA
HETATM    4  H   UNL     1      42.061 -12.526   6.597  1.00  0.00     0.171 HD
ENDROOT
BRANCH   2   5
HETATM    5  C   UNL     1      41.772 -14.155   5.420  1.00  0.00     0.173 A 
HETATM    6  S   UNL     1      41.142 -14.108   3.833  1.00  0.00    -0.061 SA
HETATM    7  C   UNL     1      41.978 -15.565   3.482  1.00  0.00     0.086 A 
HETATM    8  C   UNL     1      42.677 -15.984   4.597  1.00  0.00     0.078 A 
HETATM    9  N   UNL     1      42.568 -15.152   5.701  1.00  0.00    -0.223 NA
BRANCH   8  10
HETATM   10  C   UNL     1      43.436 -17.229   4.758  1.00  0.00     0.021 A 
HETATM   11  C   UNL     1      43.590 -18.294   3.817  1.00  0.00     0.004 A 
HETATM   12  C   UNL     1      44.342 -19.287   4.456  1.00  0.00     0.043 A 
HETATM   13  C   UNL     1      43.184 -18.536   2.485  1.00  0.00     0.014 A 
HETATM   14  C   UNL     1      44.675 -20.505   3.848  1.00  0.00     0.030 A 
HETATM   15  N   UNL     1      44.656 -18.821   5.712  1.00  0.00    -0.364 N 
HETATM   16  C   UNL     1      44.242 -20.719   2.538  1.00  0.00     0.002 A 
HETATM   17  C   UNL     1      43.512 -19.747   1.862  1.00  0.00     0.001 A 
HETATM   18  H   UNL     1      45.203 -19.329   6.394  1.00  0.00     0.165 HD
HETATM   19  C   UNL     1      44.127 -17.578   5.900  1.00  0.00     0.103 A 
ENDBRANCH   8  10
ENDBRANCH   2   5
BRANCH   1  20
HETATM   20  C   UNL     1      39.816 -11.520   7.210  1.00  0.00     0.226 C 
BRANCH  20  21
HETATM   21  N   UNL     1      40.922 -11.116   8.073  1.00  0.00    -0.348 N 
HETATM   22  C   UNL     1      40.761 -10.924   9.425  1.00  0.00     0.252 C 
HETATM   23  O   UNL     1      39.649 -10.850   9.939  1.00  0.00    -0.268 OA
HETATM   24  H   UNL     1      41.835 -11.005   7.650  1.00  0.00     0.163 HD
BRANCH  22  25
HETATM   25  C   UNL     1      41.986 -10.708  10.234  1.00  0.00     0.033 A 
HETATM   26  C   UNL     1      41.830 -10.350  11.579  1.00  0.00     0.023 A 
HETATM   27  C   UNL     1      42.950 -10.149  12.393  1.00  0.00    -0.061 A 
HETATM   28  C   UNL     1      42.791  -9.728  13.824  1.00  0.00     0.048 C 
HETATM   29  C   UNL     1      44.228 -10.313  11.843  1.00  0.00     0.013 A 
HETATM   30  C   UNL     1      44.397 -10.701  10.506  1.00  0.00    -0.061 A 
HETATM   31  C   UNL     1      43.267 -10.890   9.699  1.00  0.00     0.023 A 
HETATM   32  C   UNL     1      45.779 -10.883   9.952  1.00  0.00     0.048 C 
ENDBRANCH  22  25
ENDBRANCH  20  21
ENDBRANCH   1  20
TORSDOF 5
ENDMDL
MODEL 7
REMARK VINA RESULT:      -9.1      2.448      3.169
REMARK  5 active torsions:
REMARK  status: ('A' for Active; 'I' for Inactive)
REMARK    1  A    between atoms: C_4  and  C_5 
REMARK       I    between atoms: C_5  and  N_6 
REMARK    2  A    between atoms: N_6  and  C_7 
REMARK    3  A    between atoms: C_7  and  C_8 
REMARK       I    between atoms: C_8  and  N_9 
REMARK    4  A    between atoms: N_9  and  C_10 
REMARK    5  A    between atoms: C_13  and  C_14 
ROOT
HETATM    1  C   UNL     1      41.236 -13.066   5.733  1.00  0.00     0.241 C 
HETATM    2  N   UNL     1      42.386 -13.652   6.206  1.00  0.00    -0.304 N 
HETATM    3  O   UNL     1      40.437 -13.556   4.939  1.00  0.00    -0.271 OA
HETATM    4  H   UNL     1      43.044 -13.094   6.740  1.00  0.00     0.171 HD
ENDROOT
BRANCH   2   5
HETATM    5  C   UNL     1      42.785 -14.911   5.870  1.00  0.00     0.173 A 
HETATM    6  S   UNL     1      43.902 -15.592   6.969  1.00  0.00    -0.061 SA
HETATM    7  C   UNL     1      43.981 -16.995   5.983  1.00  0.00     0.086 A 
HETATM    8  C   UNL     1      43.153 -16.845   4.888  1.00  0.00     0.078 A 
HETATM    9  N   UNL     1      42.453 -15.648   4.845  1.00  0.00    -0.223 NA
BRANCH   8  10
HETATM   10  C   UNL     1      43.003 -17.760   3.751  1.00  0.00     0.021 A 
HETATM   11  C   UNL     1      43.589 -19.053   3.579  1.00  0.00     0.004 A 
HETATM   12  C   UNL     1      43.207 -19.499   2.308  1.00  0.00     0.043 A 
HETATM   13  C   UNL     1      44.399 -19.911   4.358  1.00  0.00     0.014 A 
HETATM   14  C   UNL     1      43.616 -20.728   1.773  1.00  0.00     0.030 A 
HETATM   15  N   UNL     1      42.398 -18.531   1.758  1.00  0.00    -0.364 N 
HETATM   16  C   UNL     1      44.431 -21.542   2.562  1.00  0.00     0.002 A 
HETATM   17  C   UNL     1      44.813 -21.145   3.839  1.00  0.00     0.001 A 
HETATM   18  H   UNL     1      41.969 -18.590   0.845  1.00  0.00     0.165 HD
HETATM   19  C   UNL     1      42.258 -17.485   2.623  1.00  0.00     0.103 A 
ENDBRANCH   8  10
ENDBRANCH   2   5
BRANCH   1  20
HETATM   20  C   UNL     1      41.080 -11.597   6.165  1.00  0.00     0.226 C 
BRANCH  20  21
HETATM   21  N   UNL     1      41.856 -11.165   7.324  1.00  0.00    -0.348 N 
HETATM   22  C   UNL     1      41.257 -10.687   8.465  1.00  0.00     0.252 C 
HETATM   23  O   UNL     1      40.070 -10.375   8.490  1.00  0.00    -0.268 OA
HETATM   24  H   UNL     1      42.862 -11.255   7.279  1.00  0.00     0.163 HD
BRANCH  22  25
HETATM   25  C   UNL     1      42.124 -10.463   9.649  1.00  0.00     0.033 A 
HETATM   26  C   UNL     1      43.412 -11.011   9.633  1.00  0.00     0.023 A 
HETATM   27  C   UNL     1      44.277 -10.818  10.715  1.00  0.00    -0.061 A 
HETATM   28  C   UNL     1      45.646 -11.434  10.721  1.00  0.00     0.048 C 
HETATM   29  C   UNL     1      43.836 -10.068  11.813  1.00  0.00     0.013 A 
HETATM   30  C   UNL     1      42.558  -9.489  11.828  1.00  0.00    -0.061 A 
HETATM   31  C   UNL     1      41.698  -9.698  10.741  1.00  0.00     0.023 A 
HETATM   32  C   UNL     1      42.122  -8.678  13.012  1.00  0.00     0.048 C 
ENDBRANCH  22  25
ENDBRANCH  20  21
ENDBRANCH   1  20
TORSDOF 5
ENDMDL
MODEL 8
REMARK VINA RESULT:      -9.0      3.229     10.401
REMARK  5 active torsions:
REMARK  status: ('A' for Active; 'I' for Inactive)
REMARK    1  A    between atoms: C_4  and  C_5 
REMARK       I    between atoms: C_5  and  N_6 
REMARK    2  A    between atoms: N_6  and  C_7 
REMARK    3  A    between atoms: C_7  and  C_8 
REMARK       I    between atoms: C_8  and  N_9 
REMARK    4  A    between atoms: N_9  and  C_10 
REMARK    5  A    between atoms: C_13  and  C_14 
ROOT
HETATM    1  C   UNL     1      40.482 -13.790   3.962  1.00  0.00     0.241 C 
HETATM    2  N   UNL     1      41.496 -12.881   4.152  1.00  0.00    -0.304 N 
HETATM    3  O   UNL     1      39.466 -13.908   4.641  1.00  0.00    -0.271 OA
HETATM    4  H   UNL     1      42.354 -12.977   3.620  1.00  0.00     0.171 HD
ENDROOT
BRANCH   2   5
HETATM    5  C   UNL     1      41.488 -11.937   5.134  1.00  0.00     0.173 A 
HETATM    6  S   UNL     1      41.034 -10.383   4.588  1.00  0.00    -0.061 SA
HETATM    7  C   UNL     1      41.276  -9.779   6.177  1.00  0.00     0.086 A 
HETATM    8  C   UNL     1      41.685 -10.802   7.009  1.00  0.00     0.078 A 
HETATM    9  N   UNL     1      41.783 -12.045   6.401  1.00  0.00    -0.223 NA
BRANCH   8  10
HETATM   10  C   UNL     1      42.097 -10.698   8.413  1.00  0.00     0.021 A 
HETATM   11  C   UNL     1      43.294 -11.196   9.018  1.00  0.00     0.004 A 
HETATM   12  C   UNL     1      43.198 -10.912  10.386  1.00  0.00     0.043 A 
HETATM   13  C   UNL     1      44.461 -11.852   8.566  1.00  0.00     0.014 A 
HETATM   14  C   UNL     1      44.182 -11.276  11.314  1.00  0.00     0.030 A 
HETATM   15  N   UNL     1      42.012 -10.241  10.585  1.00  0.00    -0.364 N 
HETATM   16  C   UNL     1      45.313 -11.940  10.836  1.00  0.00     0.002 A 
HETATM   17  C   UNL     1      45.456 -12.220   9.481  1.00  0.00     0.001 A 
HETATM   18  H   UNL     1      41.685  -9.905  11.480  1.00  0.00     0.165 HD
HETATM   19  C   UNL     1      41.348 -10.096   9.402  1.00  0.00     0.103 A 
ENDBRANCH   8  10
ENDBRANCH   2   5
BRANCH   1  20
HETATM   20  C   UNL     1      40.792 -14.826   2.866  1.00  0.00     0.226 C 
BRANCH  20  21
HETATM   21  N   UNL     1      41.569 -15.996   3.267  1.00  0.00    -0.348 N 
HETATM   22  C   UNL     1      41.755 -17.070   2.429  1.00  0.00     0.252 C 
HETATM   23  O   UNL     1      41.094 -17.212   1.405  1.00  0.00    -0.268 OA
HETATM   24  H   UNL     1      41.999 -15.987   4.182  1.00  0.00     0.163 HD
BRANCH  22  25
HETATM   25  C   UNL     1      42.718 -18.113   2.860  1.00  0.00     0.033 A 
HETATM   26  C   UNL     1      43.399 -17.920   4.069  1.00  0.00     0.023 A 
HETATM   27  C   UNL     1      44.307 -18.879   4.530  1.00  0.00    -0.061 A 
HETATM   28  C   UNL     1      45.067 -18.662   5.806  1.00  0.00     0.048 C 
HETATM   29  C   UNL     1      44.524 -20.033   3.767  1.00  0.00     0.013 A 
HETATM   30  C   UNL     1      43.826 -20.252   2.570  1.00  0.00    -0.061 A 
HETATM   31  C   UNL     1      42.926 -19.279   2.114  1.00  0.00     0.023 A 
HETATM   32  C   UNL     1      44.070 -21.506   1.784  1.00  0.00     0.048 C 
ENDBRANCH  22  25
ENDBRANCH  20  21
ENDBRANCH   1  20
TORSDOF 5
ENDMDL
MODEL 9
REMARK VINA RESULT:      -9.0      3.087     11.060
REMARK  5 active torsions:
REMARK  status: ('A' for Active; 'I' for Inactive)
REMARK    1  A    between atoms: C_4  and  C_5 
REMARK       I    between atoms: C_5  and  N_6 
REMARK    2  A    between atoms: N_6  and  C_7 
REMARK    3  A    between atoms: C_7  and  C_8 
REMARK       I    between atoms: C_8  and  N_9 
REMARK    4  A    between atoms: N_9  and  C_10 
REMARK    5  A    between atoms: C_13  and  C_14 
ROOT
HETATM    1  C   UNL     1      40.360 -13.389   6.075  1.00  0.00     0.241 C 
HETATM    2  N   UNL     1      39.369 -12.803   6.827  1.00  0.00    -0.304 N 
HETATM    3  O   UNL     1      41.514 -12.988   5.942  1.00  0.00    -0.271 OA
HETATM    4  H   UNL     1      38.417 -13.141   6.741  1.00  0.00     0.171 HD
ENDROOT
BRANCH   2   5
HETATM    5  C   UNL     1      39.554 -11.679   7.575  1.00  0.00     0.173 A 
HETATM    6  S   UNL     1      39.678 -10.251   6.647  1.00  0.00    -0.061 SA
HETATM    7  C   UNL     1      39.923  -9.359   8.093  1.00  0.00     0.086 A 
HETATM    8  C   UNL     1      39.894 -10.212   9.179  1.00  0.00     0.078 A 
HETATM    9  N   UNL     1      39.659 -11.544   8.869  1.00  0.00    -0.223 NA
BRANCH   8  10
HETATM   10  C   UNL     1      40.161  -9.879  10.582  1.00  0.00     0.021 A 
HETATM   11  C   UNL     1      41.420  -9.871  11.261  1.00  0.00     0.004 A 
HETATM   12  C   UNL     1      41.151  -9.556  12.598  1.00  0.00     0.043 A 
HETATM   13  C   UNL     1      42.768 -10.088  10.898  1.00  0.00     0.014 A 
HETATM   14  C   UNL     1      42.147  -9.481  13.582  1.00  0.00     0.030 A 
HETATM   15  N   UNL     1      39.795  -9.349  12.708  1.00  0.00    -0.364 N 
HETATM   16  C   UNL     1      43.466  -9.720  13.192  1.00  0.00     0.002 A 
HETATM   17  C   UNL     1      43.776 -10.013  11.868  1.00  0.00     0.001 A 
HETATM   18  H   UNL     1      39.319  -9.098  13.563  1.00  0.00     0.165 HD
HETATM   19  C   UNL     1      39.191  -9.528  11.498  1.00  0.00     0.103 A 
ENDBRANCH   8  10
ENDBRANCH   2   5
BRANCH   1  20
HETATM   20  C   UNL     1      39.861 -14.573   5.227  1.00  0.00     0.226 C 
BRANCH  20  21
HETATM   21  N   UNL     1      40.752 -15.724   5.114  1.00  0.00    -0.348 N 
HETATM   22  C   UNL     1      41.222 -16.166   3.900  1.00  0.00     0.252 C 
HETATM   23  O   UNL     1      40.741 -15.776   2.841  1.00  0.00    -0.268 OA
HETATM   24  H   UNL     1      41.045 -16.181   5.968  1.00  0.00     0.163 HD
BRANCH  22  25
HETATM   25  C   UNL     1      42.272 -17.214   3.915  1.00  0.00     0.033 A 
HETATM   26  C   UNL     1      43.147 -17.253   5.008  1.00  0.00     0.023 A 
HETATM   27  C   UNL     1      44.145 -18.230   5.081  1.00  0.00    -0.061 A 
HETATM   28  C   UNL     1      45.111 -18.253   6.230  1.00  0.00     0.048 C 
HETATM   29  C   UNL     1      44.256 -19.169   4.048  1.00  0.00     0.013 A 
HETATM   30  C   UNL     1      43.366 -19.159   2.964  1.00  0.00    -0.061 A 
HETATM   31  C   UNL     1      42.376 -18.170   2.897  1.00  0.00     0.023 A 
HETATM   32  C   UNL     1      43.501 -20.189   1.881  1.00  0.00     0.048 C 
ENDBRANCH  22  25
ENDBRANCH  20  21
ENDBRANCH   1  20
TORSDOF 5
ENDMDL
MODEL 10
REMARK VINA RESULT:      -8.9      2.424      2.715
REMARK  5 active torsions:
REMARK  status: ('A' for Active; 'I' for Inactive)
REMARK    1  A    between atoms: C_4  and  C_5 
REMARK       I    between atoms: C_5  and  N_6 
REMARK    2  A    between atoms: N_6  and  C_7 
REMARK    3  A    between atoms: C_7  and  C_8 
REMARK       I    between atoms: C_8  and  N_9 
REMARK    4  A    between atoms: N_9  and  C_10 
REMARK    5  A    between atoms: C_13  and  C_14 
ROOT
HETATM    1  C   UNL     1      40.904 -13.252   5.897  1.00  0.00     0.241 C 
HETATM    2  N   UNL     1      41.985 -13.377   5.058  1.00  0.00    -0.304 N 
HETATM    3  O   UNL     1      40.105 -14.134   6.200  1.00  0.00    -0.271 OA
HETATM    4  H   UNL     1      42.485 -12.544   4.765  1.00  0.00     0.171 HD
ENDROOT
BRANCH   2   5
HETATM    5  C   UNL     1      42.342 -14.546   4.456  1.00  0.00     0.173 A 
HETATM    6  S   UNL     1      41.746 -14.708   2.864  1.00  0.00    -0.061 SA
HETATM    7  C   UNL     1      42.468 -16.263   2.776  1.00  0.00     0.086 A 
HETATM    8  C   UNL     1      43.111 -16.548   3.964  1.00  0.00     0.078 A 
HETATM    9  N   UNL     1      43.049 -15.542   4.917  1.00  0.00    -0.223 NA
BRANCH   8  10
HETATM   10  C   UNL     1      43.764 -17.805   4.346  1.00  0.00     0.021 A 
HETATM   11  C   UNL     1      43.859 -19.013   3.586  1.00  0.00     0.004 A 
HETATM   12  C   UNL     1      44.512 -19.947   4.400  1.00  0.00     0.043 A 
HETATM   13  C   UNL     1      43.472 -19.430   2.293  1.00  0.00     0.014 A 
HETATM   14  C   UNL     1      44.764 -21.266   4.001  1.00  0.00     0.030 A 
HETATM   15  N   UNL     1      44.826 -19.314   5.581  1.00  0.00    -0.364 N 
HETATM   16  C   UNL     1      44.352 -21.650   2.723  1.00  0.00     0.002 A 
HETATM   17  C   UNL     1      43.720 -20.745   1.877  1.00  0.00     0.001 A 
HETATM   18  H   UNL     1      45.311 -19.748   6.355  1.00  0.00     0.165 HD
HETATM   19  C   UNL     1      44.392 -18.021   5.554  1.00  0.00     0.103 A 
ENDBRANCH   8  10
ENDBRANCH   2   5
BRANCH   1  20
HETATM   20  C   UNL     1      40.646 -11.801   6.344  1.00  0.00     0.226 C 
BRANCH  20  21
HETATM   21  N   UNL     1      40.678 -11.539   7.780  1.00  0.00    -0.348 N 
HETATM   22  C   UNL     1      41.541 -10.625   8.336  1.00  0.00     0.252 C 
HETATM   23  O   UNL     1      42.483 -10.158   7.702  1.00  0.00    -0.268 OA
HETATM   24  H   UNL     1      40.018 -12.034   8.366  1.00  0.00     0.163 HD
BRANCH  22  25
HETATM   25  C   UNL     1      41.356 -10.294   9.771  1.00  0.00     0.033 A 
HETATM   26  C   UNL     1      40.053 -10.059  10.228  1.00  0.00     0.023 A 
HETATM   27  C   UNL     1      39.818  -9.759  11.573  1.00  0.00    -0.061 A 
HETATM   28  C   UNL     1      38.430  -9.467  12.062  1.00  0.00     0.048 C 
HETATM   29  C   UNL     1      40.904  -9.699  12.456  1.00  0.00     0.013 A 
HETATM   30  C   UNL     1      42.210  -9.963  12.017  1.00  0.00    -0.061 A 
HETATM   31  C   UNL     1      42.433 -10.253  10.664  1.00  0.00     0.023 A 
HETATM   32  C   UNL     1      43.350  -9.907  12.991  1.00  0.00     0.048 C 
ENDBRANCH  22  25
ENDBRANCH  20  21
ENDBRANCH   1  20
TORSDOF 5
ENDMDL
