MODEL 1
REMARK VINA RESULT:      -9.5      0.000      0.000
REMARK  8 active torsions:
REMARK  status: ('A' for Active; 'I' for Inactive)
REMARK    1  A    between atoms: N_9  and  N_10 
REMARK    2  A    between atoms: C_11  and  C_12 
REMARK    3  A    between atoms: C_14  and  O_15 
REMARK    4  A    between atoms: C_19  and  N_20 
REMARK    5  A    between atoms: C_21  and  C_22 
REMARK       I    between atoms: C_22  and  N_23 
REMARK    6  A    between atoms: N_23  and  C_24 
REMARK    7  A    between atoms: C_24  and  C_25 
REMARK    8  A    between atoms: C_25  and  C_26 
ROOT
HETATM    1  C   UNL     1      39.037 -10.351   4.775  1.00  0.00     0.002 A 
HETATM    2  C   UNL     1      40.152 -10.556   5.591  1.00  0.00     0.034 A 
HETATM    3  C   UNL     1      40.867 -11.749   5.564  1.00  0.00     0.086 A 
HETATM    4  C   UNL     1      40.444 -12.784   4.688  1.00  0.00     0.088 A 
HETATM    5  N   UNL     1      41.075 -13.966   4.599  1.00  0.00    -0.225 NA
HETATM    6  C   UNL     1      42.168 -14.047   5.397  1.00  0.00     0.183 A 
HETATM    7  C   UNL     1      42.607 -13.040   6.250  1.00  0.00     0.125 A 
HETATM    8  N   UNL     1      41.935 -11.868   6.372  1.00  0.00    -0.242 NA
HETATM    9  N   UNL     1      43.024 -15.125   5.537  1.00  0.00    -0.197 N 
HETATM   10  C   UNL     1      44.042 -14.765   6.424  1.00  0.00     0.143 A 
HETATM   11  C   UNL     1      43.767 -13.498   6.913  1.00  0.00     0.110 A 
HETATM   12  C   UNL     1      39.331 -12.567   3.885  1.00  0.00     0.034 A 
HETATM   13  C   UNL     1      38.625 -11.363   3.918  1.00  0.00     0.002 A 
ENDROOT
BRANCH  11  14
HETATM   14  C   UNL     1      44.496 -12.905   8.012  1.00  0.00     0.257 C 
HETATM   15  N   UNL     1      43.678 -12.216   8.887  1.00  0.00    -0.356 N 
HETATM   16  H   UNL     1      42.700 -12.133   8.639  1.00  0.00     0.162 HD
HETATM   17  O   UNL     1      45.669 -13.170   8.251  1.00  0.00    -0.267 OA
BRANCH  15  18
HETATM   18  C   UNL     1      44.026 -12.162  10.295  1.00  0.00     0.127 C 
BRANCH  18  19
HETATM   19  C   UNL     1      44.025 -10.708  10.829  1.00  0.00     0.053 C 
BRANCH  19  20
HETATM   20  C   UNL     1      43.331 -10.378  12.142  1.00  0.00    -0.082 C 
HETATM   21  C   UNL     1      42.147 -11.272  12.461  1.00  0.00     0.034 C 
HETATM   22  C   UNL     1      41.246 -10.742  13.580  1.00  0.00     0.005 C 
HETATM   23  C   UNL     1      42.071 -10.234  14.754  1.00  0.00     0.004 C 
HETATM   24  C   UNL     1      43.027  -9.130  14.311  1.00  0.00     0.027 C 
HETATM   25  C   UNL     1      43.708  -9.412  13.001  1.00  0.00    -0.024 C 
ENDBRANCH  19  20
ENDBRANCH  18  19
ENDBRANCH  15  18
ENDBRANCH  11  14
BRANCH  10  26
HETATM   26  N   UNL     1      45.032 -15.626   6.792  1.00  0.00    -0.383 N 
HETATM   27  H   UNL     1      45.816 -15.804   6.167  1.00  0.00     0.157 HD
HETATM   28  H   UNL     1      44.796 -16.438   7.370  1.00  0.00     0.157 HD
ENDBRANCH  10  26
BRANCH   9  29
HETATM   29  N   UNL     1      42.772 -16.406   5.114  1.00  0.00    -0.176 NA
HETATM   30  C   UNL     1      43.345 -16.710   3.994  1.00  0.00     0.150 C 
BRANCH  30  31
HETATM   31  C   UNL     1      43.488 -18.117   3.575  1.00  0.00    -0.014 A 
HETATM   32  C   UNL     1      44.216 -19.007   4.374  1.00  0.00     0.049 A 
HETATM   33  C   UNL     1      44.488 -20.281   3.890  1.00  0.00     0.066 A 
HETATM   34  C   UNL     1      44.032 -20.681   2.640  1.00  0.00     0.036 A 
HETATM   35  C   UNL     1      43.292 -19.796   1.853  1.00  0.00     0.004 A 
HETATM   36  C   UNL     1      43.026 -18.506   2.316  1.00  0.00     0.013 A 
BRANCH  33  37
HETATM   37  O   UNL     1      45.234 -21.167   4.610  1.00  0.00    -0.361 OA
HETATM   38  H   UNL     1      45.762 -20.674   5.261  1.00  0.00     0.217 HD
ENDBRANCH  33  37
ENDBRANCH  30  31
ENDBRANCH   9  29
TORSDOF 8
ENDMDL
MODEL 2
REMARK VINA RESULT:      -9.3      5.203      7.378
REMARK  8 active torsions:
REMARK  status: ('A' for Active; 'I' for Inactive)
REMARK    1  A    between atoms: N_9  and  N_10 
REMARK    2  A    between atoms: C_11  and  C_12 
REMARK    3  A    between atoms: C_14  and  O_15 
REMARK    4  A    between atoms: C_19  and  N_20 
REMARK    5  A    between atoms: C_21  and  C_22 
REMARK       I    between atoms: C_22  and  N_23 
REMARK    6  A    between atoms: N_23  and  C_24 
REMARK    7  A    between atoms: C_24  and  C_25 
REMARK    8  A    between atoms: C_25  and  C_26 
ROOT
HETATM    1  C   UNL     1      40.388 -13.634  -3.214  1.00  0.00     0.002 A 
HETATM    2  C   UNL     1      40.727 -13.154  -1.947  1.00  0.00     0.034 A 
HETATM    3  C   UNL     1      41.176 -14.003  -0.940  1.00  0.00     0.086 A 
HETATM    4  C   UNL     1      41.283 -15.394  -1.212  1.00  0.00     0.088 A 
HETATM    5  N   UNL     1      41.707 -16.283  -0.300  1.00  0.00    -0.225 NA
HETATM    6  C   UNL     1      42.052 -15.712   0.880  1.00  0.00     0.183 A 
HETATM    7  C   UNL     1      41.969 -14.353   1.161  1.00  0.00     0.125 A 
HETATM    8  N   UNL     1      41.492 -13.466   0.250  1.00  0.00    -0.242 NA
HETATM    9  N   UNL     1      42.519 -16.352   2.014  1.00  0.00    -0.197 N 
HETATM   10  C   UNL     1      42.797 -15.383   2.982  1.00  0.00     0.143 A 
HETATM   11  C   UNL     1      42.411 -14.148   2.487  1.00  0.00     0.110 A 
HETATM   12  C   UNL     1      40.939 -15.856  -2.477  1.00  0.00     0.034 A 
HETATM   13  C   UNL     1      40.495 -14.992  -3.479  1.00  0.00     0.002 A 
ENDROOT
BRANCH  11  14
HETATM   14  C   UNL     1      42.357 -12.956   3.303  1.00  0.00     0.257 C 
HETATM   15  N   UNL     1      41.654 -11.928   2.703  1.00  0.00    -0.356 N 
HETATM   16  H   UNL     1      41.327 -12.080   1.757  1.00  0.00     0.162 HD
HETATM   17  O   UNL     1      42.707 -12.938   4.478  1.00  0.00    -0.267 OA
BRANCH  15  18
HETATM   18  C   UNL     1      40.917 -10.990   3.531  1.00  0.00     0.127 C 
BRANCH  18  19
HETATM   19  C   UNL     1      39.430 -11.398   3.672  1.00  0.00     0.053 C 
BRANCH  19  20
HETATM   20  C   UNL     1      38.749 -12.193   2.568  1.00  0.00    -0.082 C 
HETATM   21  C   UNL     1      38.032 -11.339   1.538  1.00  0.00     0.034 C 
HETATM   22  C   UNL     1      37.071 -12.119   0.637  1.00  0.00     0.005 C 
HETATM   23  C   UNL     1      37.705 -13.413   0.148  1.00  0.00     0.004 C 
HETATM   24  C   UNL     1      38.122 -14.294   1.323  1.00  0.00     0.027 C 
HETATM   25  C   UNL     1      38.773 -13.534   2.444  1.00  0.00    -0.024 C 
ENDBRANCH  19  20
ENDBRANCH  18  19
ENDBRANCH  15  18
ENDBRANCH  11  14
BRANCH  10  26
HETATM   26  N   UNL     1      43.249 -15.699   4.228  1.00  0.00    -0.383 N 
HETATM   27  H   UNL     1      42.602 -16.035   4.939  1.00  0.00     0.157 HD
HETATM   28  H   UNL     1      44.029 -15.167   4.624  1.00  0.00     0.157 HD
ENDBRANCH  10  26
BRANCH   9  29
HETATM   29  N   UNL     1      42.453 -17.701   2.256  1.00  0.00    -0.176 NA
HETATM   30  C   UNL     1      43.522 -18.346   1.917  1.00  0.00     0.150 C 
BRANCH  30  31
HETATM   31  C   UNL     1      43.776 -19.709   2.422  1.00  0.00    -0.014 A 
HETATM   32  C   UNL     1      44.210 -19.889   3.741  1.00  0.00     0.049 A 
HETATM   33  C   UNL     1      44.608 -21.154   4.154  1.00  0.00     0.066 A 
HETATM   34  C   UNL     1      44.560 -22.236   3.283  1.00  0.00     0.036 A 
HETATM   35  C   UNL     1      44.111 -22.056   1.973  1.00  0.00     0.004 A 
HETATM   36  C   UNL     1      43.726 -20.787   1.536  1.00  0.00     0.013 A 
BRANCH  33  37
HETATM   37  O   UNL     1      45.084 -21.371   5.414  1.00  0.00    -0.361 OA
HETATM   38  H   UNL     1      46.047 -21.496   5.366  1.00  0.00     0.217 HD
ENDBRANCH  33  37
ENDBRANCH  30  31
ENDBRANCH   9  29
TORSDOF 8
ENDMDL
MODEL 3
REMARK VINA RESULT:      -9.2      3.103      6.202
REMARK  8 active torsions:
REMARK  status: ('A' for Active; 'I' for Inactive)
REMARK    1  A    between atoms: N_9  and  N_10 
REMARK    2  A    between atoms: C_11  and  C_12 
REMARK    3  A    between atoms: C_14  and  O_15 
REMARK    4  A    between atoms: C_19  and  N_20 
REMARK    5  A    between atoms: C_21  and  C_22 
REMARK       I    between atoms: C_22  and  N_23 
REMARK    6  A    between atoms: N_23  and  C_24 
REMARK    7  A    between atoms: C_24  and  C_25 
REMARK    8  A    between atoms: C_25  and  C_26 
ROOT
HETATM    1  C   UNL     1      44.817 -21.305   3.219  1.00  0.00     0.002 A 
HETATM    2  C   UNL     1      44.892 -20.298   4.184  1.00  0.00     0.034 A 
HETATM    3  C   UNL     1      44.136 -19.134   4.085  1.00  0.00     0.086 A 
HETATM    4  C   UNL     1      43.273 -18.969   2.968  1.00  0.00     0.088 A 
HETATM    5  N   UNL     1      42.509 -17.878   2.795  1.00  0.00    -0.225 NA
HETATM    6  C   UNL     1      42.621 -16.983   3.806  1.00  0.00     0.183 A 
HETATM    7  C   UNL     1      43.448 -17.133   4.914  1.00  0.00     0.125 A 
HETATM    8  N   UNL     1      44.255 -18.215   5.058  1.00  0.00    -0.242 NA
HETATM    9  N   UNL     1      41.973 -15.766   3.922  1.00  0.00    -0.197 N 
HETATM   10  C   UNL     1      42.341 -15.188   5.139  1.00  0.00     0.143 A 
HETATM   11  C   UNL     1      43.293 -15.997   5.738  1.00  0.00     0.110 A 
HETATM   12  C   UNL     1      43.212 -19.978   2.015  1.00  0.00     0.034 A 
HETATM   13  C   UNL     1      43.973 -21.143   2.130  1.00  0.00     0.002 A 
ENDROOT
BRANCH  11  14
HETATM   14  C   UNL     1      44.046 -15.593   6.904  1.00  0.00     0.257 C 
HETATM   15  N   UNL     1      44.838 -14.485   6.672  1.00  0.00    -0.356 N 
HETATM   16  H   UNL     1      44.870 -14.128   5.725  1.00  0.00     0.162 HD
HETATM   17  O   UNL     1      43.836 -16.050   8.022  1.00  0.00    -0.267 OA
BRANCH  15  18
HETATM   18  C   UNL     1      45.096 -13.553   7.755  1.00  0.00     0.127 C 
BRANCH  18  19
HETATM   19  C   UNL     1      44.057 -12.405   7.780  1.00  0.00     0.053 C 
BRANCH  19  20
HETATM   20  C   UNL     1      43.773 -11.661   9.077  1.00  0.00    -0.082 C 
HETATM   21  C   UNL     1      44.622 -12.112  10.251  1.00  0.00     0.034 C 
HETATM   22  C   UNL     1      44.117 -11.627  11.613  1.00  0.00     0.005 C 
HETATM   23  C   UNL     1      43.725 -10.158  11.561  1.00  0.00     0.004 C 
HETATM   24  C   UNL     1      42.646  -9.918  10.508  1.00  0.00     0.027 C 
HETATM   25  C   UNL     1      42.883 -10.662   9.224  1.00  0.00    -0.024 C 
ENDBRANCH  19  20
ENDBRANCH  18  19
ENDBRANCH  15  18
ENDBRANCH  11  14
BRANCH  10  26
HETATM   26  N   UNL     1      41.889 -13.964   5.536  1.00  0.00    -0.383 N 
HETATM   27  H   UNL     1      42.067 -13.141   4.964  1.00  0.00     0.157 HD
HETATM   28  H   UNL     1      41.849 -13.749   6.536  1.00  0.00     0.157 HD
ENDBRANCH  10  26
BRANCH   9  29
HETATM   29  N   UNL     1      41.319 -15.109   2.910  1.00  0.00    -0.176 NA
HETATM   30  C   UNL     1      42.109 -14.619   2.009  1.00  0.00     0.150 C 
BRANCH  30  31
HETATM   31  C   UNL     1      41.589 -14.208   0.690  1.00  0.00    -0.014 A 
HETATM   32  C   UNL     1      41.020 -15.165  -0.159  1.00  0.00     0.049 A 
HETATM   33  C   UNL     1      40.689 -14.804  -1.459  1.00  0.00     0.066 A 
HETATM   34  C   UNL     1      40.900 -13.507  -1.913  1.00  0.00     0.036 A 
HETATM   35  C   UNL     1      41.452 -12.551  -1.058  1.00  0.00     0.004 A 
HETATM   36  C   UNL     1      41.807 -12.903   0.246  1.00  0.00     0.013 A 
BRANCH  33  37
HETATM   37  O   UNL     1      40.178 -15.712  -2.338  1.00  0.00    -0.361 OA
HETATM   38  H   UNL     1      40.810 -15.831  -3.067  1.00  0.00     0.217 HD
ENDBRANCH  33  37
ENDBRANCH  30  31
ENDBRANCH   9  29
TORSDOF 8
ENDMDL
MODEL 4
REMARK VINA RESULT:      -9.1      3.950      6.914
REMARK  8 active torsions:
REMARK  status: ('A' for Active; 'I' for Inactive)
REMARK    1  A    between atoms: N_9  and  N_10 
REMARK    2  A    between atoms: C_11  and  C_12 
REMARK    3  A    between atoms: C_14  and  O_15 
REMARK    4  A    between atoms: C_19  and  N_20 
REMARK    5  A    between atoms: C_21  and  C_22 
REMARK       I    between atoms: C_22  and  N_23 
REMARK    6  A    between atoms: N_23  and  C_24 
REMARK    7  A    between atoms: C_24  and  C_25 
REMARK    8  A    between atoms: C_25  and  C_26 
ROOT
HETATM    1  C   UNL     1      44.934 -21.020   3.761  1.00  0.00     0.002 A 
HETATM    2  C   UNL     1      44.459 -19.901   4.449  1.00  0.00     0.034 A 
HETATM    3  C   UNL     1      43.588 -18.994   3.854  1.00  0.00     0.086 A 
HETATM    4  C   UNL     1      43.180 -19.214   2.510  1.00  0.00     0.088 A 
HETATM    5  N   UNL     1      42.342 -18.390   1.861  1.00  0.00    -0.225 NA
HETATM    6  C   UNL     1      41.905 -17.362   2.627  1.00  0.00     0.183 A 
HETATM    7  C   UNL     1      42.280 -17.138   3.947  1.00  0.00     0.125 A 
HETATM    8  N   UNL     1      43.167 -17.947   4.582  1.00  0.00    -0.242 NA
HETATM    9  N   UNL     1      41.043 -16.346   2.253  1.00  0.00    -0.197 N 
HETATM   10  C   UNL     1      40.823 -15.526   3.363  1.00  0.00     0.143 A 
HETATM   11  C   UNL     1      41.623 -15.973   4.402  1.00  0.00     0.110 A 
HETATM   12  C   UNL     1      43.663 -20.331   1.839  1.00  0.00     0.034 A 
HETATM   13  C   UNL     1      44.534 -21.235   2.450  1.00  0.00     0.002 A 
ENDROOT
BRANCH  11  14
HETATM   14  C   UNL     1      41.806 -15.229   5.628  1.00  0.00     0.257 C 
HETATM   15  N   UNL     1      43.123 -14.871   5.844  1.00  0.00    -0.356 N 
HETATM   16  H   UNL     1      43.812 -15.218   5.189  1.00  0.00     0.162 HD
HETATM   17  O   UNL     1      40.869 -14.785   6.282  1.00  0.00    -0.267 OA
BRANCH  15  18
HETATM   18  C   UNL     1      43.419 -13.634   6.545  1.00  0.00     0.127 C 
BRANCH  18  19
HETATM   19  C   UNL     1      44.662 -13.778   7.458  1.00  0.00     0.053 C 
BRANCH  19  20
HETATM   20  C   UNL     1      44.986 -12.700   8.481  1.00  0.00    -0.082 C 
HETATM   21  C   UNL     1      43.911 -12.497   9.533  1.00  0.00     0.034 C 
HETATM   22  C   UNL     1      44.062 -11.207  10.344  1.00  0.00     0.005 C 
HETATM   23  C   UNL     1      45.506 -10.997  10.775  1.00  0.00     0.004 C 
HETATM   24  C   UNL     1      46.435 -10.944   9.565  1.00  0.00     0.027 C 
HETATM   25  C   UNL     1      46.122 -11.979   8.521  1.00  0.00    -0.024 C 
ENDBRANCH  19  20
ENDBRANCH  18  19
ENDBRANCH  15  18
ENDBRANCH  11  14
BRANCH  10  26
HETATM   26  N   UNL     1      40.035 -14.415   3.309  1.00  0.00    -0.383 N 
HETATM   27  H   UNL     1      40.205 -13.635   3.940  1.00  0.00     0.157 HD
HETATM   28  H   UNL     1      39.046 -14.517   3.065  1.00  0.00     0.157 HD
ENDBRANCH  10  26
BRANCH   9  29
HETATM   29  N   UNL     1      40.694 -16.028   0.964  1.00  0.00    -0.176 NA
HETATM   30  C   UNL     1      41.352 -15.026   0.477  1.00  0.00     0.150 C 
BRANCH  30  31
HETATM   31  C   UNL     1      41.379 -14.773  -0.977  1.00  0.00    -0.014 A 
HETATM   32  C   UNL     1      41.824 -13.535  -1.457  1.00  0.00     0.049 A 
HETATM   33  C   UNL     1      41.686 -13.246  -2.808  1.00  0.00     0.066 A 
HETATM   34  C   UNL     1      41.133 -14.174  -3.683  1.00  0.00     0.036 A 
HETATM   35  C   UNL     1      40.706 -15.414  -3.203  1.00  0.00     0.004 A 
HETATM   36  C   UNL     1      40.819 -15.713  -1.844  1.00  0.00     0.013 A 
BRANCH  33  37
HETATM   37  O   UNL     1      42.060 -12.036  -3.315  1.00  0.00    -0.361 OA
HETATM   38  H   UNL     1      43.028 -11.966  -3.271  1.00  0.00     0.217 HD
ENDBRANCH  33  37
ENDBRANCH  30  31
ENDBRANCH   9  29
TORSDOF 8
ENDMDL
MODEL 5
REMARK VINA RESULT:      -9.1      3.879      5.740
REMARK  8 active torsions:
REMARK  status: ('A' for Active; 'I' for Inactive)
REMARK    1  A    between atoms: N_9  and  N_10 
REMARK    2  A    between atoms: C_11  and  C_12 
REMARK    3  A    between atoms: C_14  and  O_15 
REMARK    4  A    between atoms: C_19  and  N_20 
REMARK    5  A    between atoms: C_21  and  C_22 
REMARK       I    between atoms: C_22  and  N_23 
REMARK    6  A    between atoms: N_23  and  C_24 
REMARK    7  A    between atoms: C_24  and  C_25 
REMARK    8  A    between atoms: C_25  and  C_26 
ROOT
HETATM    1  C   UNL     1      43.296 -18.226   6.574  1.00  0.00     0.002 A 
HETATM    2  C   UNL     1      42.811 -16.954   6.884  1.00  0.00     0.034 A 
HETATM    3  C   UNL     1      42.647 -15.977   5.907  1.00  0.00     0.086 A 
HETATM    4  C   UNL     1      42.989 -16.286   4.563  1.00  0.00     0.088 A 
HETATM    5  N   UNL     1      42.862 -15.403   3.559  1.00  0.00    -0.225 NA
HETATM    6  C   UNL     1      42.343 -14.216   3.956  1.00  0.00     0.183 A 
HETATM    7  C   UNL     1      41.988 -13.900   5.263  1.00  0.00     0.125 A 
HETATM    8  N   UNL     1      42.167 -14.780   6.281  1.00  0.00    -0.242 NA
HETATM    9  N   UNL     1      42.094 -13.106   3.168  1.00  0.00    -0.197 N 
HETATM   10  C   UNL     1      41.514 -12.120   3.970  1.00  0.00     0.143 A 
HETATM   11  C   UNL     1      41.492 -12.577   5.278  1.00  0.00     0.110 A 
HETATM   12  C   UNL     1      43.473 -17.555   4.271  1.00  0.00     0.034 A 
HETATM   13  C   UNL     1      43.628 -18.528   5.260  1.00  0.00     0.002 A 
ENDROOT
BRANCH  11  14
HETATM   14  C   UNL     1      41.158 -11.730   6.401  1.00  0.00     0.257 C 
HETATM   15  N   UNL     1      42.076 -11.819   7.431  1.00  0.00    -0.356 N 
HETATM   16  H   UNL     1      42.819 -12.500   7.331  1.00  0.00     0.162 HD
HETATM   17  O   UNL     1      40.281 -10.874   6.350  1.00  0.00    -0.267 OA
BRANCH  15  18
HETATM   18  C   UNL     1      42.329 -10.657   8.262  1.00  0.00     0.127 C 
BRANCH  18  19
HETATM   19  C   UNL     1      43.331 -10.975   9.399  1.00  0.00     0.053 C 
BRANCH  19  20
HETATM   20  C   UNL     1      42.978 -10.643  10.842  1.00  0.00    -0.082 C 
HETATM   21  C   UNL     1      41.558 -11.009  11.234  1.00  0.00     0.034 C 
HETATM   22  C   UNL     1      41.089 -10.378  12.548  1.00  0.00     0.005 C 
HETATM   23  C   UNL     1      42.159 -10.490  13.623  1.00  0.00     0.004 C 
HETATM   24  C   UNL     1      43.455  -9.819  13.176  1.00  0.00     0.027 C 
HETATM   25  C   UNL     1      43.817 -10.104  11.745  1.00  0.00    -0.024 C 
ENDBRANCH  19  20
ENDBRANCH  18  19
ENDBRANCH  15  18
ENDBRANCH  11  14
BRANCH  10  26
HETATM   26  N   UNL     1      41.175 -10.890   3.491  1.00  0.00    -0.383 N 
HETATM   27  H   UNL     1      41.195 -10.707   2.489  1.00  0.00     0.157 HD
HETATM   28  H   UNL     1      41.397 -10.060   4.048  1.00  0.00     0.157 HD
ENDBRANCH  10  26
BRANCH   9  29
HETATM   29  N   UNL     1      42.583 -12.897   1.903  1.00  0.00    -0.176 NA
HETATM   30  C   UNL     1      41.801 -13.322   0.964  1.00  0.00     0.150 C 
BRANCH  30  31
HETATM   31  C   UNL     1      41.979 -12.871  -0.430  1.00  0.00    -0.014 A 
HETATM   32  C   UNL     1      41.698 -13.749  -1.484  1.00  0.00     0.049 A 
HETATM   33  C   UNL     1      42.028 -13.376  -2.780  1.00  0.00     0.066 A 
HETATM   34  C   UNL     1      42.612 -12.141  -3.040  1.00  0.00     0.036 A 
HETATM   35  C   UNL     1      42.874 -11.261  -1.988  1.00  0.00     0.004 A 
HETATM   36  C   UNL     1      42.566 -11.629  -0.677  1.00  0.00     0.013 A 
BRANCH  33  37
HETATM   37  O   UNL     1      41.819 -14.216  -3.834  1.00  0.00    -0.361 OA
HETATM   38  H   UNL     1      42.210 -15.081  -3.626  1.00  0.00     0.217 HD
ENDBRANCH  33  37
ENDBRANCH  30  31
ENDBRANCH   9  29
TORSDOF 8
ENDMDL
MODEL 6
REMARK VINA RESULT:      -8.9      3.819      6.027
REMARK  8 active torsions:
REMARK  status: ('A' for Active; 'I' for Inactive)
REMARK    1  A    between atoms: N_9  and  N_10 
REMARK    2  A    between atoms: C_11  and  C_12 
REMARK    3  A    between atoms: C_14  and  O_15 
REMARK    4  A    between atoms: C_19  and  N_20 
REMARK    5  A    between atoms: C_21  and  C_22 
REMARK       I    between atoms: C_22  and  N_23 
REMARK    6  A    between atoms: N_23  and  C_24 
REMARK    7  A    between atoms: C_24  and  C_25 
REMARK    8  A    between atoms: C_25  and  C_26 
ROOT
HETATM    1  C   UNL     1      43.265 -18.466   7.043  1.00  0.00     0.002 A 
HETATM    2  C   UNL     1      42.559 -17.269   7.174  1.00  0.00     0.034 A 
HETATM    3  C   UNL     1      42.101 -16.567   6.064  1.00  0.00     0.086 A 
HETATM    4  C   UNL     1      42.367 -17.083   4.767  1.00  0.00     0.088 A 
HETATM    5  N   UNL     1      41.962 -16.470   3.643  1.00  0.00    -0.225 NA
HETATM    6  C   UNL     1      41.248 -15.343   3.878  1.00  0.00     0.183 A 
HETATM    7  C   UNL     1      40.964 -14.829   5.139  1.00  0.00     0.125 A 
HETATM    8  N   UNL     1      41.420 -15.427   6.270  1.00  0.00    -0.242 NA
HETATM    9  N   UNL     1      40.697 -14.489   2.939  1.00  0.00    -0.197 N 
HETATM   10  C   UNL     1      40.006 -13.480   3.615  1.00  0.00     0.143 A 
HETATM   11  C   UNL     1      40.208 -13.648   4.975  1.00  0.00     0.110 A 
HETATM   12  C   UNL     1      43.073 -18.274   4.653  1.00  0.00     0.034 A 
HETATM   13  C   UNL     1      43.524 -18.971   5.776  1.00  0.00     0.002 A 
ENDROOT
BRANCH  11  14
HETATM   14  C   UNL     1      39.815 -12.660   5.955  1.00  0.00     0.257 C 
HETATM   15  N   UNL     1      40.881 -12.192   6.700  1.00  0.00    -0.356 N 
HETATM   16  H   UNL     1      41.782 -12.627   6.543  1.00  0.00     0.162 HD
HETATM   17  O   UNL     1      38.703 -12.144   5.971  1.00  0.00    -0.267 OA
BRANCH  15  18
HETATM   18  C   UNL     1      40.865 -10.824   7.185  1.00  0.00     0.127 C 
BRANCH  18  19
HETATM   19  C   UNL     1      40.778 -10.767   8.731  1.00  0.00     0.053 C 
BRANCH  19  20
HETATM   20  C   UNL     1      42.042 -10.611   9.562  1.00  0.00    -0.082 C 
HETATM   21  C   UNL     1      41.812 -10.011  10.937  1.00  0.00     0.034 C 
HETATM   22  C   UNL     1      43.089  -9.535  11.635  1.00  0.00     0.005 C 
HETATM   23  C   UNL     1      44.203 -10.564  11.501  1.00  0.00     0.004 C 
HETATM   24  C   UNL     1      44.507 -10.851  10.033  1.00  0.00     0.027 C 
HETATM   25  C   UNL     1      43.278 -10.983   9.179  1.00  0.00    -0.024 C 
ENDBRANCH  19  20
ENDBRANCH  18  19
ENDBRANCH  15  18
ENDBRANCH  11  14
BRANCH  10  26
HETATM   26  N   UNL     1      39.374 -12.462   2.965  1.00  0.00    -0.383 N 
HETATM   27  H   UNL     1      39.214 -11.574   3.435  1.00  0.00     0.157 HD
HETATM   28  H   UNL     1      38.643 -12.686   2.284  1.00  0.00     0.157 HD
ENDBRANCH  10  26
BRANCH   9  29
HETATM   29  N   UNL     1      41.007 -14.464   1.602  1.00  0.00    -0.176 NA
HETATM   30  C   UNL     1      40.064 -14.916   0.839  1.00  0.00     0.150 C 
BRANCH  30  31
HETATM   31  C   UNL     1      40.065 -14.637  -0.610  1.00  0.00    -0.014 A 
HETATM   32  C   UNL     1      41.079 -15.169  -1.417  1.00  0.00     0.049 A 
HETATM   33  C   UNL     1      41.168 -14.765  -2.743  1.00  0.00     0.066 A 
HETATM   34  C   UNL     1      40.256 -13.860  -3.275  1.00  0.00     0.036 A 
HETATM   35  C   UNL     1      39.237 -13.346  -2.472  1.00  0.00     0.004 A 
HETATM   36  C   UNL     1      39.144 -13.727  -1.131  1.00  0.00     0.013 A 
BRANCH  33  37
HETATM   37  O   UNL     1      42.166 -15.217  -3.556  1.00  0.00    -0.361 OA
HETATM   38  H   UNL     1      42.155 -16.189  -3.551  1.00  0.00     0.217 HD
ENDBRANCH  33  37
ENDBRANCH  30  31
ENDBRANCH   9  29
TORSDOF 8
ENDMDL
MODEL 7
REMARK VINA RESULT:      -8.9      3.986     10.038
REMARK  8 active torsions:
REMARK  status: ('A' for Active; 'I' for Inactive)
REMARK    1  A    between atoms: N_9  and  N_10 
REMARK    2  A    between atoms: C_11  and  C_12 
REMARK    3  A    between atoms: C_14  and  O_15 
REMARK    4  A    between atoms: C_19  and  N_20 
REMARK    5  A    between atoms: C_21  and  C_22 
REMARK       I    between atoms: C_22  and  N_23 
REMARK    6  A    between atoms: N_23  and  C_24 
REMARK    7  A    between atoms: C_24  and  C_25 
REMARK    8  A    between atoms: C_25  and  C_26 
ROOT
HETATM    1  C   UNL     1      43.964 -20.942   2.475  1.00  0.00     0.002 A 
HETATM    2  C   UNL     1      43.172 -19.855   2.098  1.00  0.00     0.034 A 
HETATM    3  C   UNL     1      43.168 -18.668   2.824  1.00  0.00     0.086 A 
HETATM    4  C   UNL     1      43.986 -18.568   3.981  1.00  0.00     0.088 A 
HETATM    5  N   UNL     1      44.043 -17.461   4.739  1.00  0.00    -0.225 NA
HETATM    6  C   UNL     1      43.274 -16.451   4.264  1.00  0.00     0.183 A 
HETATM    7  C   UNL     1      42.478 -16.524   3.126  1.00  0.00     0.125 A 
HETATM    8  N   UNL     1      42.387 -17.664   2.394  1.00  0.00    -0.242 NA
HETATM    9  N   UNL     1      43.112 -15.192   4.815  1.00  0.00    -0.197 N 
HETATM   10  C   UNL     1      42.271 -14.452   3.980  1.00  0.00     0.143 A 
HETATM   11  C   UNL     1      41.828 -15.281   2.961  1.00  0.00     0.110 A 
HETATM   12  C   UNL     1      44.766 -19.659   4.345  1.00  0.00     0.034 A 
HETATM   13  C   UNL     1      44.764 -20.843   3.605  1.00  0.00     0.002 A 
ENDROOT
BRANCH  11  14
HETATM   14  C   UNL     1      40.777 -14.904   2.043  1.00  0.00     0.257 C 
HETATM   15  N   UNL     1      41.210 -14.026   1.067  1.00  0.00    -0.356 N 
HETATM   16  H   UNL     1      42.161 -13.688   1.136  1.00  0.00     0.162 HD
HETATM   17  O   UNL     1      39.690 -15.469   2.008  1.00  0.00    -0.267 OA
BRANCH  15  18
HETATM   18  C   UNL     1      40.601 -14.069  -0.251  1.00  0.00     0.127 C 
BRANCH  18  19
HETATM   19  C   UNL     1      41.668 -14.061  -1.374  1.00  0.00     0.053 C 
BRANCH  19  20
HETATM   20  C   UNL     1      42.100 -12.747  -2.007  1.00  0.00    -0.082 C 
HETATM   21  C   UNL     1      41.652 -12.574  -3.447  1.00  0.00     0.034 C 
HETATM   22  C   UNL     1      42.358 -11.438  -4.191  1.00  0.00     0.005 C 
HETATM   23  C   UNL     1      42.437 -10.185  -3.331  1.00  0.00     0.004 C 
HETATM   24  C   UNL     1      43.173 -10.466  -2.024  1.00  0.00     0.027 C 
HETATM   25  C   UNL     1      42.790 -11.772  -1.387  1.00  0.00    -0.024 C 
ENDBRANCH  19  20
ENDBRANCH  18  19
ENDBRANCH  15  18
ENDBRANCH  11  14
BRANCH  10  26
HETATM   26  N   UNL     1      41.895 -13.174   4.265  1.00  0.00    -0.383 N 
HETATM   27  H   UNL     1      42.452 -12.604   4.898  1.00  0.00     0.157 HD
HETATM   28  H   UNL     1      40.897 -12.945   4.302  1.00  0.00     0.157 HD
ENDBRANCH  10  26
BRANCH   9  29
HETATM   29  N   UNL     1      43.472 -14.824   6.087  1.00  0.00    -0.176 NA
HETATM   30  C   UNL     1      44.648 -14.288   6.163  1.00  0.00     0.150 C 
BRANCH  30  31
HETATM   31  C   UNL     1      45.052 -13.515   7.353  1.00  0.00    -0.014 A 
HETATM   32  C   UNL     1      44.158 -13.369   8.420  1.00  0.00     0.049 A 
HETATM   33  C   UNL     1      44.480 -12.503   9.458  1.00  0.00     0.066 A 
HETATM   34  C   UNL     1      45.680 -11.802   9.454  1.00  0.00     0.036 A 
HETATM   35  C   UNL     1      46.576 -11.963   8.396  1.00  0.00     0.004 A 
HETATM   36  C   UNL     1      46.260 -12.815   7.336  1.00  0.00     0.013 A 
BRANCH  33  37
HETATM   37  O   UNL     1      43.621 -12.290  10.495  1.00  0.00    -0.361 OA
HETATM   38  H   UNL     1      42.771 -11.980  10.138  1.00  0.00     0.217 HD
ENDBRANCH  33  37
ENDBRANCH  30  31
ENDBRANCH   9  29
TORSDOF 8
ENDMDL
MODEL 8
REMARK VINA RESULT:      -8.8      4.137      8.981
REMARK  8 active torsions:
REMARK  status: ('A' for Active; 'I' for Inactive)
REMARK    1  A    between atoms: N_9  and  N_10 
REMARK    2  A    between atoms: C_11  and  C_12 
REMARK    3  A    between atoms: C_14  and  O_15 
REMARK    4  A    between atoms: C_19  and  N_20 
REMARK    5  A    between atoms: C_21  and  C_22 
REMARK       I    between atoms: C_22  and  N_23 
REMARK    6  A    between atoms: N_23  and  C_24 
REMARK    7  A    between atoms: C_24  and  C_25 
REMARK    8  A    between atoms: C_25  and  C_26 
ROOT
HETATM    1  C   UNL     1      44.115 -13.474   7.284  1.00  0.00     0.002 A 
HETATM    2  C   UNL     1      43.465 -13.123   6.099  1.00  0.00     0.034 A 
HETATM    3  C   UNL     1      43.051 -14.083   5.181  1.00  0.00     0.086 A 
HETATM    4  C   UNL     1      43.307 -15.453   5.459  1.00  0.00     0.088 A 
HETATM    5  N   UNL     1      42.942 -16.444   4.629  1.00  0.00    -0.225 NA
HETATM    6  C   UNL     1      42.280 -16.003   3.532  1.00  0.00     0.183 A 
HETATM    7  C   UNL     1      42.008 -14.669   3.249  1.00  0.00     0.125 A 
HETATM    8  N   UNL     1      42.424 -13.669   4.068  1.00  0.00    -0.242 NA
HETATM    9  N   UNL     1      41.781 -16.767   2.492  1.00  0.00    -0.197 N 
HETATM   10  C   UNL     1      41.131 -15.916   1.594  1.00  0.00     0.143 A 
HETATM   11  C   UNL     1      41.310 -14.610   2.022  1.00  0.00     0.110 A 
HETATM   12  C   UNL     1      43.957 -15.786   6.641  1.00  0.00     0.034 A 
HETATM   13  C   UNL     1      44.362 -14.812   7.555  1.00  0.00     0.002 A 
ENDROOT
BRANCH  11  14
HETATM   14  C   UNL     1      40.954 -13.464   1.217  1.00  0.00     0.257 C 
HETATM   15  N   UNL     1      42.020 -12.970   0.489  1.00  0.00    -0.356 N 
HETATM   16  H   UNL     1      42.926 -13.395   0.647  1.00  0.00     0.162 HD
HETATM   17  O   UNL     1      39.794 -13.112   1.038  1.00  0.00    -0.267 OA
BRANCH  15  18
HETATM   18  C   UNL     1      41.777 -12.354  -0.803  1.00  0.00     0.127 C 
BRANCH  18  19
HETATM   19  C   UNL     1      42.004 -13.353  -1.964  1.00  0.00     0.053 C 
BRANCH  19  20
HETATM   20  C   UNL     1      40.839 -14.166  -2.509  1.00  0.00    -0.082 C 
HETATM   21  C   UNL     1      39.507 -13.438  -2.483  1.00  0.00     0.034 C 
HETATM   22  C   UNL     1      38.293 -14.346  -2.699  1.00  0.00     0.005 C 
HETATM   23  C   UNL     1      38.532 -15.319  -3.844  1.00  0.00     0.004 C 
HETATM   24  C   UNL     1      39.765 -16.180  -3.580  1.00  0.00     0.027 C 
HETATM   25  C   UNL     1      40.925 -15.411  -3.014  1.00  0.00    -0.024 C 
ENDBRANCH  19  20
ENDBRANCH  18  19
ENDBRANCH  15  18
ENDBRANCH  11  14
BRANCH  10  26
HETATM   26  N   UNL     1      40.554 -16.366   0.444  1.00  0.00    -0.383 N 
HETATM   27  H   UNL     1      41.125 -16.546  -0.379  1.00  0.00     0.157 HD
HETATM   28  H   UNL     1      39.608 -16.055   0.209  1.00  0.00     0.157 HD
ENDBRANCH  10  26
BRANCH   9  29
HETATM   29  N   UNL     1      42.105 -18.075   2.234  1.00  0.00    -0.176 NA
HETATM   30  C   UNL     1      43.282 -18.414   2.653  1.00  0.00     0.150 C 
BRANCH  30  31
HETATM   31  C   UNL     1      43.656 -19.835   2.791  1.00  0.00    -0.014 A 
HETATM   32  C   UNL     1      44.286 -20.274   3.961  1.00  0.00     0.049 A 
HETATM   33  C   UNL     1      44.785 -21.570   4.014  1.00  0.00     0.066 A 
HETATM   34  C   UNL     1      44.647 -22.431   2.932  1.00  0.00     0.036 A 
HETATM   35  C   UNL     1      44.002 -21.994   1.773  1.00  0.00     0.004 A 
HETATM   36  C   UNL     1      43.512 -20.689   1.696  1.00  0.00     0.013 A 
BRANCH  33  37
HETATM   37  O   UNL     1      45.450 -22.028   5.113  1.00  0.00    -0.361 OA
HETATM   38  H   UNL     1      46.401 -21.870   4.991  1.00  0.00     0.217 HD
ENDBRANCH  33  37
ENDBRANCH  30  31
ENDBRANCH   9  29
TORSDOF 8
ENDMDL
MODEL 9
REMARK VINA RESULT:      -8.8      2.676      3.878
REMARK  8 active torsions:
REMARK  status: ('A' for Active; 'I' for Inactive)
REMARK    1  A    between atoms: N_9  and  N_10 
REMARK    2  A    between atoms: C_11  and  C_12 
REMARK    3  A    between atoms: C_14  and  O_15 
REMARK    4  A    between atoms: C_19  and  N_20 
REMARK    5  A    between atoms: C_21  and  C_22 
REMARK       I    between atoms: C_22  and  N_23 
REMARK    6  A    between atoms: N_23  and  C_24 
REMARK    7  A    between atoms: C_24  and  C_25 
REMARK    8  A    between atoms: C_25  and  C_26 
ROOT
HETATM    1  C   UNL     1      39.786 -13.026  -0.832  1.00  0.00     0.002 A 
HETATM    2  C   UNL     1      39.736 -12.787   0.543  1.00  0.00     0.034 A 
HETATM    3  C   UNL     1      40.247 -13.699   1.461  1.00  0.00     0.086 A 
HETATM    4  C   UNL     1      40.827 -14.904   0.983  1.00  0.00     0.088 A 
HETATM    5  N   UNL     1      41.343 -15.837   1.799  1.00  0.00    -0.225 NA
HETATM    6  C   UNL     1      41.286 -15.491   3.108  1.00  0.00     0.183 A 
HETATM    7  C   UNL     1      40.737 -14.310   3.595  1.00  0.00     0.125 A 
HETATM    8  N   UNL     1      40.171 -13.394   2.768  1.00  0.00    -0.242 NA
HETATM    9  N   UNL     1      41.727 -16.232   4.190  1.00  0.00    -0.197 N 
HETATM   10  C   UNL     1      41.519 -15.481   5.350  1.00  0.00     0.143 A 
HETATM   11  C   UNL     1      40.858 -14.314   5.002  1.00  0.00     0.110 A 
HETATM   12  C   UNL     1      40.867 -15.129  -0.388  1.00  0.00     0.034 A 
HETATM   13  C   UNL     1      40.354 -14.204  -1.299  1.00  0.00     0.002 A 
ENDROOT
BRANCH  11  14
HETATM   14  C   UNL     1      40.297 -13.408   5.979  1.00  0.00     0.257 C 
HETATM   15  N   UNL     1      41.246 -12.580   6.548  1.00  0.00    -0.356 N 
HETATM   16  H   UNL     1      42.212 -12.737   6.291  1.00  0.00     0.162 HD
HETATM   17  O   UNL     1      39.089 -13.249   6.122  1.00  0.00    -0.267 OA
BRANCH  15  18
HETATM   18  C   UNL     1      40.866 -11.242   6.966  1.00  0.00     0.127 C 
BRANCH  18  19
HETATM   19  C   UNL     1      42.052 -10.488   7.616  1.00  0.00     0.053 C 
BRANCH  19  20
HETATM   20  C   UNL     1      42.501 -10.841   9.026  1.00  0.00    -0.082 C 
HETATM   21  C   UNL     1      43.887 -11.456   9.101  1.00  0.00     0.034 C 
HETATM   22  C   UNL     1      44.204 -12.122  10.443  1.00  0.00     0.005 C 
HETATM   23  C   UNL     1      43.766 -11.246  11.608  1.00  0.00     0.004 C 
HETATM   24  C   UNL     1      42.271 -10.948  11.534  1.00  0.00     0.027 C 
HETATM   25  C   UNL     1      41.790 -10.623  10.148  1.00  0.00    -0.024 C 
ENDBRANCH  19  20
ENDBRANCH  18  19
ENDBRANCH  15  18
ENDBRANCH  11  14
BRANCH  10  26
HETATM   26  N   UNL     1      41.826 -15.950   6.592  1.00  0.00    -0.383 N 
HETATM   27  H   UNL     1      42.091 -16.925   6.721  1.00  0.00     0.157 HD
HETATM   28  H   UNL     1      41.339 -15.563   7.405  1.00  0.00     0.157 HD
ENDBRANCH  10  26
BRANCH   9  29
HETATM   29  N   UNL     1      42.043 -17.567   4.169  1.00  0.00    -0.176 NA
HETATM   30  C   UNL     1      43.023 -17.859   3.374  1.00  0.00     0.150 C 
BRANCH  30  31
HETATM   31  C   UNL     1      43.730 -19.150   3.488  1.00  0.00    -0.014 A 
HETATM   32  C   UNL     1      43.737 -20.033   2.402  1.00  0.00     0.049 A 
HETATM   33  C   UNL     1      44.256 -21.310   2.574  1.00  0.00     0.066 A 
HETATM   34  C   UNL     1      44.781 -21.707   3.799  1.00  0.00     0.036 A 
HETATM   35  C   UNL     1      44.788 -20.817   4.874  1.00  0.00     0.004 A 
HETATM   36  C   UNL     1      44.252 -19.536   4.724  1.00  0.00     0.013 A 
BRANCH  33  37
HETATM   37  O   UNL     1      44.242 -22.223   1.561  1.00  0.00    -0.361 OA
HETATM   38  H   UNL     1      44.899 -22.913   1.754  1.00  0.00     0.217 HD
ENDBRANCH  33  37
ENDBRANCH  30  31
ENDBRANCH   9  29
TORSDOF 8
ENDMDL
MODEL 10
REMARK VINA RESULT:      -8.8      4.803      8.496
REMARK  8 active torsions:
REMARK  status: ('A' for Active; 'I' for Inactive)
REMARK    1  A    between atoms: N_9  and  N_10 
REMARK    2  A    between atoms: C_11  and  C_12 
REMARK    3  A    between atoms: C_14  and  O_15 
REMARK    4  A    between atoms: C_19  and  N_20 
REMARK    5  A    between atoms: C_21  and  C_22 
REMARK       I    between atoms: C_22  and  N_23 
REMARK    6  A    between atoms: N_23  and  C_24 
REMARK    7  A    between atoms: C_24  and  C_25 
REMARK    8  A    between atoms: C_25  and  C_26 
ROOT
HETATM    1  C   UNL     1      39.054 -11.541   5.421  1.00  0.00     0.002 A 
HETATM    2  C   UNL     1      39.096 -11.756   4.042  1.00  0.00     0.034 A 
HETATM    3  C   UNL     1      39.803 -12.819   3.490  1.00  0.00     0.086 A 
HETATM    4  C   UNL     1      40.503 -13.702   4.355  1.00  0.00     0.088 A 
HETATM    5  N   UNL     1      41.209 -14.752   3.907  1.00  0.00    -0.225 NA
HETATM    6  C   UNL     1      41.150 -14.899   2.562  1.00  0.00     0.183 A 
HETATM    7  C   UNL     1      40.459 -14.055   1.699  1.00  0.00     0.125 A 
HETATM    8  N   UNL     1      39.789 -12.966   2.154  1.00  0.00    -0.242 NA
HETATM    9  N   UNL     1      41.769 -15.873   1.797  1.00  0.00    -0.197 N 
HETATM   10  C   UNL     1      41.404 -15.681   0.462  1.00  0.00     0.143 A 
HETATM   11  C   UNL     1      40.638 -14.529   0.380  1.00  0.00     0.110 A 
HETATM   12  C   UNL     1      40.454 -13.474   5.725  1.00  0.00     0.034 A 
HETATM   13  C   UNL     1      39.737 -12.405   6.266  1.00  0.00     0.002 A 
ENDROOT
BRANCH  11  14
HETATM   14  C   UNL     1      40.272 -13.917  -0.878  1.00  0.00     0.257 C 
HETATM   15  N   UNL     1      40.942 -12.731  -1.110  1.00  0.00    -0.356 N 
HETATM   16  H   UNL     1      41.540 -12.383  -0.370  1.00  0.00     0.162 HD
HETATM   17  O   UNL     1      39.610 -14.497  -1.731  1.00  0.00    -0.267 OA
BRANCH  15  18
HETATM   18  C   UNL     1      41.260 -12.347  -2.474  1.00  0.00     0.127 C 
BRANCH  18  19
HETATM   19  C   UNL     1      42.697 -11.780  -2.588  1.00  0.00     0.053 C 
BRANCH  19  20
HETATM   20  C   UNL     1      42.980 -10.336  -2.202  1.00  0.00    -0.082 C 
HETATM   21  C   UNL     1      42.374  -9.311  -3.145  1.00  0.00     0.034 C 
HETATM   22  C   UNL     1      42.930  -7.895  -2.971  1.00  0.00     0.005 C 
HETATM   23  C   UNL     1      43.023  -7.519  -1.499  1.00  0.00     0.004 C 
HETATM   24  C   UNL     1      43.907  -8.504  -0.739  1.00  0.00     0.027 C 
HETATM   25  C   UNL     1      43.671  -9.939  -1.118  1.00  0.00    -0.024 C 
ENDBRANCH  19  20
ENDBRANCH  18  19
ENDBRANCH  15  18
ENDBRANCH  11  14
BRANCH  10  26
HETATM   26  N   UNL     1      41.874 -16.467  -0.547  1.00  0.00    -0.383 N 
HETATM   27  H   UNL     1      41.384 -17.322  -0.802  1.00  0.00     0.157 HD
HETATM   28  H   UNL     1      42.885 -16.531  -0.697  1.00  0.00     0.157 HD
ENDBRANCH  10  26
BRANCH   9  29
HETATM   29  N   UNL     1      42.780 -16.699   2.221  1.00  0.00    -0.176 NA
HETATM   30  C   UNL     1      42.366 -17.830   2.694  1.00  0.00     0.150 C 
BRANCH  30  31
HETATM   31  C   UNL     1      43.294 -18.967   2.855  1.00  0.00    -0.014 A 
HETATM   32  C   UNL     1      43.284 -20.006   1.917  1.00  0.00     0.049 A 
HETATM   33  C   UNL     1      44.036 -21.148   2.166  1.00  0.00     0.066 A 
HETATM   34  C   UNL     1      44.805 -21.257   3.319  1.00  0.00     0.036 A 
HETATM   35  C   UNL     1      44.824 -20.211   4.244  1.00  0.00     0.004 A 
HETATM   36  C   UNL     1      44.060 -19.065   4.018  1.00  0.00     0.013 A 
BRANCH  33  37
HETATM   37  O   UNL     1      44.022 -22.207   1.307  1.00  0.00    -0.361 OA
HETATM   38  H   UNL     1      43.206 -22.169   0.779  1.00  0.00     0.217 HD
ENDBRANCH  33  37
ENDBRANCH  30  31
ENDBRANCH   9  29
TORSDOF 8
ENDMDL
