MODEL 1
REMARK VINA RESULT:      -7.0      0.000      0.000
REMARK  3 active torsions:
REMARK  status: ('A' for Active; 'I' for Inactive)
REMARK    1  A    between atoms: C_2  and  N_3 
REMARK    2  A    between atoms: C_2  and  C_14 
REMARK       I    between atoms: N_3  and  C_4 
REMARK    3  A    between atoms: C_4  and  C_5 
ROOT
HETATM    1  N   UNL     1      42.816 -17.522   2.530  1.00  0.00    -0.347 N 
HETATM    2  C   UNL     1      42.927 -16.192   2.208  1.00  0.00     0.268 C 
HETATM    3  O   UNL     1      43.767 -15.448   2.702  1.00  0.00    -0.266 OA
HETATM    4  H   UNL     1      42.170 -18.102   2.017  1.00  0.00     0.163 HD
ENDROOT
BRANCH   1   5
HETATM    5  C   UNL     1      43.733 -18.185   3.444  1.00  0.00     0.114 C 
HETATM    6  C   UNL     1      43.207 -18.011   4.871  1.00  0.00     0.037 C 
BRANCH   5   7
HETATM    7  C   UNL     1      43.947 -19.655   3.111  1.00  0.00    -0.033 A 
HETATM    8  C   UNL     1      43.531 -20.239   1.907  1.00  0.00     0.028 A 
HETATM    9  C   UNL     1      43.771 -21.589   1.694  1.00  0.00     0.116 A 
HETATM   10  N   UNL     1      44.384 -22.397   2.584  1.00  0.00    -0.273 NA
HETATM   11  C   UNL     1      44.790 -21.823   3.733  1.00  0.00     0.116 A 
HETATM   12  C   UNL     1      44.603 -20.482   4.035  1.00  0.00     0.028 A 
ENDBRANCH   5   7
ENDBRANCH   1   5
BRANCH   2  13
HETATM   13  C   UNL     1      41.978 -15.718   1.224  1.00  0.00     0.103 A 
HETATM   14  N   UNL     1      42.113 -16.048  -0.112  1.00  0.00    -0.341 N 
HETATM   15  H   UNL     1      42.856 -16.627  -0.485  1.00  0.00     0.167 HD
HETATM   16  C   UNL     1      41.106 -15.483  -0.828  1.00  0.00     0.126 A 
HETATM   17 CL   UNL     1      41.072 -15.762  -2.502  1.00  0.00    -0.063 Cl
HETATM   18  C   UNL     1      40.300 -14.767   0.013  1.00  0.00     0.074 A 
HETATM   19 CL   UNL     1      38.914 -13.865  -0.361  1.00  0.00    -0.081 Cl
HETATM   20  C   UNL     1      40.848 -14.912   1.315  1.00  0.00     0.062 A 
ENDBRANCH   2  13
TORSDOF 3
ENDMDL
MODEL 2
REMARK VINA RESULT:      -6.9      1.045      1.079
REMARK  3 active torsions:
REMARK  status: ('A' for Active; 'I' for Inactive)
REMARK    1  A    between atoms: C_2  and  N_3 
REMARK    2  A    between atoms: C_2  and  C_14 
REMARK       I    between atoms: N_3  and  C_4 
REMARK    3  A    between atoms: C_4  and  C_5 
ROOT
HETATM    1  N   UNL     1      43.234 -17.732   3.287  1.00  0.00    -0.347 N 
HETATM    2  C   UNL     1      43.424 -17.027   2.124  1.00  0.00     0.268 C 
HETATM    3  O   UNL     1      44.505 -16.956   1.550  1.00  0.00    -0.266 OA
HETATM    4  H   UNL     1      42.301 -17.833   3.656  1.00  0.00     0.163 HD
ENDROOT
BRANCH   1   5
HETATM    5  C   UNL     1      44.290 -18.516   3.909  1.00  0.00     0.114 C 
HETATM    6  C   UNL     1      44.131 -18.426   5.429  1.00  0.00     0.037 C 
BRANCH   5   7
HETATM    7  C   UNL     1      44.310 -19.964   3.442  1.00  0.00    -0.033 A 
HETATM    8  C   UNL     1      43.880 -20.369   2.171  1.00  0.00     0.028 A 
HETATM    9  C   UNL     1      43.935 -21.715   1.836  1.00  0.00     0.116 A 
HETATM   10  N   UNL     1      44.378 -22.682   2.667  1.00  0.00    -0.273 NA
HETATM   11  C   UNL     1      44.800 -22.281   3.882  1.00  0.00     0.116 A 
HETATM   12  C   UNL     1      44.790 -20.960   4.306  1.00  0.00     0.028 A 
ENDBRANCH   5   7
ENDBRANCH   1   5
BRANCH   2  13
HETATM   13  C   UNL     1      42.245 -16.367   1.607  1.00  0.00     0.103 A 
HETATM   14  N   UNL     1      42.191 -15.930   0.296  1.00  0.00    -0.341 N 
HETATM   15  H   UNL     1      42.944 -16.037  -0.373  1.00  0.00     0.167 HD
HETATM   16  C   UNL     1      40.988 -15.345   0.058  1.00  0.00     0.126 A 
HETATM   17 CL   UNL     1      40.701 -14.735  -1.501  1.00  0.00    -0.063 Cl
HETATM   18  C   UNL     1      40.236 -15.377   1.198  1.00  0.00     0.074 A 
HETATM   19 CL   UNL     1      38.669 -14.781   1.450  1.00  0.00    -0.081 Cl
HETATM   20  C   UNL     1      41.027 -16.023   2.184  1.00  0.00     0.062 A 
ENDBRANCH   2  13
TORSDOF 3
ENDMDL
MODEL 3
REMARK VINA RESULT:      -6.7      3.755      4.640
REMARK  3 active torsions:
REMARK  status: ('A' for Active; 'I' for Inactive)
REMARK    1  A    between atoms: C_2  and  N_3 
REMARK    2  A    between atoms: C_2  and  C_14 
REMARK       I    between atoms: N_3  and  C_4 
REMARK    3  A    between atoms: C_4  and  C_5 
ROOT
HETATM    1  N   UNL     1      43.178 -16.886   3.121  1.00  0.00    -0.347 N 
HETATM    2  C   UNL     1      42.077 -16.323   3.717  1.00  0.00     0.268 C 
HETATM    3  O   UNL     1      40.933 -16.713   3.520  1.00  0.00    -0.266 OA
HETATM    4  H   UNL     1      44.099 -16.585   3.400  1.00  0.00     0.163 HD
ENDROOT
BRANCH   1   5
HETATM    5  C   UNL     1      43.088 -18.046   2.248  1.00  0.00     0.114 C 
HETATM    6  C   UNL     1      43.756 -17.702   0.913  1.00  0.00     0.037 C 
BRANCH   5   7
HETATM    7  C   UNL     1      43.693 -19.301   2.859  1.00  0.00    -0.033 A 
HETATM    8  C   UNL     1      44.184 -19.358   4.170  1.00  0.00     0.028 A 
HETATM    9  C   UNL     1      44.719 -20.549   4.640  1.00  0.00     0.116 A 
HETATM   10  N   UNL     1      44.807 -21.679   3.907  1.00  0.00    -0.273 NA
HETATM   11  C   UNL     1      44.321 -21.617   2.652  1.00  0.00     0.116 A 
HETATM   12  C   UNL     1      43.762 -20.476   2.095  1.00  0.00     0.028 A 
ENDBRANCH   5   7
ENDBRANCH   1   5
BRANCH   2  13
HETATM   13  C   UNL     1      42.361 -15.224   4.615  1.00  0.00     0.103 A 
HETATM   14  N   UNL     1      43.513 -15.210   5.382  1.00  0.00    -0.341 N 
HETATM   15  H   UNL     1      44.216 -15.939   5.368  1.00  0.00     0.167 HD
HETATM   16  C   UNL     1      43.545 -14.082   6.138  1.00  0.00     0.126 A 
HETATM   17 CL   UNL     1      44.882 -13.855   7.160  1.00  0.00    -0.063 Cl
HETATM   18  C   UNL     1      42.423 -13.342   5.896  1.00  0.00     0.074 A 
HETATM   19 CL   UNL     1      41.964 -11.859   6.577  1.00  0.00    -0.081 Cl
HETATM   20  C   UNL     1      41.668 -14.061   4.932  1.00  0.00     0.062 A 
ENDBRANCH   2  13
TORSDOF 3
ENDMDL
MODEL 4
REMARK VINA RESULT:      -6.6      3.136      4.063
REMARK  3 active torsions:
REMARK  status: ('A' for Active; 'I' for Inactive)
REMARK    1  A    between atoms: C_2  and  N_3 
REMARK    2  A    between atoms: C_2  and  C_14 
REMARK       I    between atoms: N_3  and  C_4 
REMARK    3  A    between atoms: C_4  and  C_5 
ROOT
HETATM    1  N   UNL     1      43.208 -18.359   5.341  1.00  0.00    -0.347 N 
HETATM    2  C   UNL     1      43.324 -17.045   5.720  1.00  0.00     0.268 C 
HETATM    3  O   UNL     1      44.254 -16.620   6.395  1.00  0.00    -0.266 OA
HETATM    4  H   UNL     1      42.474 -18.626   4.703  1.00  0.00     0.163 HD
ENDROOT
BRANCH   1   5
HETATM    5  C   UNL     1      44.219 -19.357   5.655  1.00  0.00     0.114 C 
HETATM    6  C   UNL     1      43.891 -19.967   7.021  1.00  0.00     0.037 C 
BRANCH   5   7
HETATM    7  C   UNL     1      44.347 -20.433   4.587  1.00  0.00    -0.033 A 
HETATM    8  C   UNL     1      44.642 -21.772   4.875  1.00  0.00     0.028 A 
HETATM    9  C   UNL     1      44.739 -22.682   3.832  1.00  0.00     0.116 A 
HETATM   10  N   UNL     1      44.571 -22.362   2.533  1.00  0.00    -0.273 NA
HETATM   11  C   UNL     1      44.276 -21.074   2.266  1.00  0.00     0.116 A 
HETATM   12  C   UNL     1      44.151 -20.094   3.240  1.00  0.00     0.028 A 
ENDBRANCH   5   7
ENDBRANCH   1   5
BRANCH   2  13
HETATM   13  C   UNL     1      42.264 -16.177   5.255  1.00  0.00     0.103 A 
HETATM   14  N   UNL     1      41.700 -15.231   6.091  1.00  0.00    -0.341 N 
HETATM   15  H   UNL     1      41.979 -15.081   7.054  1.00  0.00     0.167 HD
HETATM   16  C   UNL     1      40.731 -14.550   5.425  1.00  0.00     0.126 A 
HETATM   17 CL   UNL     1      39.902 -13.330   6.266  1.00  0.00    -0.063 Cl
HETATM   18  C   UNL     1      40.632 -15.035   4.152  1.00  0.00     0.074 A 
HETATM   19 CL   UNL     1      39.583 -14.548   2.912  1.00  0.00    -0.081 Cl
HETATM   20  C   UNL     1      41.601 -16.066   4.037  1.00  0.00     0.062 A 
ENDBRANCH   2  13
TORSDOF 3
ENDMDL
MODEL 5
REMARK VINA RESULT:      -6.6      3.793      6.914
REMARK  3 active torsions:
REMARK  status: ('A' for Active; 'I' for Inactive)
REMARK    1  A    between atoms: C_2  and  N_3 
REMARK    2  A    between atoms: C_2  and  C_14 
REMARK       I    between atoms: N_3  and  C_4 
REMARK    3  A    between atoms: C_4  and  C_5 
ROOT
HETATM    1  N   UNL     1      43.046 -16.671   3.526  1.00  0.00    -0.347 N 
HETATM    2  C   UNL     1      43.641 -17.474   4.467  1.00  0.00     0.268 C 
HETATM    3  O   UNL     1      43.888 -17.103   5.609  1.00  0.00    -0.266 OA
HETATM    4  H   UNL     1      42.780 -17.066   2.637  1.00  0.00     0.163 HD
ENDROOT
BRANCH   1   5
HETATM    5  C   UNL     1      42.592 -15.321   3.823  1.00  0.00     0.114 C 
HETATM    6  C   UNL     1      43.692 -14.338   3.409  1.00  0.00     0.037 C 
BRANCH   5   7
HETATM    7  C   UNL     1      41.267 -14.977   3.158  1.00  0.00    -0.033 A 
HETATM    8  C   UNL     1      40.714 -13.690   3.166  1.00  0.00     0.028 A 
HETATM    9  C   UNL     1      39.498 -13.474   2.533  1.00  0.00     0.116 A 
HETATM   10  N   UNL     1      38.794 -14.436   1.901  1.00  0.00    -0.273 NA
HETATM   11  C   UNL     1      39.340 -15.668   1.889  1.00  0.00     0.116 A 
HETATM   12  C   UNL     1      40.553 -15.981   2.487  1.00  0.00     0.028 A 
ENDBRANCH   5   7
ENDBRANCH   1   5
BRANCH   2  13
HETATM   13  C   UNL     1      43.957 -18.814   4.019  1.00  0.00     0.103 A 
HETATM   14  N   UNL     1      44.446 -19.762   4.899  1.00  0.00    -0.341 N 
HETATM   15  H   UNL     1      44.611 -19.595   5.885  1.00  0.00     0.167 HD
HETATM   16  C   UNL     1      44.665 -20.929   4.239  1.00  0.00     0.126 A 
HETATM   17 CL   UNL     1      45.267 -22.241   5.133  1.00  0.00    -0.063 Cl
HETATM   18  C   UNL     1      44.336 -20.773   2.923  1.00  0.00     0.074 A 
HETATM   19 CL   UNL     1      44.426 -21.907   1.666  1.00  0.00    -0.081 Cl
HETATM   20  C   UNL     1      43.887 -19.434   2.776  1.00  0.00     0.062 A 
ENDBRANCH   2  13
TORSDOF 3
ENDMDL
MODEL 6
REMARK VINA RESULT:      -6.5      3.454      4.177
REMARK  3 active torsions:
REMARK  status: ('A' for Active; 'I' for Inactive)
REMARK    1  A    between atoms: C_2  and  N_3 
REMARK    2  A    between atoms: C_2  and  C_14 
REMARK       I    between atoms: N_3  and  C_4 
REMARK    3  A    between atoms: C_4  and  C_5 
ROOT
HETATM    1  N   UNL     1      43.673 -18.593   5.644  1.00  0.00    -0.347 N 
HETATM    2  C   UNL     1      44.147 -17.391   6.109  1.00  0.00     0.268 C 
HETATM    3  O   UNL     1      45.184 -17.280   6.752  1.00  0.00    -0.266 OA
HETATM    4  H   UNL     1      42.868 -18.605   5.038  1.00  0.00     0.163 HD
ENDROOT
BRANCH   1   5
HETATM    5  C   UNL     1      44.399 -19.841   5.820  1.00  0.00     0.114 C 
HETATM    6  C   UNL     1      43.765 -20.612   6.981  1.00  0.00     0.037 C 
BRANCH   5   7
HETATM    7  C   UNL     1      44.444 -20.687   4.556  1.00  0.00    -0.033 A 
HETATM    8  C   UNL     1      44.243 -20.164   3.272  1.00  0.00     0.028 A 
HETATM    9  C   UNL     1      44.303 -21.015   2.178  1.00  0.00     0.116 A 
HETATM   10  N   UNL     1      44.541 -22.341   2.266  1.00  0.00    -0.273 NA
HETATM   11  C   UNL     1      44.745 -22.833   3.503  1.00  0.00     0.116 A 
HETATM   12  C   UNL     1      44.712 -22.061   4.656  1.00  0.00     0.028 A 
ENDBRANCH   5   7
ENDBRANCH   1   5
BRANCH   2  13
HETATM   13  C   UNL     1      43.333 -16.241   5.777  1.00  0.00     0.103 A 
HETATM   14  N   UNL     1      42.277 -16.348   4.891  1.00  0.00    -0.341 N 
HETATM   15  H   UNL     1      42.004 -17.208   4.429  1.00  0.00     0.167 HD
HETATM   16  C   UNL     1      41.677 -15.138   4.744  1.00  0.00     0.126 A 
HETATM   17 CL   UNL     1      40.344 -15.039   3.698  1.00  0.00    -0.063 Cl
HETATM   18  C   UNL     1      42.325 -14.216   5.516  1.00  0.00     0.074 A 
HETATM   19 CL   UNL     1      41.993 -12.563   5.695  1.00  0.00    -0.081 Cl
HETATM   20  C   UNL     1      43.377 -14.908   6.173  1.00  0.00     0.062 A 
ENDBRANCH   2  13
TORSDOF 3
ENDMDL
MODEL 7
REMARK VINA RESULT:      -6.4      3.002      3.786
REMARK  3 active torsions:
REMARK  status: ('A' for Active; 'I' for Inactive)
REMARK    1  A    between atoms: C_2  and  N_3 
REMARK    2  A    between atoms: C_2  and  C_14 
REMARK       I    between atoms: N_3  and  C_4 
REMARK    3  A    between atoms: C_4  and  C_5 
ROOT
HETATM    1  N   UNL     1      42.310 -16.795   2.896  1.00  0.00    -0.347 N 
HETATM    2  C   UNL     1      41.003 -16.451   2.654  1.00  0.00     0.268 C 
HETATM    3  O   UNL     1      40.282 -17.059   1.872  1.00  0.00    -0.266 OA
HETATM    4  H   UNL     1      42.819 -16.317   3.624  1.00  0.00     0.163 HD
ENDROOT
BRANCH   1   5
HETATM    5  C   UNL     1      42.938 -17.959   2.291  1.00  0.00     0.114 C 
HETATM    6  C   UNL     1      43.973 -17.476   1.270  1.00  0.00     0.037 C 
BRANCH   5   7
HETATM    7  C   UNL     1      43.567 -18.895   3.312  1.00  0.00    -0.033 A 
HETATM    8  C   UNL     1      44.362 -19.995   2.961  1.00  0.00     0.028 A 
HETATM    9  C   UNL     1      44.892 -20.793   3.964  1.00  0.00     0.116 A 
HETATM   10  N   UNL     1      44.689 -20.585   5.281  1.00  0.00    -0.273 NA
HETATM   11  C   UNL     1      43.933 -19.518   5.610  1.00  0.00     0.116 A 
HETATM   12  C   UNL     1      43.366 -18.659   4.680  1.00  0.00     0.028 A 
ENDBRANCH   5   7
ENDBRANCH   1   5
BRANCH   2  13
HETATM   13  C   UNL     1      40.521 -15.309   3.401  1.00  0.00     0.103 A 
HETATM   14  N   UNL     1      39.954 -14.224   2.757  1.00  0.00    -0.341 N 
HETATM   15  H   UNL     1      39.837 -14.154   1.754  1.00  0.00     0.167 HD
HETATM   16  C   UNL     1      39.587 -13.289   3.672  1.00  0.00     0.126 A 
HETATM   17 CL   UNL     1      38.861 -11.866   3.099  1.00  0.00    -0.063 Cl
HETATM   18  C   UNL     1      39.910 -13.730   4.924  1.00  0.00     0.074 A 
HETATM   19 CL   UNL     1      39.679 -12.954   6.413  1.00  0.00    -0.081 Cl
HETATM   20  C   UNL     1      40.503 -15.010   4.759  1.00  0.00     0.062 A 
ENDBRANCH   2  13
TORSDOF 3
ENDMDL
MODEL 8
REMARK VINA RESULT:      -6.4      7.375      9.284
REMARK  3 active torsions:
REMARK  status: ('A' for Active; 'I' for Inactive)
REMARK    1  A    between atoms: C_2  and  N_3 
REMARK    2  A    between atoms: C_2  and  C_14 
REMARK       I    between atoms: N_3  and  C_4 
REMARK    3  A    between atoms: C_4  and  C_5 
ROOT
HETATM    1  N   UNL     1      43.837 -13.431   7.650  1.00  0.00    -0.347 N 
HETATM    2  C   UNL     1      44.751 -12.797   8.455  1.00  0.00     0.268 C 
HETATM    3  O   UNL     1      45.962 -12.946   8.344  1.00  0.00    -0.266 OA
HETATM    4  H   UNL     1      42.861 -13.191   7.727  1.00  0.00     0.163 HD
ENDROOT
BRANCH   1   5
HETATM    5  C   UNL     1      44.231 -14.291   6.545  1.00  0.00     0.114 C 
HETATM    6  C   UNL     1      44.267 -15.738   7.045  1.00  0.00     0.037 C 
BRANCH   5   7
HETATM    7  C   UNL     1      43.328 -14.151   5.329  1.00  0.00    -0.033 A 
HETATM    8  C   UNL     1      43.801 -13.820   4.052  1.00  0.00     0.028 A 
HETATM    9  C   UNL     1      42.900 -13.714   3.003  1.00  0.00     0.116 A 
HETATM   10  N   UNL     1      41.570 -13.906   3.129  1.00  0.00    -0.273 NA
HETATM   11  C   UNL     1      41.125 -14.234   4.358  1.00  0.00     0.116 A 
HETATM   12  C   UNL     1      41.949 -14.371   5.466  1.00  0.00     0.028 A 
ENDBRANCH   5   7
ENDBRANCH   1   5
BRANCH   2  13
HETATM   13  C   UNL     1      44.182 -11.919   9.455  1.00  0.00     0.103 A 
HETATM   14  N   UNL     1      42.945 -11.330   9.265  1.00  0.00    -0.341 N 
HETATM   15  H   UNL     1      42.367 -11.468   8.444  1.00  0.00     0.167 HD
HETATM   16  C   UNL     1      42.637 -10.555  10.337  1.00  0.00     0.126 A 
HETATM   17 CL   UNL     1      41.151  -9.734  10.319  1.00  0.00    -0.063 Cl
HETATM   18  C   UNL     1      43.659 -10.608  11.242  1.00  0.00     0.074 A 
HETATM   19 CL   UNL     1      43.791  -9.824  12.739  1.00  0.00    -0.081 Cl
HETATM   20  C   UNL     1      44.642 -11.471  10.689  1.00  0.00     0.062 A 
ENDBRANCH   2  13
TORSDOF 3
ENDMDL
MODEL 9
REMARK VINA RESULT:      -6.3      5.679      7.013
REMARK  3 active torsions:
REMARK  status: ('A' for Active; 'I' for Inactive)
REMARK    1  A    between atoms: C_2  and  N_3 
REMARK    2  A    between atoms: C_2  and  C_14 
REMARK       I    between atoms: N_3  and  C_4 
REMARK    3  A    between atoms: C_4  and  C_5 
ROOT
HETATM    1  N   UNL     1      43.262 -16.029   7.339  1.00  0.00    -0.347 N 
HETATM    2  C   UNL     1      43.797 -15.054   6.532  1.00  0.00     0.268 C 
HETATM    3  O   UNL     1      43.619 -15.013   5.321  1.00  0.00    -0.266 OA
HETATM    4  H   UNL     1      43.363 -15.951   8.339  1.00  0.00     0.163 HD
ENDROOT
BRANCH   1   5
HETATM    5  C   UNL     1      42.379 -17.067   6.832  1.00  0.00     0.114 C 
HETATM    6  C   UNL     1      41.112 -16.402   6.286  1.00  0.00     0.037 C 
BRANCH   5   7
HETATM    7  C   UNL     1      43.036 -17.948   5.779  1.00  0.00    -0.033 A 
HETATM    8  C   UNL     1      42.524 -18.114   4.486  1.00  0.00     0.028 A 
HETATM    9  C   UNL     1      43.194 -18.939   3.595  1.00  0.00     0.116 A 
HETATM   10  N   UNL     1      44.325 -19.612   3.893  1.00  0.00    -0.273 NA
HETATM   11  C   UNL     1      44.816 -19.437   5.135  1.00  0.00     0.116 A 
HETATM   12  C   UNL     1      44.222 -18.628   6.093  1.00  0.00     0.028 A 
ENDBRANCH   5   7
ENDBRANCH   1   5
BRANCH   2  13
HETATM   13  C   UNL     1      44.590 -14.057   7.218  1.00  0.00     0.103 A 
HETATM   14  N   UNL     1      44.171 -13.519   8.421  1.00  0.00    -0.341 N 
HETATM   15  H   UNL     1      43.312 -13.775   8.894  1.00  0.00     0.167 HD
HETATM   16  C   UNL     1      45.081 -12.609   8.857  1.00  0.00     0.126 A 
HETATM   17 CL   UNL     1      44.769 -11.821  10.329  1.00  0.00    -0.063 Cl
HETATM   18  C   UNL     1      46.103 -12.523   7.955  1.00  0.00     0.074 A 
HETATM   19 CL   UNL     1      47.484 -11.541   8.007  1.00  0.00    -0.081 Cl
HETATM   20  C   UNL     1      45.797 -13.439   6.913  1.00  0.00     0.062 A 
ENDBRANCH   2  13
TORSDOF 3
ENDMDL
MODEL 10
REMARK VINA RESULT:      -6.3      3.455      6.811
REMARK  3 active torsions:
REMARK  status: ('A' for Active; 'I' for Inactive)
REMARK    1  A    between atoms: C_2  and  N_3 
REMARK    2  A    between atoms: C_2  and  C_14 
REMARK       I    between atoms: N_3  and  C_4 
REMARK    3  A    between atoms: C_4  and  C_5 
ROOT
HETATM    1  N   UNL     1      42.862 -16.382   2.430  1.00  0.00    -0.347 N 
HETATM    2  C   UNL     1      42.508 -17.345   3.343  1.00  0.00     0.268 C 
HETATM    3  O   UNL     1      41.720 -17.145   4.259  1.00  0.00    -0.266 OA
HETATM    4  H   UNL     1      43.438 -16.637   1.642  1.00  0.00     0.163 HD
ENDROOT
BRANCH   1   5
HETATM    5  C   UNL     1      42.278 -15.050   2.432  1.00  0.00     0.114 C 
HETATM    6  C   UNL     1      43.292 -14.077   3.039  1.00  0.00     0.037 C 
BRANCH   5   7
HETATM    7  C   UNL     1      41.834 -14.592   1.050  1.00  0.00    -0.033 A 
HETATM    8  C   UNL     1      41.786 -13.246   0.665  1.00  0.00     0.028 A 
HETATM    9  C   UNL     1      41.367 -12.925  -0.618  1.00  0.00     0.116 A 
HETATM   10  N   UNL     1      40.988 -13.836  -1.538  1.00  0.00    -0.273 NA
HETATM   11  C   UNL     1      41.048 -15.129  -1.162  1.00  0.00     0.116 A 
HETATM   12  C   UNL     1      41.460 -15.548   0.094  1.00  0.00     0.028 A 
ENDBRANCH   5   7
ENDBRANCH   1   5
BRANCH   2  13
HETATM   13  C   UNL     1      43.130 -18.637   3.144  1.00  0.00     0.103 A 
HETATM   14  N   UNL     1      43.841 -19.249   4.161  1.00  0.00    -0.341 N 
HETATM   15  H   UNL     1      43.970 -18.854   5.085  1.00  0.00     0.167 HD
HETATM   16  C   UNL     1      44.325 -20.441   3.727  1.00  0.00     0.126 A 
HETATM   17 CL   UNL     1      45.232 -21.371   4.821  1.00  0.00    -0.063 Cl
HETATM   18  C   UNL     1      43.957 -20.633   2.425  1.00  0.00     0.074 A 
HETATM   19 CL   UNL     1      44.303 -21.944   1.408  1.00  0.00    -0.081 Cl
HETATM   20  C   UNL     1      43.199 -19.492   2.050  1.00  0.00     0.062 A 
ENDBRANCH   2  13
TORSDOF 3
ENDMDL
