MODEL 1
REMARK VINA RESULT:      -8.7      0.000      0.000
REMARK  3 active torsions:
REMARK  status: ('A' for Active; 'I' for Inactive)
REMARK    1  A    between atoms: C_4  and  N_5 
REMARK       I    between atoms: N_5  and  C_6 
REMARK    2  A    between atoms: C_6  and  C_7 
REMARK    3  A    between atoms: C_7  and  C_8 
ROOT
HETATM    1  C   UNL     1      43.534 -15.921   6.760  1.00  0.00     0.286 C 
HETATM    2  N   UNL     1      42.516 -16.024   5.629  1.00  0.00    -0.056 N 
HETATM    3  H   UNL     1      43.064 -15.962   4.743  1.00  0.00     0.278 HD
HETATM    4  H   UNL     1      42.081 -16.954   5.620  1.00  0.00     0.278 HD
HETATM    5  C   UNL     1      41.475 -14.934   5.672  1.00  0.00     0.209 C 
HETATM    6  C   UNL     1      42.179 -13.553   5.635  1.00  0.00     0.115 C 
HETATM    7  N   UNL     1      43.232 -13.450   6.642  1.00  0.00    -0.353 N 
HETATM    8  C   UNL     1      44.059 -14.486   6.993  1.00  0.00     0.249 C 
HETATM    9  O   UNL     1      45.123 -14.255   7.558  1.00  0.00    -0.271 OA
HETATM   10  C   UNL     1      40.497 -15.123   4.512  1.00  0.00     0.035 C 
HETATM   11  C   UNL     1      41.103 -14.787   3.151  1.00  0.00     0.002 C 
HETATM   12  C   UNL     1      41.719 -13.393   3.141  1.00  0.00     0.002 C 
HETATM   13  C   UNL     1      42.752 -13.221   4.248  1.00  0.00     0.027 C 
HETATM   14  H   UNL     1      43.633 -12.532   6.827  1.00  0.00     0.163 HD
ENDROOT
BRANCH   1  15
HETATM   15  C   UNL     1      44.701 -16.899   6.557  1.00  0.00     0.146 C 
BRANCH  15  16
HETATM   16  C   UNL     1      44.270 -18.293   6.953  1.00  0.00     0.224 C 
HETATM   17  N   UNL     1      43.887 -19.224   6.044  1.00  0.00    -0.327 N 
HETATM   18  H   UNL     1      43.421 -20.019   6.471  1.00  0.00     0.169 HD
HETATM   19  O   UNL     1      44.233 -18.569   8.160  1.00  0.00    -0.273 OA
BRANCH  17  20
HETATM   20  C   UNL     1      43.936 -19.241   4.640  1.00  0.00     0.035 A 
HETATM   21  C   UNL     1      43.786 -18.112   3.834  1.00  0.00     0.036 A 
HETATM   22  C   UNL     1      43.849 -18.219   2.435  1.00  0.00    -0.059 A 
HETATM   23  C   UNL     1      43.733 -17.001   1.566  1.00  0.00     0.048 C 
HETATM   24  C   UNL     1      44.088 -19.469   1.851  1.00  0.00     0.013 A 
HETATM   25  C   UNL     1      44.258 -20.607   2.646  1.00  0.00    -0.059 A 
HETATM   26  C   UNL     1      44.210 -20.477   4.038  1.00  0.00     0.036 A 
HETATM   27  C   UNL     1      44.540 -21.939   2.012  1.00  0.00     0.048 C 
ENDBRANCH  17  20
ENDBRANCH  15  16
ENDBRANCH   1  15
TORSDOF 3
ENDMDL
MODEL 2
REMARK VINA RESULT:      -8.7      3.102      4.704
REMARK  3 active torsions:
REMARK  status: ('A' for Active; 'I' for Inactive)
REMARK    1  A    between atoms: C_4  and  N_5 
REMARK       I    between atoms: N_5  and  C_6 
REMARK    2  A    between atoms: C_6  and  C_7 
REMARK    3  A    between atoms: C_7  and  C_8 
ROOT
HETATM    1  C   UNL     1      39.948 -16.560   1.923  1.00  0.00     0.286 C 
HETATM    2  N   UNL     1      39.561 -15.403   1.007  1.00  0.00    -0.056 N 
HETATM    3  H   UNL     1      40.459 -14.984   0.679  1.00  0.00     0.278 HD
HETATM    4  H   UNL     1      39.095 -15.754   0.163  1.00  0.00     0.278 HD
HETATM    5  C   UNL     1      38.725 -14.357   1.700  1.00  0.00     0.209 C 
HETATM    6  C   UNL     1      39.492 -13.826   2.938  1.00  0.00     0.115 C 
HETATM    7  N   UNL     1      39.967 -14.911   3.792  1.00  0.00    -0.353 N 
HETATM    8  C   UNL     1      40.439 -16.108   3.318  1.00  0.00     0.249 C 
HETATM    9  O   UNL     1      41.139 -16.816   4.034  1.00  0.00    -0.271 OA
HETATM   10  C   UNL     1      38.379 -13.248   0.707  1.00  0.00     0.035 C 
HETATM   11  C   UNL     1      39.572 -12.364   0.348  1.00  0.00     0.002 C 
HETATM   12  C   UNL     1      40.250 -11.807   1.594  1.00  0.00     0.002 C 
HETATM   13  C   UNL     1      40.668 -12.913   2.555  1.00  0.00     0.027 C 
HETATM   14  H   UNL     1      40.321 -14.675   4.718  1.00  0.00     0.163 HD
ENDROOT
BRANCH   1  15
HETATM   15  C   UNL     1      40.980 -17.482   1.258  1.00  0.00     0.146 C 
BRANCH  15  16
HETATM   16  C   UNL     1      42.279 -16.734   1.063  1.00  0.00     0.224 C 
HETATM   17  N   UNL     1      43.440 -17.124   1.644  1.00  0.00    -0.327 N 
HETATM   18  H   UNL     1      44.160 -16.408   1.601  1.00  0.00     0.169 HD
HETATM   19  O   UNL     1      42.259 -15.704   0.374  1.00  0.00    -0.273 OA
BRANCH  17  20
HETATM   20  C   UNL     1      43.790 -18.281   2.361  1.00  0.00     0.035 A 
HETATM   21  C   UNL     1      43.900 -19.552   1.796  1.00  0.00     0.036 A 
HETATM   22  C   UNL     1      44.255 -20.657   2.586  1.00  0.00    -0.059 A 
HETATM   23  C   UNL     1      44.420 -22.018   1.975  1.00  0.00     0.048 C 
HETATM   24  C   UNL     1      44.521 -20.471   3.948  1.00  0.00     0.013 A 
HETATM   25  C   UNL     1      44.431 -19.201   4.525  1.00  0.00    -0.059 A 
HETATM   26  C   UNL     1      44.094 -18.109   3.717  1.00  0.00     0.036 A 
HETATM   27  C   UNL     1      44.744 -19.006   5.981  1.00  0.00     0.048 C 
ENDBRANCH  17  20
ENDBRANCH  15  16
ENDBRANCH   1  15
TORSDOF 3
ENDMDL
MODEL 3
REMARK VINA RESULT:      -8.6      3.257      4.599
REMARK  3 active torsions:
REMARK  status: ('A' for Active; 'I' for Inactive)
REMARK    1  A    between atoms: C_4  and  N_5 
REMARK       I    between atoms: N_5  and  C_6 
REMARK    2  A    between atoms: C_6  and  C_7 
REMARK    3  A    between atoms: C_7  and  C_8 
ROOT
HETATM    1  C   UNL     1      39.885 -16.233   2.076  1.00  0.00     0.286 C 
HETATM    2  N   UNL     1      39.386 -15.292   0.984  1.00  0.00    -0.056 N 
HETATM    3  H   UNL     1      40.237 -14.968   0.474  1.00  0.00     0.278 HD
HETATM    4  H   UNL     1      38.829 -15.807   0.294  1.00  0.00     0.278 HD
HETATM    5  C   UNL     1      38.626 -14.108   1.528  1.00  0.00     0.209 C 
HETATM    6  C   UNL     1      39.526 -13.339   2.528  1.00  0.00     0.115 C 
HETATM    7  N   UNL     1      40.104 -14.225   3.535  1.00  0.00    -0.353 N 
HETATM    8  C   UNL     1      40.529 -15.503   3.277  1.00  0.00     0.249 C 
HETATM    9  O   UNL     1      41.312 -16.053   4.043  1.00  0.00    -0.271 OA
HETATM   10  C   UNL     1      38.159 -13.231   0.366  1.00  0.00     0.035 C 
HETATM   11  C   UNL     1      39.296 -12.465  -0.307  1.00  0.00     0.002 C 
HETATM   12  C   UNL     1      40.109 -11.666   0.706  1.00  0.00     0.002 C 
HETATM   13  C   UNL     1      40.643 -12.549   1.827  1.00  0.00     0.027 C 
HETATM   14  H   UNL     1      40.561 -13.802   4.342  1.00  0.00     0.163 HD
ENDROOT
BRANCH   1  15
HETATM   15  C   UNL     1      40.841 -17.294   1.511  1.00  0.00     0.146 C 
BRANCH  15  16
HETATM   16  C   UNL     1      42.136 -16.638   1.093  1.00  0.00     0.224 C 
HETATM   17  N   UNL     1      43.341 -17.022   1.582  1.00  0.00    -0.327 N 
HETATM   18  H   UNL     1      44.078 -16.352   1.381  1.00  0.00     0.169 HD
HETATM   19  O   UNL     1      42.078 -15.686   0.300  1.00  0.00    -0.273 OA
BRANCH  17  20
HETATM   20  C   UNL     1      43.725 -18.114   2.380  1.00  0.00     0.035 A 
HETATM   21  C   UNL     1      44.033 -18.025   3.738  1.00  0.00     0.036 A 
HETATM   22  C   UNL     1      44.409 -19.167   4.462  1.00  0.00    -0.059 A 
HETATM   23  C   UNL     1      44.696 -19.085   5.933  1.00  0.00     0.048 C 
HETATM   24  C   UNL     1      44.451 -20.408   3.815  1.00  0.00     0.013 A 
HETATM   25  C   UNL     1      44.129 -20.517   2.459  1.00  0.00    -0.059 A 
HETATM   26  C   UNL     1      43.739 -19.369   1.759  1.00  0.00     0.036 A 
HETATM   27  C   UNL     1      44.151 -21.855   1.779  1.00  0.00     0.048 C 
ENDBRANCH  17  20
ENDBRANCH  15  16
ENDBRANCH   1  15
TORSDOF 3
ENDMDL
MODEL 4
REMARK VINA RESULT:      -8.6      2.081      2.678
REMARK  3 active torsions:
REMARK  status: ('A' for Active; 'I' for Inactive)
REMARK    1  A    between atoms: C_4  and  N_5 
REMARK       I    between atoms: N_5  and  C_6 
REMARK    2  A    between atoms: C_6  and  C_7 
REMARK    3  A    between atoms: C_7  and  C_8 
ROOT
HETATM    1  C   UNL     1      41.827 -14.376   5.239  1.00  0.00     0.286 C 
HETATM    2  N   UNL     1      40.700 -14.732   4.274  1.00  0.00    -0.056 N 
HETATM    3  H   UNL     1      41.032 -15.564   3.739  1.00  0.00     0.278 HD
HETATM    4  H   UNL     1      39.872 -15.049   4.791  1.00  0.00     0.278 HD
HETATM    5  C   UNL     1      40.358 -13.610   3.327  1.00  0.00     0.209 C 
HETATM    6  C   UNL     1      41.628 -13.201   2.538  1.00  0.00     0.115 C 
HETATM    7  N   UNL     1      42.762 -12.947   3.423  1.00  0.00    -0.353 N 
HETATM    8  C   UNL     1      43.022 -13.668   4.560  1.00  0.00     0.249 C 
HETATM    9  O   UNL     1      44.146 -13.651   5.051  1.00  0.00    -0.271 OA
HETATM   10  C   UNL     1      39.217 -14.053   2.410  1.00  0.00     0.035 C 
HETATM   11  C   UNL     1      39.645 -15.087   1.371  1.00  0.00     0.002 C 
HETATM   12  C   UNL     1      40.852 -14.611   0.571  1.00  0.00     0.002 C 
HETATM   13  C   UNL     1      42.021 -14.241   1.476  1.00  0.00     0.027 C 
HETATM   14  H   UNL     1      43.588 -12.500   3.030  1.00  0.00     0.163 HD
ENDROOT
BRANCH   1  15
HETATM   15  C   UNL     1      42.302 -15.605   6.027  1.00  0.00     0.146 C 
BRANCH  15  16
HETATM   16  C   UNL     1      41.236 -16.677   5.987  1.00  0.00     0.224 C 
HETATM   17  N   UNL     1      41.278 -17.715   5.116  1.00  0.00    -0.327 N 
HETATM   18  H   UNL     1      40.395 -18.215   5.060  1.00  0.00     0.169 HD
HETATM   19  O   UNL     1      40.273 -16.569   6.760  1.00  0.00    -0.273 OA
BRANCH  17  20
HETATM   20  C   UNL     1      42.273 -18.156   4.227  1.00  0.00     0.035 A 
HETATM   21  C   UNL     1      42.430 -17.682   2.924  1.00  0.00     0.036 A 
HETATM   22  C   UNL     1      43.454 -18.179   2.102  1.00  0.00    -0.059 A 
HETATM   23  C   UNL     1      43.655 -17.639   0.716  1.00  0.00     0.048 C 
HETATM   24  C   UNL     1      44.336 -19.141   2.607  1.00  0.00     0.013 A 
HETATM   25  C   UNL     1      44.203 -19.613   3.916  1.00  0.00    -0.059 A 
HETATM   26  C   UNL     1      43.188 -19.093   4.727  1.00  0.00     0.036 A 
HETATM   27  C   UNL     1      45.170 -20.626   4.459  1.00  0.00     0.048 C 
ENDBRANCH  17  20
ENDBRANCH  15  16
ENDBRANCH   1  15
TORSDOF 3
ENDMDL
MODEL 5
REMARK VINA RESULT:      -8.6      2.087      3.081
REMARK  3 active torsions:
REMARK  status: ('A' for Active; 'I' for Inactive)
REMARK    1  A    between atoms: C_4  and  N_5 
REMARK       I    between atoms: N_5  and  C_6 
REMARK    2  A    between atoms: C_6  and  C_7 
REMARK    3  A    between atoms: C_7  and  C_8 
ROOT
HETATM    1  C   UNL     1      41.877 -14.352   5.209  1.00  0.00     0.286 C 
HETATM    2  N   UNL     1      40.732 -14.681   4.255  1.00  0.00    -0.056 N 
HETATM    3  H   UNL     1      41.032 -15.530   3.730  1.00  0.00     0.278 HD
HETATM    4  H   UNL     1      39.897 -14.962   4.782  1.00  0.00     0.278 HD
HETATM    5  C   UNL     1      40.423 -13.560   3.296  1.00  0.00     0.209 C 
HETATM    6  C   UNL     1      41.702 -13.205   2.494  1.00  0.00     0.115 C 
HETATM    7  N   UNL     1      42.849 -12.979   3.370  1.00  0.00    -0.353 N 
HETATM    8  C   UNL     1      43.092 -13.694   4.514  1.00  0.00     0.249 C 
HETATM    9  O   UNL     1      44.218 -13.710   4.998  1.00  0.00    -0.271 OA
HETATM   10  C   UNL     1      39.262 -13.974   2.392  1.00  0.00     0.035 C 
HETATM   11  C   UNL     1      39.646 -15.036   1.364  1.00  0.00     0.002 C 
HETATM   12  C   UNL     1      40.865 -14.612   0.551  1.00  0.00     0.002 C 
HETATM   13  C   UNL     1      42.051 -14.271   1.443  1.00  0.00     0.027 C 
HETATM   14  H   UNL     1      43.688 -12.566   2.965  1.00  0.00     0.163 HD
ENDROOT
BRANCH   1  15
HETATM   15  C   UNL     1      42.314 -15.586   6.010  1.00  0.00     0.146 C 
BRANCH  15  16
HETATM   16  C   UNL     1      41.234 -16.642   5.945  1.00  0.00     0.224 C 
HETATM   17  N   UNL     1      41.321 -17.726   5.136  1.00  0.00    -0.327 N 
HETATM   18  H   UNL     1      40.436 -18.216   5.039  1.00  0.00     0.169 HD
HETATM   19  O   UNL     1      40.217 -16.478   6.635  1.00  0.00    -0.273 OA
BRANCH  17  20
HETATM   20  C   UNL     1      42.372 -18.230   4.351  1.00  0.00     0.035 A 
HETATM   21  C   UNL     1      43.285 -19.193   4.783  1.00  0.00     0.036 A 
HETATM   22  C   UNL     1      44.307 -19.642   3.932  1.00  0.00    -0.059 A 
HETATM   23  C   UNL     1      45.263 -20.710   4.376  1.00  0.00     0.048 C 
HETATM   24  C   UNL     1      44.393 -19.131   2.631  1.00  0.00     0.013 A 
HETATM   25  C   UNL     1      43.476 -18.178   2.178  1.00  0.00    -0.059 A 
HETATM   26  C   UNL     1      42.453 -17.757   3.035  1.00  0.00     0.036 A 
HETATM   27  C   UNL     1      43.558 -17.655   0.772  1.00  0.00     0.048 C 
ENDBRANCH  17  20
ENDBRANCH  15  16
ENDBRANCH   1  15
TORSDOF 3
ENDMDL
MODEL 6
REMARK VINA RESULT:      -8.4      2.245      4.093
REMARK  3 active torsions:
REMARK  status: ('A' for Active; 'I' for Inactive)
REMARK    1  A    between atoms: C_4  and  N_5 
REMARK       I    between atoms: N_5  and  C_6 
REMARK    2  A    between atoms: C_6  and  C_7 
REMARK    3  A    between atoms: C_7  and  C_8 
ROOT
HETATM    1  C   UNL     1      40.981 -16.051   4.060  1.00  0.00     0.286 C 
HETATM    2  N   UNL     1      41.960 -14.912   4.330  1.00  0.00    -0.056 N 
HETATM    3  H   UNL     1      42.901 -15.274   4.059  1.00  0.00     0.278 HD
HETATM    4  H   UNL     1      41.776 -14.124   3.700  1.00  0.00     0.278 HD
HETATM    5  C   UNL     1      41.969 -14.471   5.771  1.00  0.00     0.209 C 
HETATM    6  C   UNL     1      42.298 -15.686   6.676  1.00  0.00     0.115 C 
HETATM    7  N   UNL     1      41.444 -16.834   6.380  1.00  0.00    -0.353 N 
HETATM    8  C   UNL     1      41.034 -17.178   5.117  1.00  0.00     0.249 C 
HETATM    9  O   UNL     1      40.636 -18.315   4.892  1.00  0.00    -0.271 OA
HETATM   10  C   UNL     1      42.967 -13.326   5.943  1.00  0.00     0.035 C 
HETATM   11  C   UNL     1      44.424 -13.776   5.849  1.00  0.00     0.002 C 
HETATM   12  C   UNL     1      44.718 -14.924   6.807  1.00  0.00     0.002 C 
HETATM   13  C   UNL     1      43.775 -16.101   6.590  1.00  0.00     0.027 C 
HETATM   14  H   UNL     1      41.451 -17.618   7.030  1.00  0.00     0.163 HD
ENDROOT
BRANCH   1  15
HETATM   15  C   UNL     1      41.161 -16.625   2.647  1.00  0.00     0.146 C 
BRANCH  15  16
HETATM   16  C   UNL     1      42.494 -16.185   2.087  1.00  0.00     0.224 C 
HETATM   17  N   UNL     1      43.618 -16.934   2.203  1.00  0.00    -0.327 N 
HETATM   18  H   UNL     1      44.462 -16.414   1.979  1.00  0.00     0.169 HD
HETATM   19  O   UNL     1      42.557 -15.076   1.536  1.00  0.00    -0.273 OA
BRANCH  17  20
HETATM   20  C   UNL     1      43.828 -18.248   2.656  1.00  0.00     0.035 A 
HETATM   21  C   UNL     1      43.849 -19.371   1.829  1.00  0.00     0.036 A 
HETATM   22  C   UNL     1      44.066 -20.650   2.366  1.00  0.00    -0.059 A 
HETATM   23  C   UNL     1      44.135 -21.856   1.475  1.00  0.00     0.048 C 
HETATM   24  C   UNL     1      44.286 -20.790   3.742  1.00  0.00     0.013 A 
HETATM   25  C   UNL     1      44.285 -19.672   4.581  1.00  0.00    -0.059 A 
HETATM   26  C   UNL     1      44.085 -18.404   4.024  1.00  0.00     0.036 A 
HETATM   27  C   UNL     1      44.548 -19.828   6.052  1.00  0.00     0.048 C 
ENDBRANCH  17  20
ENDBRANCH  15  16
ENDBRANCH   1  15
TORSDOF 3
ENDMDL
MODEL 7
REMARK VINA RESULT:      -8.3      2.797      3.806
REMARK  3 active torsions:
REMARK  status: ('A' for Active; 'I' for Inactive)
REMARK    1  A    between atoms: C_4  and  N_5 
REMARK       I    between atoms: N_5  and  C_6 
REMARK    2  A    between atoms: C_6  and  C_7 
REMARK    3  A    between atoms: C_7  and  C_8 
ROOT
HETATM    1  C   UNL     1      40.570 -15.020   4.228  1.00  0.00     0.286 C 
HETATM    2  N   UNL     1      40.493 -13.580   3.730  1.00  0.00    -0.056 N 
HETATM    3  H   UNL     1      41.455 -13.189   3.834  1.00  0.00     0.278 HD
HETATM    4  H   UNL     1      40.294 -13.559   2.723  1.00  0.00     0.278 HD
HETATM    5  C   UNL     1      39.506 -12.741   4.501  1.00  0.00     0.209 C 
HETATM    6  C   UNL     1      39.878 -12.768   6.006  1.00  0.00     0.115 C 
HETATM    7  N   UNL     1      40.058 -14.130   6.499  1.00  0.00    -0.353 N 
HETATM    8  C   UNL     1      40.630 -15.140   5.769  1.00  0.00     0.249 C 
HETATM    9  O   UNL     1      41.073 -16.131   6.338  1.00  0.00    -0.271 OA
HETATM   10  C   UNL     1      39.490 -11.324   3.928  1.00  0.00     0.035 C 
HETATM   11  C   UNL     1      40.751 -10.526   4.254  1.00  0.00     0.002 C 
HETATM   12  C   UNL     1      41.036 -10.520   5.752  1.00  0.00     0.002 C 
HETATM   13  C   UNL     1      41.130 -11.932   6.317  1.00  0.00     0.027 C 
HETATM   14  H   UNL     1      40.125 -14.272   7.506  1.00  0.00     0.163 HD
ENDROOT
BRANCH   1  15
HETATM   15  C   UNL     1      41.738 -15.778   3.580  1.00  0.00     0.146 C 
BRANCH  15  16
HETATM   16  C   UNL     1      41.235 -16.565   2.392  1.00  0.00     0.224 C 
HETATM   17  N   UNL     1      41.787 -17.742   2.009  1.00  0.00    -0.327 N 
HETATM   18  H   UNL     1      41.493 -18.030   1.081  1.00  0.00     0.169 HD
HETATM   19  O   UNL     1      40.306 -16.084   1.726  1.00  0.00    -0.273 OA
BRANCH  17  20
HETATM   20  C   UNL     1      42.746 -18.571   2.618  1.00  0.00     0.035 A 
HETATM   21  C   UNL     1      43.340 -18.311   3.853  1.00  0.00     0.036 A 
HETATM   22  C   UNL     1      44.290 -19.194   4.389  1.00  0.00    -0.059 A 
HETATM   23  C   UNL     1      44.898 -18.943   5.738  1.00  0.00     0.048 C 
HETATM   24  C   UNL     1      44.624 -20.356   3.683  1.00  0.00     0.013 A 
HETATM   25  C   UNL     1      44.025 -20.640   2.453  1.00  0.00    -0.059 A 
HETATM   26  C   UNL     1      43.066 -19.757   1.944  1.00  0.00     0.036 A 
HETATM   27  C   UNL     1      44.369 -21.902   1.715  1.00  0.00     0.048 C 
ENDBRANCH  17  20
ENDBRANCH  15  16
ENDBRANCH   1  15
TORSDOF 3
ENDMDL
MODEL 8
REMARK VINA RESULT:      -8.3      3.020      4.203
REMARK  3 active torsions:
REMARK  status: ('A' for Active; 'I' for Inactive)
REMARK    1  A    between atoms: C_4  and  N_5 
REMARK       I    between atoms: N_5  and  C_6 
REMARK    2  A    between atoms: C_6  and  C_7 
REMARK    3  A    between atoms: C_7  and  C_8 
ROOT
HETATM    1  C   UNL     1      42.619 -14.073   2.428  1.00  0.00     0.286 C 
HETATM    2  N   UNL     1      42.031 -14.152   3.833  1.00  0.00    -0.056 N 
HETATM    3  H   UNL     1      41.055 -14.504   3.716  1.00  0.00     0.278 HD
HETATM    4  H   UNL     1      42.518 -14.867   4.386  1.00  0.00     0.278 HD
HETATM    5  C   UNL     1      42.020 -12.823   4.544  1.00  0.00     0.209 C 
HETATM    6  C   UNL     1      41.234 -11.794   3.692  1.00  0.00     0.115 C 
HETATM    7  N   UNL     1      41.703 -11.758   2.309  1.00  0.00    -0.353 N 
HETATM    8  C   UNL     1      42.106 -12.866   1.609  1.00  0.00     0.249 C 
HETATM    9  O   UNL     1      42.142 -12.836   0.384  1.00  0.00    -0.271 OA
HETATM   10  C   UNL     1      41.426 -13.001   5.941  1.00  0.00     0.035 C 
HETATM   11  C   UNL     1      39.919 -13.249   5.929  1.00  0.00     0.002 C 
HETATM   12  C   UNL     1      39.181 -12.173   5.141  1.00  0.00     0.002 C 
HETATM   13  C   UNL     1      39.718 -12.042   3.721  1.00  0.00     0.027 C 
HETATM   14  H   UNL     1      41.384 -10.997   1.712  1.00  0.00     0.163 HD
ENDROOT
BRANCH   1  15
HETATM   15  C   UNL     1      42.406 -15.383   1.654  1.00  0.00     0.146 C 
BRANCH  15  16
HETATM   16  C   UNL     1      41.199 -16.107   2.206  1.00  0.00     0.224 C 
HETATM   17  N   UNL     1      41.285 -17.329   2.787  1.00  0.00    -0.327 N 
HETATM   18  H   UNL     1      40.378 -17.774   2.901  1.00  0.00     0.169 HD
HETATM   19  O   UNL     1      40.090 -15.570   2.079  1.00  0.00    -0.273 OA
BRANCH  17  20
HETATM   20  C   UNL     1      42.388 -18.113   3.168  1.00  0.00     0.035 A 
HETATM   21  C   UNL     1      43.144 -17.898   4.321  1.00  0.00     0.036 A 
HETATM   22  C   UNL     1      44.233 -18.730   4.627  1.00  0.00    -0.059 A 
HETATM   23  C   UNL     1      45.021 -18.532   5.889  1.00  0.00     0.048 C 
HETATM   24  C   UNL     1      44.542 -19.798   3.775  1.00  0.00     0.013 A 
HETATM   25  C   UNL     1      43.784 -20.036   2.626  1.00  0.00    -0.059 A 
HETATM   26  C   UNL     1      42.692 -19.207   2.348  1.00  0.00     0.036 A 
HETATM   27  C   UNL     1      44.107 -21.199   1.732  1.00  0.00     0.048 C 
ENDBRANCH  17  20
ENDBRANCH  15  16
ENDBRANCH   1  15
TORSDOF 3
ENDMDL
MODEL 9
REMARK VINA RESULT:      -8.2      4.460      6.119
REMARK  3 active torsions:
REMARK  status: ('A' for Active; 'I' for Inactive)
REMARK    1  A    between atoms: C_4  and  N_5 
REMARK       I    between atoms: N_5  and  C_6 
REMARK    2  A    between atoms: C_6  and  C_7 
REMARK    3  A    between atoms: C_7  and  C_8 
ROOT
HETATM    1  C   UNL     1      40.356 -14.821   0.804  1.00  0.00     0.286 C 
HETATM    2  N   UNL     1      39.217 -14.710  -0.205  1.00  0.00    -0.056 N 
HETATM    3  H   UNL     1      39.020 -15.684  -0.523  1.00  0.00     0.278 HD
HETATM    4  H   UNL     1      38.358 -14.391   0.257  1.00  0.00     0.278 HD
HETATM    5  C   UNL     1      39.559 -13.839  -1.387  1.00  0.00     0.209 C 
HETATM    6  C   UNL     1      40.834 -14.389  -2.077  1.00  0.00     0.115 C 
HETATM    7  N   UNL     1      41.920 -14.603  -1.124  1.00  0.00    -0.353 N 
HETATM    8  C   UNL     1      41.738 -15.064   0.155  1.00  0.00     0.249 C 
HETATM    9  O   UNL     1      42.679 -15.555   0.768  1.00  0.00    -0.271 OA
HETATM   10  C   UNL     1      38.361 -13.779  -2.334  1.00  0.00     0.035 C 
HETATM   11  C   UNL     1      38.125 -15.084  -3.092  1.00  0.00     0.002 C 
HETATM   12  C   UNL     1      39.385 -15.548  -3.813  1.00  0.00     0.002 C 
HETATM   13  C   UNL     1      40.566 -15.684  -2.860  1.00  0.00     0.027 C 
HETATM   14  H   UNL     1      42.852 -14.788  -1.492  1.00  0.00     0.163 HD
ENDROOT
BRANCH   1  15
HETATM   15  C   UNL     1      40.062 -15.887   1.869  1.00  0.00     0.146 C 
BRANCH  15  16
HETATM   16  C   UNL     1      40.232 -15.290   3.246  1.00  0.00     0.224 C 
HETATM   17  N   UNL     1      41.047 -15.834   4.183  1.00  0.00    -0.327 N 
HETATM   18  H   UNL     1      40.885 -15.456   5.112  1.00  0.00     0.169 HD
HETATM   19  O   UNL     1      39.564 -14.285   3.531  1.00  0.00    -0.273 OA
BRANCH  17  20
HETATM   20  C   UNL     1      41.992 -16.873   4.116  1.00  0.00     0.035 A 
HETATM   21  C   UNL     1      42.056 -17.813   3.087  1.00  0.00     0.036 A 
HETATM   22  C   UNL     1      43.034 -18.820   3.098  1.00  0.00    -0.059 A 
HETATM   23  C   UNL     1      43.136 -19.805   1.971  1.00  0.00     0.048 C 
HETATM   24  C   UNL     1      43.966 -18.861   4.142  1.00  0.00     0.013 A 
HETATM   25  C   UNL     1      43.926 -17.916   5.172  1.00  0.00    -0.059 A 
HETATM   26  C   UNL     1      42.955 -16.909   5.133  1.00  0.00     0.036 A 
HETATM   27  C   UNL     1      44.946 -17.952   6.274  1.00  0.00     0.048 C 
ENDBRANCH  17  20
ENDBRANCH  15  16
ENDBRANCH   1  15
TORSDOF 3
ENDMDL
MODEL 10
REMARK VINA RESULT:      -8.2      4.158      5.623
REMARK  3 active torsions:
REMARK  status: ('A' for Active; 'I' for Inactive)
REMARK    1  A    between atoms: C_4  and  N_5 
REMARK       I    between atoms: N_5  and  C_6 
REMARK    2  A    between atoms: C_6  and  C_7 
REMARK    3  A    between atoms: C_7  and  C_8 
ROOT
HETATM    1  C   UNL     1      40.861 -14.212   1.146  1.00  0.00     0.286 C 
HETATM    2  N   UNL     1      40.258 -14.772  -0.139  1.00  0.00    -0.056 N 
HETATM    3  H   UNL     1      41.024 -15.304  -0.607  1.00  0.00     0.278 HD
HETATM    4  H   UNL     1      39.532 -15.464   0.077  1.00  0.00     0.278 HD
HETATM    5  C   UNL     1      39.734 -13.700  -1.061  1.00  0.00     0.209 C 
HETATM    6  C   UNL     1      40.878 -12.708  -1.394  1.00  0.00     0.115 C 
HETATM    7  N   UNL     1      41.548 -12.223  -0.190  1.00  0.00    -0.353 N 
HETATM    8  C   UNL     1      41.789 -12.997   0.916  1.00  0.00     0.249 C 
HETATM    9  O   UNL     1      42.646 -12.658   1.725  1.00  0.00    -0.271 OA
HETATM   10  C   UNL     1      39.143 -14.352  -2.310  1.00  0.00     0.035 C 
HETATM   11  C   UNL     1      40.200 -14.938  -3.243  1.00  0.00     0.002 C 
HETATM   12  C   UNL     1      41.264 -13.907  -3.601  1.00  0.00     0.002 C 
HETATM   13  C   UNL     1      41.913 -13.307  -2.360  1.00  0.00     0.027 C 
HETATM   14  H   UNL     1      42.189 -11.436  -0.280  1.00  0.00     0.163 HD
ENDROOT
BRANCH   1  15
HETATM   15  C   UNL     1      41.584 -15.303   1.949  1.00  0.00     0.146 C 
BRANCH  15  16
HETATM   16  C   UNL     1      40.766 -15.662   3.168  1.00  0.00     0.224 C 
HETATM   17  N   UNL     1      41.049 -16.737   3.945  1.00  0.00    -0.327 N 
HETATM   18  H   UNL     1      40.291 -16.971   4.581  1.00  0.00     0.169 HD
HETATM   19  O   UNL     1      39.778 -14.963   3.433  1.00  0.00    -0.273 OA
BRANCH  17  20
HETATM   20  C   UNL     1      42.141 -17.621   3.964  1.00  0.00     0.035 A 
HETATM   21  C   UNL     1      42.402 -18.569   2.975  1.00  0.00     0.036 A 
HETATM   22  C   UNL     1      43.518 -19.415   3.072  1.00  0.00    -0.059 A 
HETATM   23  C   UNL     1      43.829 -20.406   1.988  1.00  0.00     0.048 C 
HETATM   24  C   UNL     1      44.386 -19.285   4.163  1.00  0.00     0.013 A 
HETATM   25  C   UNL     1      44.148 -18.328   5.154  1.00  0.00    -0.059 A 
HETATM   26  C   UNL     1      43.040 -17.482   5.029  1.00  0.00     0.036 A 
HETATM   27  C   UNL     1      45.099 -18.177   6.306  1.00  0.00     0.048 C 
ENDBRANCH  17  20
ENDBRANCH  15  16
ENDBRANCH   1  15
TORSDOF 3
ENDMDL
