MODEL 1
REMARK VINA RESULT:      -8.7      0.000      0.000
REMARK  4 active torsions:
REMARK  status: ('A' for Active; 'I' for Inactive)
REMARK    1  A    between atoms: C_5  and  C_6 
REMARK    2  A    between atoms: C_6  and  N_7 
REMARK    3  A    between atoms: C_6  and  C_18 
REMARK    4  A    between atoms: N_7  and  C_8 
ROOT
HETATM    1  C   UNL     1      43.184 -18.279   3.185  1.00  0.00     0.290 C 
ENDROOT
BRANCH   1   2
HETATM    2  C   UNL     1      43.104 -17.663   4.583  1.00  0.00     0.021 A 
HETATM    3  C   UNL     1      44.117 -16.827   5.089  1.00  0.00     0.055 A 
HETATM    4  C   UNL     1      43.997 -16.228   6.344  1.00  0.00     0.117 A 
HETATM    5  C   UNL     1      42.861 -16.402   7.119  1.00  0.00     0.045 A 
HETATM    6  F   UNL     1      44.996 -15.463   6.802  1.00  0.00    -0.206 F 
HETATM    7  C   UNL     1      41.820 -17.177   6.621  1.00  0.00     0.046 A 
HETATM    8  C   UNL     1      41.940 -17.783   5.367  1.00  0.00     0.125 A 
HETATM    9  F   UNL     1      40.890 -18.494   4.931  1.00  0.00    -0.205 F 
ENDBRANCH   1   2
BRANCH   1  10
HETATM   10  N   UNL     1      41.999 -18.075   2.319  1.00  0.00     0.101 NA
HETATM   11  H   UNL     1      41.198 -18.439   2.838  1.00  0.00     0.317 HD
BRANCH  10  12
HETATM   12  C   UNL     1      41.692 -16.739   1.803  1.00  0.00     0.225 C 
HETATM   13  C   UNL     1      41.699 -16.649   0.264  1.00  0.00     0.069 C 
HETATM   14  C   UNL     1      41.241 -15.271  -0.175  1.00  0.00     0.190 C 
HETATM   15  N   UNL     1      39.850 -15.042   0.349  1.00  0.00    -0.067 N 
HETATM   16  C   UNL     1      41.037 -15.053  -1.659  1.00  0.00     0.035 C 
HETATM   17  H   UNL     1      39.265 -15.836   0.048  1.00  0.00     0.280 HD
HETATM   18  C   UNL     1      39.807 -15.003   1.840  1.00  0.00     0.237 C 
HETATM   19  C   UNL     1      39.333 -13.837  -0.391  1.00  0.00     0.235 C 
HETATM   20  C   UNL     1      40.300 -16.350   2.361  1.00  0.00     0.063 C 
HETATM   21  C   UNL     1      40.127 -13.827  -1.699  1.00  0.00     0.030 C 
ENDBRANCH  10  12
ENDBRANCH   1  10
BRANCH   1  22
HETATM   22  C   UNL     1      43.714 -19.708   3.053  1.00  0.00    -0.018 A 
HETATM   23  C   UNL     1      43.421 -20.445   1.894  1.00  0.00     0.029 A 
HETATM   24  C   UNL     1      43.855 -21.759   1.803  1.00  0.00     0.116 A 
HETATM   25  N   UNL     1      44.545 -22.386   2.776  1.00  0.00    -0.273 NA
HETATM   26  C   UNL     1      44.831 -21.670   3.880  1.00  0.00     0.116 A 
HETATM   27  C   UNL     1      44.435 -20.354   4.067  1.00  0.00     0.029 A 
ENDBRANCH   1  22
TORSDOF 4
ENDMDL
MODEL 2
REMARK VINA RESULT:      -8.6      2.522      4.569
REMARK  4 active torsions:
REMARK  status: ('A' for Active; 'I' for Inactive)
REMARK    1  A    between atoms: C_5  and  C_6 
REMARK    2  A    between atoms: C_6  and  N_7 
REMARK    3  A    between atoms: C_6  and  C_18 
REMARK    4  A    between atoms: N_7  and  C_8 
ROOT
HETATM    1  C   UNL     1      43.415 -18.163   3.734  1.00  0.00     0.290 C 
ENDROOT
BRANCH   1   2
HETATM    2  C   UNL     1      43.859 -19.590   3.406  1.00  0.00     0.021 A 
HETATM    3  C   UNL     1      44.488 -20.413   4.360  1.00  0.00     0.055 A 
HETATM    4  C   UNL     1      44.833 -21.731   4.058  1.00  0.00     0.117 A 
HETATM    5  C   UNL     1      44.532 -22.289   2.825  1.00  0.00     0.045 A 
HETATM    6  F   UNL     1      45.456 -22.472   4.983  1.00  0.00    -0.206 F 
HETATM    7  C   UNL     1      43.861 -21.518   1.883  1.00  0.00     0.046 A 
HETATM    8  C   UNL     1      43.521 -20.195   2.180  1.00  0.00     0.125 A 
HETATM    9  F   UNL     1      42.850 -19.514   1.241  1.00  0.00    -0.205 F 
ENDBRANCH   1   2
BRANCH   1  10
HETATM   10  N   UNL     1      44.017 -17.091   2.906  1.00  0.00     0.101 NA
HETATM   11  H   UNL     1      44.573 -17.559   2.189  1.00  0.00     0.317 HD
BRANCH  10  12
HETATM   12  C   UNL     1      43.159 -16.078   2.287  1.00  0.00     0.225 C 
HETATM   13  C   UNL     1      41.657 -16.426   2.322  1.00  0.00     0.069 C 
HETATM   14  C   UNL     1      40.844 -15.265   1.784  1.00  0.00     0.190 C 
HETATM   15  N   UNL     1      41.114 -14.057   2.637  1.00  0.00    -0.067 N 
HETATM   16  C   UNL     1      39.338 -15.371   1.889  1.00  0.00     0.035 C 
HETATM   17  H   UNL     1      40.941 -14.320   3.620  1.00  0.00     0.280 HD
HETATM   18  C   UNL     1      42.533 -13.606   2.547  1.00  0.00     0.237 C 
HETATM   19  C   UNL     1      40.045 -13.059   2.277  1.00  0.00     0.235 C 
HETATM   20  C   UNL     1      43.422 -14.747   3.035  1.00  0.00     0.063 C 
HETATM   21  C   UNL     1      38.887 -13.916   1.762  1.00  0.00     0.030 C 
ENDBRANCH  10  12
ENDBRANCH   1  10
BRANCH   1  22
HETATM   22  C   UNL     1      43.355 -17.743   5.204  1.00  0.00    -0.018 A 
HETATM   23  C   UNL     1      42.108 -17.647   5.841  1.00  0.00     0.029 A 
HETATM   24  C   UNL     1      42.054 -17.213   7.156  1.00  0.00     0.116 A 
HETATM   25  N   UNL     1      43.141 -16.862   7.871  1.00  0.00    -0.273 NA
HETATM   26  C   UNL     1      44.335 -16.966   7.258  1.00  0.00     0.116 A 
HETATM   27  C   UNL     1      44.490 -17.384   5.945  1.00  0.00     0.029 A 
ENDBRANCH   1  22
TORSDOF 4
ENDMDL
MODEL 3
REMARK VINA RESULT:      -8.4      2.193      4.437
REMARK  4 active torsions:
REMARK  status: ('A' for Active; 'I' for Inactive)
REMARK    1  A    between atoms: C_5  and  C_6 
REMARK    2  A    between atoms: C_6  and  N_7 
REMARK    3  A    between atoms: C_6  and  C_18 
REMARK    4  A    between atoms: N_7  and  C_8 
ROOT
HETATM    1  C   UNL     1      41.636 -17.090   3.961  1.00  0.00     0.290 C 
ENDROOT
BRANCH   1   2
HETATM    2  C   UNL     1      42.608 -18.263   3.816  1.00  0.00     0.021 A 
HETATM    3  C   UNL     1      42.802 -18.922   2.587  1.00  0.00     0.055 A 
HETATM    4  C   UNL     1      43.735 -19.952   2.462  1.00  0.00     0.117 A 
HETATM    5  C   UNL     1      44.533 -20.334   3.530  1.00  0.00     0.045 A 
HETATM    6  F   UNL     1      43.869 -20.573   1.284  1.00  0.00    -0.206 F 
HETATM    7  C   UNL     1      44.403 -19.662   4.740  1.00  0.00     0.046 A 
HETATM    8  C   UNL     1      43.464 -18.635   4.870  1.00  0.00     0.125 A 
HETATM    9  F   UNL     1      43.408 -18.008   6.054  1.00  0.00    -0.205 F 
ENDBRANCH   1   2
BRANCH   1  10
HETATM   10  N   UNL     1      40.566 -17.005   2.940  1.00  0.00     0.101 NA
HETATM   11  H   UNL     1      39.681 -17.019   3.449  1.00  0.00     0.317 HD
BRANCH  10  12
HETATM   12  C   UNL     1      40.566 -15.906   1.972  1.00  0.00     0.225 C 
HETATM   13  C   UNL     1      41.003 -16.324   0.554  1.00  0.00     0.069 C 
HETATM   14  C   UNL     1      40.841 -15.157  -0.402  1.00  0.00     0.190 C 
HETATM   15  N   UNL     1      39.396 -14.742  -0.409  1.00  0.00    -0.067 N 
HETATM   16  C   UNL     1      41.077 -15.432  -1.872  1.00  0.00     0.035 C 
HETATM   17  H   UNL     1      38.829 -15.580  -0.610  1.00  0.00     0.280 HD
HETATM   18  C   UNL     1      38.952 -14.218   0.915  1.00  0.00     0.237 C 
HETATM   19  C   UNL     1      39.241 -13.836  -1.602  1.00  0.00     0.235 C 
HETATM   20  C   UNL     1      39.127 -15.330   1.946  1.00  0.00     0.063 C 
HETATM   21  C   UNL     1      40.358 -14.269  -2.553  1.00  0.00     0.030 C 
ENDBRANCH  10  12
ENDBRANCH   1  10
BRANCH   1  22
HETATM   22  C   UNL     1      42.214 -15.704   4.258  1.00  0.00    -0.018 A 
HETATM   23  C   UNL     1      43.260 -15.211   3.464  1.00  0.00     0.029 A 
HETATM   24  C   UNL     1      43.818 -13.980   3.771  1.00  0.00     0.116 A 
HETATM   25  N   UNL     1      43.418 -13.218   4.807  1.00  0.00    -0.273 NA
HETATM   26  C   UNL     1      42.407 -13.691   5.560  1.00  0.00     0.116 A 
HETATM   27  C   UNL     1      41.790 -14.913   5.336  1.00  0.00     0.029 A 
ENDBRANCH   1  22
TORSDOF 4
ENDMDL
MODEL 4
REMARK VINA RESULT:      -8.2      2.251      4.245
REMARK  4 active torsions:
REMARK  status: ('A' for Active; 'I' for Inactive)
REMARK    1  A    between atoms: C_5  and  C_6 
REMARK    2  A    between atoms: C_6  and  N_7 
REMARK    3  A    between atoms: C_6  and  C_18 
REMARK    4  A    between atoms: N_7  and  C_8 
ROOT
HETATM    1  C   UNL     1      42.954 -17.272   3.922  1.00  0.00     0.290 C 
ENDROOT
BRANCH   1   2
HETATM    2  C   UNL     1      43.483 -18.620   3.428  1.00  0.00     0.021 A 
HETATM    3  C   UNL     1      44.353 -19.410   4.204  1.00  0.00     0.055 A 
HETATM    4  C   UNL     1      44.778 -20.663   3.760  1.00  0.00     0.117 A 
HETATM    5  C   UNL     1      44.327 -21.192   2.561  1.00  0.00     0.045 A 
HETATM    6  F   UNL     1      45.628 -21.369   4.515  1.00  0.00    -0.206 F 
HETATM    7  C   UNL     1      43.423 -20.460   1.801  1.00  0.00     0.046 A 
HETATM    8  C   UNL     1      43.001 -19.201   2.239  1.00  0.00     0.125 A 
HETATM    9  F   UNL     1      42.107 -18.559   1.475  1.00  0.00    -0.205 F 
ENDBRANCH   1   2
BRANCH   1  10
HETATM   10  N   UNL     1      43.257 -16.104   3.063  1.00  0.00     0.101 NA
HETATM   11  H   UNL     1      43.758 -16.467   2.250  1.00  0.00     0.317 HD
BRANCH  10  12
HETATM   12  C   UNL     1      42.175 -15.219   2.624  1.00  0.00     0.225 C 
HETATM   13  C   UNL     1      41.983 -15.179   1.095  1.00  0.00     0.069 C 
HETATM   14  C   UNL     1      40.762 -14.348   0.749  1.00  0.00     0.190 C 
HETATM   15  N   UNL     1      39.560 -14.971   1.403  1.00  0.00    -0.067 N 
HETATM   16  C   UNL     1      40.331 -14.328  -0.702  1.00  0.00     0.035 C 
HETATM   17  H   UNL     1      39.530 -15.964   1.128  1.00  0.00     0.280 HD
HETATM   18  C   UNL     1      39.642 -14.929   2.892  1.00  0.00     0.237 C 
HETATM   19  C   UNL     1      38.365 -14.321   0.756  1.00  0.00     0.235 C 
HETATM   20  C   UNL     1      40.880 -15.714   3.318  1.00  0.00     0.063 C 
HETATM   21  C   UNL     1      38.874 -13.876  -0.616  1.00  0.00     0.030 C 
ENDBRANCH  10  12
ENDBRANCH   1  10
BRANCH   1  22
HETATM   22  C   UNL     1      43.136 -16.921   5.400  1.00  0.00    -0.018 A 
HETATM   23  C   UNL     1      43.923 -15.812   5.750  1.00  0.00     0.029 A 
HETATM   24  C   UNL     1      44.132 -15.531   7.092  1.00  0.00     0.116 A 
HETATM   25  N   UNL     1      43.626 -16.271   8.097  1.00  0.00    -0.273 NA
HETATM   26  C   UNL     1      42.864 -17.327   7.754  1.00  0.00     0.116 A 
HETATM   27  C   UNL     1      42.604 -17.693   6.442  1.00  0.00     0.029 A 
ENDBRANCH   1  22
TORSDOF 4
ENDMDL
MODEL 5
REMARK VINA RESULT:      -8.1      1.415      2.280
REMARK  4 active torsions:
REMARK  status: ('A' for Active; 'I' for Inactive)
REMARK    1  A    between atoms: C_5  and  C_6 
REMARK    2  A    between atoms: C_6  and  N_7 
REMARK    3  A    between atoms: C_6  and  C_18 
REMARK    4  A    between atoms: N_7  and  C_8 
ROOT
HETATM    1  C   UNL     1      42.706 -17.506   2.624  1.00  0.00     0.290 C 
ENDROOT
BRANCH   1   2
HETATM    2  C   UNL     1      42.239 -16.776   3.885  1.00  0.00     0.021 A 
HETATM    3  C   UNL     1      41.290 -17.336   4.762  1.00  0.00     0.055 A 
HETATM    4  C   UNL     1      40.920 -16.680   5.937  1.00  0.00     0.117 A 
HETATM    5  C   UNL     1      41.502 -15.476   6.303  1.00  0.00     0.045 A 
HETATM    6  F   UNL     1      39.992 -17.232   6.729  1.00  0.00    -0.206 F 
HETATM    7  C   UNL     1      42.483 -14.928   5.485  1.00  0.00     0.046 A 
HETATM    8  C   UNL     1      42.851 -15.579   4.304  1.00  0.00     0.125 A 
HETATM    9  F   UNL     1      43.822 -15.013   3.574  1.00  0.00    -0.205 F 
ENDBRANCH   1   2
BRANCH   1  10
HETATM   10  N   UNL     1      41.773 -17.474   1.474  1.00  0.00     0.101 NA
HETATM   11  H   UNL     1      40.912 -17.923   1.790  1.00  0.00     0.317 HD
BRANCH  10  12
HETATM   12  C   UNL     1      41.459 -16.200   0.823  1.00  0.00     0.225 C 
HETATM   13  C   UNL     1      41.367 -16.291  -0.714  1.00  0.00     0.069 C 
HETATM   14  C   UNL     1      40.908 -14.963  -1.284  1.00  0.00     0.190 C 
HETATM   15  N   UNL     1      39.560 -14.635  -0.705  1.00  0.00    -0.067 N 
HETATM   16  C   UNL     1      40.612 -14.915  -2.768  1.00  0.00     0.035 C 
HETATM   17  H   UNL     1      38.940 -15.443  -0.872  1.00  0.00     0.280 HD
HETATM   18  C   UNL     1      39.615 -14.421   0.771  1.00  0.00     0.237 C 
HETATM   19  C   UNL     1      39.019 -13.512  -1.549  1.00  0.00     0.235 C 
HETATM   20  C   UNL     1      40.114 -15.710   1.416  1.00  0.00     0.063 C 
HETATM   21  C   UNL     1      39.725 -13.677  -2.896  1.00  0.00     0.030 C 
ENDBRANCH  10  12
ENDBRANCH   1  10
BRANCH   1  22
HETATM   22  C   UNL     1      43.328 -18.895   2.781  1.00  0.00    -0.018 A 
HETATM   23  C   UNL     1      44.188 -19.146   3.861  1.00  0.00     0.029 A 
HETATM   24  C   UNL     1      44.793 -20.388   3.968  1.00  0.00     0.116 A 
HETATM   25  N   UNL     1      44.611 -21.385   3.080  1.00  0.00    -0.273 NA
HETATM   26  C   UNL     1      43.778 -21.142   2.051  1.00  0.00     0.116 A 
HETATM   27  C   UNL     1      43.132 -19.930   1.855  1.00  0.00     0.029 A 
ENDBRANCH   1  22
TORSDOF 4
ENDMDL
MODEL 6
REMARK VINA RESULT:      -7.9      3.129      5.343
REMARK  4 active torsions:
REMARK  status: ('A' for Active; 'I' for Inactive)
REMARK    1  A    between atoms: C_5  and  C_6 
REMARK    2  A    between atoms: C_6  and  N_7 
REMARK    3  A    between atoms: C_6  and  C_18 
REMARK    4  A    between atoms: N_7  and  C_8 
ROOT
HETATM    1  C   UNL     1      43.653 -17.692   4.543  1.00  0.00     0.290 C 
ENDROOT
BRANCH   1   2
HETATM    2  C   UNL     1      44.020 -19.132   4.907  1.00  0.00     0.021 A 
HETATM    3  C   UNL     1      43.680 -19.697   6.151  1.00  0.00     0.055 A 
HETATM    4  C   UNL     1      43.973 -21.030   6.441  1.00  0.00     0.117 A 
HETATM    5  C   UNL     1      44.570 -21.857   5.502  1.00  0.00     0.045 A 
HETATM    6  F   UNL     1      43.660 -21.521   7.647  1.00  0.00    -0.206 F 
HETATM    7  C   UNL     1      44.865 -21.342   4.245  1.00  0.00     0.046 A 
HETATM    8  C   UNL     1      44.580 -20.005   3.954  1.00  0.00     0.125 A 
HETATM    9  F   UNL     1      44.863 -19.578   2.715  1.00  0.00    -0.205 F 
ENDBRANCH   1   2
BRANCH   1  10
HETATM   10  N   UNL     1      43.050 -16.884   5.628  1.00  0.00     0.101 NA
HETATM   11  H   UNL     1      43.697 -16.935   6.418  1.00  0.00     0.317 HD
BRANCH  10  12
HETATM   12  C   UNL     1      42.678 -15.490   5.380  1.00  0.00     0.225 C 
HETATM   13  C   UNL     1      41.191 -15.184   5.651  1.00  0.00     0.069 C 
HETATM   14  C   UNL     1      40.933 -13.697   5.498  1.00  0.00     0.190 C 
HETATM   15  N   UNL     1      41.798 -12.959   6.481  1.00  0.00    -0.067 N 
HETATM   16  C   UNL     1      39.557 -13.194   5.879  1.00  0.00     0.035 C 
HETATM   17  H   UNL     1      41.626 -13.359   7.416  1.00  0.00     0.280 HD
HETATM   18  C   UNL     1      43.252 -13.127   6.191  1.00  0.00     0.237 C 
HETATM   19  C   UNL     1      41.257 -11.554   6.521  1.00  0.00     0.235 C 
HETATM   20  C   UNL     1      43.582 -14.614   6.284  1.00  0.00     0.063 C 
HETATM   21  C   UNL     1      39.793 -11.701   6.103  1.00  0.00     0.030 C 
ENDBRANCH  10  12
ENDBRANCH   1  10
BRANCH   1  22
HETATM   22  C   UNL     1      42.933 -17.442   3.216  1.00  0.00    -0.018 A 
HETATM   23  C   UNL     1      43.615 -16.794   2.175  1.00  0.00     0.029 A 
HETATM   24  C   UNL     1      42.941 -16.519   0.995  1.00  0.00     0.116 A 
HETATM   25  N   UNL     1      41.648 -16.832   0.784  1.00  0.00    -0.273 NA
HETATM   26  C   UNL     1      41.001 -17.463   1.783  1.00  0.00     0.116 A 
HETATM   27  C   UNL     1      41.588 -17.775   3.001  1.00  0.00     0.029 A 
ENDBRANCH   1  22
TORSDOF 4
ENDMDL
MODEL 7
REMARK VINA RESULT:      -7.9      1.492      2.468
REMARK  4 active torsions:
REMARK  status: ('A' for Active; 'I' for Inactive)
REMARK    1  A    between atoms: C_5  and  C_6 
REMARK    2  A    between atoms: C_6  and  N_7 
REMARK    3  A    between atoms: C_6  and  C_18 
REMARK    4  A    between atoms: N_7  and  C_8 
ROOT
HETATM    1  C   UNL     1      42.530 -17.779   2.641  1.00  0.00     0.290 C 
ENDROOT
BRANCH   1   2
HETATM    2  C   UNL     1      42.159 -17.001   3.905  1.00  0.00     0.021 A 
HETATM    3  C   UNL     1      41.232 -17.498   4.841  1.00  0.00     0.055 A 
HETATM    4  C   UNL     1      40.951 -16.800   6.016  1.00  0.00     0.117 A 
HETATM    5  C   UNL     1      41.603 -15.615   6.323  1.00  0.00     0.045 A 
HETATM    6  F   UNL     1      40.042 -17.291   6.867  1.00  0.00    -0.206 F 
HETATM    7  C   UNL     1      42.564 -15.130   5.444  1.00  0.00     0.046 A 
HETATM    8  C   UNL     1      42.843 -15.823   4.263  1.00  0.00     0.125 A 
HETATM    9  F   UNL     1      43.800 -15.318   3.472  1.00  0.00    -0.205 F 
ENDBRANCH   1   2
BRANCH   1  10
HETATM   10  N   UNL     1      41.451 -17.939   1.638  1.00  0.00     0.101 NA
HETATM   11  H   UNL     1      40.693 -18.436   2.108  1.00  0.00     0.317 HD
BRANCH  10  12
HETATM   12  C   UNL     1      40.919 -16.763   0.945  1.00  0.00     0.225 C 
HETATM   13  C   UNL     1      39.926 -15.939   1.788  1.00  0.00     0.069 C 
HETATM   14  C   UNL     1      39.536 -14.677   1.041  1.00  0.00     0.190 C 
HETATM   15  N   UNL     1      40.780 -13.875   0.779  1.00  0.00    -0.067 N 
HETATM   16  C   UNL     1      38.686 -13.670   1.786  1.00  0.00     0.035 C 
HETATM   17  H   UNL     1      41.265 -13.742   1.679  1.00  0.00     0.280 HD
HETATM   18  C   UNL     1      41.727 -14.582  -0.131  1.00  0.00     0.237 C 
HETATM   19  C   UNL     1      40.300 -12.511   0.357  1.00  0.00     0.235 C 
HETATM   20  C   UNL     1      42.134 -15.892   0.537  1.00  0.00     0.063 C 
HETATM   21  C   UNL     1      38.916 -12.383   0.995  1.00  0.00     0.030 C 
ENDBRANCH  10  12
ENDBRANCH   1  10
BRANCH   1  22
HETATM   22  C   UNL     1      43.321 -19.080   2.798  1.00  0.00    -0.018 A 
HETATM   23  C   UNL     1      43.152 -20.105   1.854  1.00  0.00     0.029 A 
HETATM   24  C   UNL     1      43.828 -21.303   2.031  1.00  0.00     0.116 A 
HETATM   25  N   UNL     1      44.644 -21.552   3.074  1.00  0.00    -0.273 NA
HETATM   26  C   UNL     1      44.809 -20.561   3.970  1.00  0.00     0.116 A 
HETATM   27  C   UNL     1      44.173 -19.332   3.883  1.00  0.00     0.029 A 
ENDBRANCH   1  22
TORSDOF 4
ENDMDL
MODEL 8
REMARK VINA RESULT:      -7.6      2.299      4.325
REMARK  4 active torsions:
REMARK  status: ('A' for Active; 'I' for Inactive)
REMARK    1  A    between atoms: C_5  and  C_6 
REMARK    2  A    between atoms: C_6  and  N_7 
REMARK    3  A    between atoms: C_6  and  C_18 
REMARK    4  A    between atoms: N_7  and  C_8 
ROOT
HETATM    1  C   UNL     1      42.105 -17.163   3.297  1.00  0.00     0.290 C 
ENDROOT
BRANCH   1   2
HETATM    2  C   UNL     1      43.111 -18.292   3.534  1.00  0.00     0.021 A 
HETATM    3  C   UNL     1      43.356 -18.815   4.818  1.00  0.00     0.055 A 
HETATM    4  C   UNL     1      44.234 -19.884   5.004  1.00  0.00     0.117 A 
HETATM    5  C   UNL     1      44.863 -20.495   3.930  1.00  0.00     0.045 A 
HETATM    6  F   UNL     1      44.463 -20.333   6.244  1.00  0.00    -0.206 F 
HETATM    7  C   UNL     1      44.596 -20.036   2.645  1.00  0.00     0.046 A 
HETATM    8  C   UNL     1      43.722 -18.961   2.456  1.00  0.00     0.125 A 
HETATM    9  F   UNL     1      43.485 -18.586   1.191  1.00  0.00    -0.205 F 
ENDBRANCH   1   2
BRANCH   1  10
HETATM   10  N   UNL     1      41.512 -17.099   1.941  1.00  0.00     0.101 NA
HETATM   11  H   UNL     1      40.797 -17.827   1.905  1.00  0.00     0.317 HD
BRANCH  10  12
HETATM   12  C   UNL     1      40.961 -15.836   1.444  1.00  0.00     0.225 C 
HETATM   13  C   UNL     1      41.046 -15.678  -0.087  1.00  0.00     0.069 C 
HETATM   14  C   UNL     1      40.334 -14.410  -0.517  1.00  0.00     0.190 C 
HETATM   15  N   UNL     1      38.896 -14.501  -0.087  1.00  0.00    -0.067 N 
HETATM   16  C   UNL     1      40.184 -14.174  -2.005  1.00  0.00     0.035 C 
HETATM   17  H   UNL     1      38.514 -15.387  -0.452  1.00  0.00     0.280 HD
HETATM   18  C   UNL     1      38.751 -14.538   1.398  1.00  0.00     0.237 C 
HETATM   19  C   UNL     1      38.182 -13.400  -0.826  1.00  0.00     0.235 C 
HETATM   20  C   UNL     1      39.485 -15.773   1.912  1.00  0.00     0.063 C 
HETATM   21  C   UNL     1      39.038 -13.166  -2.072  1.00  0.00     0.030 C 
ENDBRANCH  10  12
ENDBRANCH   1  10
BRANCH   1  22
HETATM   22  C   UNL     1      42.457 -15.763   3.803  1.00  0.00    -0.018 A 
HETATM   23  C   UNL     1      43.513 -15.060   3.201  1.00  0.00     0.029 A 
HETATM   24  C   UNL     1      43.865 -13.815   3.699  1.00  0.00     0.116 A 
HETATM   25  N   UNL     1      43.253 -13.231   4.748  1.00  0.00    -0.273 NA
HETATM   26  C   UNL     1      42.235 -13.906   5.315  1.00  0.00     0.116 A 
HETATM   27  C   UNL     1      41.814 -15.158   4.892  1.00  0.00     0.029 A 
ENDBRANCH   1  22
TORSDOF 4
ENDMDL
MODEL 9
REMARK VINA RESULT:      -7.5      2.029      4.617
REMARK  4 active torsions:
REMARK  status: ('A' for Active; 'I' for Inactive)
REMARK    1  A    between atoms: C_5  and  C_6 
REMARK    2  A    between atoms: C_6  and  N_7 
REMARK    3  A    between atoms: C_6  and  C_18 
REMARK    4  A    between atoms: N_7  and  C_8 
ROOT
HETATM    1  C   UNL     1      42.781 -17.817   4.003  1.00  0.00     0.290 C 
ENDROOT
BRANCH   1   2
HETATM    2  C   UNL     1      43.455 -19.137   3.622  1.00  0.00     0.021 A 
HETATM    3  C   UNL     1      43.045 -19.887   2.503  1.00  0.00     0.055 A 
HETATM    4  C   UNL     1      43.711 -21.058   2.139  1.00  0.00     0.117 A 
HETATM    5  C   UNL     1      44.823 -21.501   2.839  1.00  0.00     0.045 A 
HETATM    6  F   UNL     1      43.273 -21.759   1.086  1.00  0.00    -0.206 F 
HETATM    7  C   UNL     1      45.284 -20.750   3.913  1.00  0.00     0.046 A 
HETATM    8  C   UNL     1      44.615 -19.581   4.285  1.00  0.00     0.125 A 
HETATM    9  F   UNL     1      45.126 -18.887   5.312  1.00  0.00    -0.205 F 
ENDBRANCH   1   2
BRANCH   1  10
HETATM   10  N   UNL     1      42.831 -16.746   2.981  1.00  0.00     0.101 NA
HETATM   11  H   UNL     1      43.687 -16.899   2.445  1.00  0.00     0.317 HD
BRANCH  10  12
HETATM   12  C   UNL     1      41.702 -16.554   2.068  1.00  0.00     0.225 C 
HETATM   13  C   UNL     1      40.648 -15.553   2.582  1.00  0.00     0.069 C 
HETATM   14  C   UNL     1      39.594 -15.319   1.517  1.00  0.00     0.190 C 
HETATM   15  N   UNL     1      40.268 -14.772   0.290  1.00  0.00    -0.067 N 
HETATM   16  C   UNL     1      38.563 -14.245   1.791  1.00  0.00     0.035 C 
HETATM   17  H   UNL     1      40.822 -13.949   0.575  1.00  0.00     0.280 HD
HETATM   18  C   UNL     1      41.217 -15.750  -0.317  1.00  0.00     0.237 C 
HETATM   19  C   UNL     1      39.158 -14.248  -0.583  1.00  0.00     0.235 C 
HETATM   20  C   UNL     1      42.291 -16.071   0.718  1.00  0.00     0.063 C 
HETATM   21  C   UNL     1      38.029 -13.925   0.396  1.00  0.00     0.030 C 
ENDBRANCH  10  12
ENDBRANCH   1  10
BRANCH   1  22
HETATM   22  C   UNL     1      43.041 -17.248   5.399  1.00  0.00    -0.018 A 
HETATM   23  C   UNL     1      43.799 -16.074   5.532  1.00  0.00     0.029 A 
HETATM   24  C   UNL     1      44.081 -15.592   6.801  1.00  0.00     0.116 A 
HETATM   25  N   UNL     1      43.674 -16.196   7.935  1.00  0.00    -0.273 NA
HETATM   26  C   UNL     1      42.939 -17.316   7.801  1.00  0.00     0.116 A 
HETATM   27  C   UNL     1      42.611 -17.877   6.576  1.00  0.00     0.029 A 
ENDBRANCH   1  22
TORSDOF 4
ENDMDL
MODEL 10
REMARK VINA RESULT:      -7.4      2.858      5.089
REMARK  4 active torsions:
REMARK  status: ('A' for Active; 'I' for Inactive)
REMARK    1  A    between atoms: C_5  and  C_6 
REMARK    2  A    between atoms: C_6  and  N_7 
REMARK    3  A    between atoms: C_6  and  C_18 
REMARK    4  A    between atoms: N_7  and  C_8 
ROOT
HETATM    1  C   UNL     1      41.561 -15.177   2.330  1.00  0.00     0.290 C 
ENDROOT
BRANCH   1   2
HETATM    2  C   UNL     1      42.267 -16.523   2.506  1.00  0.00     0.021 A 
HETATM    3  C   UNL     1      43.213 -16.742   3.526  1.00  0.00     0.055 A 
HETATM    4  C   UNL     1      43.801 -17.994   3.706  1.00  0.00     0.117 A 
HETATM    5  C   UNL     1      43.448 -19.076   2.914  1.00  0.00     0.045 A 
HETATM    6  F   UNL     1      44.718 -18.153   4.669  1.00  0.00    -0.206 F 
HETATM    7  C   UNL     1      42.475 -18.904   1.936  1.00  0.00     0.046 A 
HETATM    8  C   UNL     1      41.888 -17.649   1.749  1.00  0.00     0.125 A 
HETATM    9  F   UNL     1      40.938 -17.556   0.809  1.00  0.00    -0.205 F 
ENDBRANCH   1   2
BRANCH   1  10
HETATM   10  N   UNL     1      42.115 -14.288   1.283  1.00  0.00     0.101 NA
HETATM   11  H   UNL     1      43.027 -14.673   1.031  1.00  0.00     0.317 HD
BRANCH  10  12
HETATM   12  C   UNL     1      41.340 -14.015   0.071  1.00  0.00     0.225 C 
HETATM   13  C   UNL     1      41.432 -15.128  -0.992  1.00  0.00     0.069 C 
HETATM   14  C   UNL     1      40.496 -14.821  -2.145  1.00  0.00     0.190 C 
HETATM   15  N   UNL     1      39.093 -14.735  -1.611  1.00  0.00    -0.067 N 
HETATM   16  C   UNL     1      40.341 -15.887  -3.210  1.00  0.00     0.035 C 
HETATM   17  H   UNL     1      38.902 -15.601  -1.084  1.00  0.00     0.280 HD
HETATM   18  C   UNL     1      38.919 -13.596  -0.662  1.00  0.00     0.237 C 
HETATM   19  C   UNL     1      38.196 -14.773  -2.820  1.00  0.00     0.235 C 
HETATM   20  C   UNL     1      39.868 -13.813   0.513  1.00  0.00     0.063 C 
HETATM   21  C   UNL     1      39.021 -15.507  -3.878  1.00  0.00     0.030 C 
ENDBRANCH  10  12
ENDBRANCH   1  10
BRANCH   1  22
HETATM   22  C   UNL     1      41.202 -14.379   3.585  1.00  0.00    -0.018 A 
HETATM   23  C   UNL     1      41.972 -13.258   3.931  1.00  0.00     0.029 A 
HETATM   24  C   UNL     1      41.678 -12.572   5.099  1.00  0.00     0.116 A 
HETATM   25  N   UNL     1      40.688 -12.924   5.942  1.00  0.00    -0.273 NA
HETATM   26  C   UNL     1      39.946 -13.994   5.600  1.00  0.00     0.116 A 
HETATM   27  C   UNL     1      40.167 -14.748   4.456  1.00  0.00     0.029 A 
ENDBRANCH   1  22
TORSDOF 4
ENDMDL
