MODEL 1
REMARK VINA RESULT:      -8.4      0.000      0.000
REMARK  3 active torsions:
REMARK  status: ('A' for Active; 'I' for Inactive)
REMARK    1  A    between atoms: C_6  and  N_7 
REMARK       I    between atoms: N_7  and  C_8 
REMARK    2  A    between atoms: C_8  and  C_9 
REMARK    3  A    between atoms: C_9  and  C_10 
ROOT
HETATM    1  C   UNL     1      41.416 -16.320   6.424  1.00  0.00     0.286 C 
HETATM    2  N   UNL     1      42.090 -14.956   6.260  1.00  0.00    -0.056 N 
HETATM    3  H   UNL     1      42.251 -14.590   7.221  1.00  0.00     0.278 HD
HETATM    4  H   UNL     1      43.020 -15.066   5.836  1.00  0.00     0.278 HD
HETATM    5  C   UNL     1      41.228 -14.028   5.463  1.00  0.00     0.209 C 
HETATM    6  C   UNL     1      41.017 -14.648   4.062  1.00  0.00     0.115 C 
HETATM    7  N   UNL     1      40.529 -16.025   4.126  1.00  0.00    -0.353 N 
HETATM    8  C   UNL     1      40.979 -16.922   5.073  1.00  0.00     0.249 C 
HETATM    9  O   UNL     1      40.929 -18.127   4.860  1.00  0.00    -0.271 OA
HETATM   10  C   UNL     1      41.876 -12.654   5.359  1.00  0.00     0.035 C 
HETATM   11  C   UNL     1      40.996 -11.729   4.516  1.00  0.00     0.002 C 
HETATM   12  C   UNL     1      40.665 -12.327   3.146  1.00  0.00     0.002 C 
HETATM   13  C   UNL     1      40.097 -13.746   3.239  1.00  0.00     0.027 C 
HETATM   14  H   UNL     1      40.276 -16.479   3.249  1.00  0.00     0.163 HD
ENDROOT
BRANCH   1  15
HETATM   15  C   UNL     1      42.309 -17.258   7.241  1.00  0.00     0.146 C 
BRANCH  15  16
HETATM   16  C   UNL     1      43.743 -16.851   7.003  1.00  0.00     0.224 C 
HETATM   17  N   UNL     1      44.514 -17.322   5.996  1.00  0.00    -0.327 N 
HETATM   18  H   UNL     1      45.346 -16.750   5.872  1.00  0.00     0.169 HD
HETATM   19  O   UNL     1      44.197 -15.940   7.715  1.00  0.00    -0.273 OA
BRANCH  17  20
HETATM   20  C   UNL     1      44.437 -18.420   5.119  1.00  0.00     0.035 A 
HETATM   21  C   UNL     1      44.734 -19.743   5.444  1.00  0.00     0.037 A 
HETATM   22  C   UNL     1      44.643 -20.772   4.484  1.00  0.00    -0.054 A 
HETATM   23  C   UNL     1      44.261 -20.462   3.165  1.00  0.00    -0.056 A 
HETATM   24  C   UNL     1      44.945 -22.190   4.893  1.00  0.00     0.049 C 
HETATM   25  C   UNL     1      44.168 -21.517   2.097  1.00  0.00     0.049 C 
HETATM   26  C   UNL     1      44.017 -19.128   2.829  1.00  0.00     0.009 A 
HETATM   27  C   UNL     1      44.108 -18.121   3.793  1.00  0.00     0.030 A 
ENDBRANCH  17  20
ENDBRANCH  15  16
ENDBRANCH   1  15
TORSDOF 3
ENDMDL
MODEL 2
REMARK VINA RESULT:      -8.3      2.006      2.753
REMARK  3 active torsions:
REMARK  status: ('A' for Active; 'I' for Inactive)
REMARK    1  A    between atoms: C_6  and  N_7 
REMARK       I    between atoms: N_7  and  C_8 
REMARK    2  A    between atoms: C_8  and  C_9 
REMARK    3  A    between atoms: C_9  and  C_10 
ROOT
HETATM    1  C   UNL     1      41.463 -15.821   4.253  1.00  0.00     0.286 C 
HETATM    2  N   UNL     1      41.387 -16.519   2.893  1.00  0.00    -0.056 N 
HETATM    3  H   UNL     1      42.253 -17.088   2.806  1.00  0.00     0.278 HD
HETATM    4  H   UNL     1      40.604 -17.184   2.877  1.00  0.00     0.278 HD
HETATM    5  C   UNL     1      41.281 -15.518   1.786  1.00  0.00     0.209 C 
HETATM    6  C   UNL     1      39.986 -14.699   1.995  1.00  0.00     0.115 C 
HETATM    7  N   UNL     1      39.894 -14.129   3.338  1.00  0.00    -0.353 N 
HETATM    8  C   UNL     1      40.309 -14.819   4.460  1.00  0.00     0.249 C 
HETATM    9  O   UNL     1      39.838 -14.555   5.560  1.00  0.00    -0.271 OA
HETATM   10  C   UNL     1      41.271 -16.217   0.433  1.00  0.00     0.035 C 
HETATM   11  C   UNL     1      41.132 -15.181  -0.685  1.00  0.00     0.002 C 
HETATM   12  C   UNL     1      39.919 -14.269  -0.487  1.00  0.00     0.002 C 
HETATM   13  C   UNL     1      39.875 -13.633   0.906  1.00  0.00     0.027 C 
HETATM   14  H   UNL     1      39.117 -13.500   3.534  1.00  0.00     0.163 HD
ENDROOT
BRANCH   1  15
HETATM   15  C   UNL     1      41.569 -16.857   5.375  1.00  0.00     0.146 C 
BRANCH  15  16
HETATM   16  C   UNL     1      42.966 -16.783   5.940  1.00  0.00     0.224 C 
HETATM   17  N   UNL     1      44.011 -17.517   5.495  1.00  0.00    -0.327 N 
HETATM   18  H   UNL     1      44.894 -17.146   5.837  1.00  0.00     0.169 HD
HETATM   19  O   UNL     1      43.185 -15.905   6.791  1.00  0.00    -0.273 OA
BRANCH  17  20
HETATM   20  C   UNL     1      44.144 -18.674   4.704  1.00  0.00     0.035 A 
HETATM   21  C   UNL     1      44.472 -19.946   5.171  1.00  0.00     0.037 A 
HETATM   22  C   UNL     1      44.599 -21.040   4.290  1.00  0.00    -0.054 A 
HETATM   23  C   UNL     1      44.407 -20.849   2.909  1.00  0.00    -0.056 A 
HETATM   24  C   UNL     1      44.925 -22.401   4.848  1.00  0.00     0.049 C 
HETATM   25  C   UNL     1      44.551 -21.976   1.923  1.00  0.00     0.049 C 
HETATM   26  C   UNL     1      44.132 -19.562   2.438  1.00  0.00     0.009 A 
HETATM   27  C   UNL     1      44.006 -18.490   3.324  1.00  0.00     0.030 A 
ENDBRANCH  17  20
ENDBRANCH  15  16
ENDBRANCH   1  15
TORSDOF 3
ENDMDL
MODEL 3
REMARK VINA RESULT:      -8.2      2.720      3.824
REMARK  3 active torsions:
REMARK  status: ('A' for Active; 'I' for Inactive)
REMARK    1  A    between atoms: C_6  and  N_7 
REMARK       I    between atoms: N_7  and  C_8 
REMARK    2  A    between atoms: C_8  and  C_9 
REMARK    3  A    between atoms: C_9  and  C_10 
ROOT
HETATM    1  C   UNL     1      40.223 -16.500   2.156  1.00  0.00     0.286 C 
HETATM    2  N   UNL     1      39.644 -15.119   2.475  1.00  0.00    -0.056 N 
HETATM    3  H   UNL     1      39.009 -15.248   3.289  1.00  0.00     0.278 HD
HETATM    4  H   UNL     1      40.388 -14.485   2.790  1.00  0.00     0.278 HD
HETATM    5  C   UNL     1      38.910 -14.565   1.295  1.00  0.00     0.209 C 
HETATM    6  C   UNL     1      39.910 -14.423   0.125  1.00  0.00     0.115 C 
HETATM    7  N   UNL     1      40.639 -15.663  -0.143  1.00  0.00    -0.353 N 
HETATM    8  C   UNL     1      41.075 -16.493   0.870  1.00  0.00     0.249 C 
HETATM    9  O   UNL     1      42.027 -17.243   0.691  1.00  0.00    -0.271 OA
HETATM   10  C   UNL     1      38.282 -13.221   1.640  1.00  0.00     0.035 C 
HETATM   11  C   UNL     1      37.561 -12.656   0.415  1.00  0.00     0.002 C 
HETATM   12  C   UNL     1      38.472 -12.580  -0.814  1.00  0.00     0.002 C 
HETATM   13  C   UNL     1      39.177 -13.906  -1.113  1.00  0.00     0.027 C 
HETATM   14  H   UNL     1      41.253 -15.686  -0.956  1.00  0.00     0.163 HD
ENDROOT
BRANCH   1  15
HETATM   15  C   UNL     1      40.972 -17.054   3.371  1.00  0.00     0.146 C 
BRANCH  15  16
HETATM   16  C   UNL     1      42.309 -16.357   3.446  1.00  0.00     0.224 C 
HETATM   17  N   UNL     1      43.502 -16.993   3.466  1.00  0.00    -0.327 N 
HETATM   18  H   UNL     1      44.265 -16.349   3.274  1.00  0.00     0.169 HD
HETATM   19  O   UNL     1      42.304 -15.118   3.368  1.00  0.00    -0.273 OA
BRANCH  17  20
HETATM   20  C   UNL     1      43.917 -18.315   3.716  1.00  0.00     0.035 A 
HETATM   21  C   UNL     1      43.970 -19.343   2.775  1.00  0.00     0.037 A 
HETATM   22  C   UNL     1      44.384 -20.642   3.132  1.00  0.00    -0.054 A 
HETATM   23  C   UNL     1      44.737 -20.919   4.466  1.00  0.00    -0.056 A 
HETATM   24  C   UNL     1      44.453 -21.711   2.072  1.00  0.00     0.049 C 
HETATM   25  C   UNL     1      45.165 -22.293   4.906  1.00  0.00     0.049 C 
HETATM   26  C   UNL     1      44.630 -19.901   5.418  1.00  0.00     0.009 A 
HETATM   27  C   UNL     1      44.223 -18.618   5.047  1.00  0.00     0.030 A 
ENDBRANCH  17  20
ENDBRANCH  15  16
ENDBRANCH   1  15
TORSDOF 3
ENDMDL
MODEL 4
REMARK VINA RESULT:      -8.1      3.535      4.461
REMARK  3 active torsions:
REMARK  status: ('A' for Active; 'I' for Inactive)
REMARK    1  A    between atoms: C_6  and  N_7 
REMARK       I    between atoms: N_7  and  C_8 
REMARK    2  A    between atoms: C_8  and  C_9 
REMARK    3  A    between atoms: C_9  and  C_10 
ROOT
HETATM    1  C   UNL     1      40.935 -14.492   1.911  1.00  0.00     0.286 C 
HETATM    2  N   UNL     1      41.879 -13.715   0.991  1.00  0.00    -0.056 N 
HETATM    3  H   UNL     1      41.949 -12.754   1.385  1.00  0.00     0.278 HD
HETATM    4  H   UNL     1      42.826 -14.112   1.034  1.00  0.00     0.278 HD
HETATM    5  C   UNL     1      41.355 -13.690  -0.411  1.00  0.00     0.209 C 
HETATM    6  C   UNL     1      41.259 -15.147  -0.918  1.00  0.00     0.115 C 
HETATM    7  N   UNL     1      40.509 -16.009  -0.006  1.00  0.00    -0.353 N 
HETATM    8  C   UNL     1      40.616 -15.899   1.366  1.00  0.00     0.249 C 
HETATM    9  O   UNL     1      40.367 -16.858   2.087  1.00  0.00    -0.271 OA
HETATM   10  C   UNL     1      42.266 -12.861  -1.306  1.00  0.00     0.035 C 
HETATM   11  C   UNL     1      41.732 -12.871  -2.740  1.00  0.00     0.002 C 
HETATM   12  C   UNL     1      41.519 -14.290  -3.273  1.00  0.00     0.002 C 
HETATM   13  C   UNL     1      40.679 -15.158  -2.332  1.00  0.00     0.027 C 
HETATM   14  H   UNL     1      40.318 -16.965  -0.305  1.00  0.00     0.163 HD
ENDROOT
BRANCH   1  15
HETATM   15  C   UNL     1      41.484 -14.510   3.340  1.00  0.00     0.146 C 
BRANCH  15  16
HETATM   16  C   UNL     1      42.975 -14.290   3.264  1.00  0.00     0.224 C 
HETATM   17  N   UNL     1      43.871 -15.240   2.912  1.00  0.00    -0.327 N 
HETATM   18  H   UNL     1      44.775 -14.829   2.691  1.00  0.00     0.169 HD
HETATM   19  O   UNL     1      43.382 -13.128   3.426  1.00  0.00    -0.273 OA
BRANCH  17  20
HETATM   20  C   UNL     1      43.840 -16.643   2.813  1.00  0.00     0.035 A 
HETATM   21  C   UNL     1      43.927 -17.536   3.881  1.00  0.00     0.037 A 
HETATM   22  C   UNL     1      43.905 -18.931   3.674  1.00  0.00    -0.054 A 
HETATM   23  C   UNL     1      43.809 -19.439   2.365  1.00  0.00    -0.056 A 
HETATM   24  C   UNL     1      43.971 -19.853   4.863  1.00  0.00     0.049 C 
HETATM   25  C   UNL     1      43.802 -20.918   2.086  1.00  0.00     0.049 C 
HETATM   26  C   UNL     1      43.777 -18.543   1.293  1.00  0.00     0.009 A 
HETATM   27  C   UNL     1      43.796 -17.164   1.516  1.00  0.00     0.030 A 
ENDBRANCH  17  20
ENDBRANCH  15  16
ENDBRANCH   1  15
TORSDOF 3
ENDMDL
MODEL 5
REMARK VINA RESULT:      -8.0      3.915      8.164
REMARK  3 active torsions:
REMARK  status: ('A' for Active; 'I' for Inactive)
REMARK    1  A    between atoms: C_6  and  N_7 
REMARK       I    between atoms: N_7  and  C_8 
REMARK    2  A    between atoms: C_8  and  C_9 
REMARK    3  A    between atoms: C_9  and  C_10 
ROOT
HETATM    1  C   UNL     1      42.764 -17.866   2.234  1.00  0.00     0.286 C 
HETATM    2  N   UNL     1      43.486 -19.110   1.713  1.00  0.00    -0.056 N 
HETATM    3  H   UNL     1      42.907 -19.481   0.932  1.00  0.00     0.278 HD
HETATM    4  H   UNL     1      44.391 -18.851   1.301  1.00  0.00     0.278 HD
HETATM    5  C   UNL     1      43.646 -20.126   2.800  1.00  0.00     0.209 C 
HETATM    6  C   UNL     1      44.496 -19.498   3.929  1.00  0.00     0.115 C 
HETATM    7  N   UNL     1      43.967 -18.210   4.377  1.00  0.00    -0.353 N 
HETATM    8  C   UNL     1      43.432 -17.288   3.499  1.00  0.00     0.249 C 
HETATM    9  O   UNL     1      43.415 -16.097   3.783  1.00  0.00    -0.271 OA
HETATM   10  C   UNL     1      44.308 -21.386   2.259  1.00  0.00     0.035 C 
HETATM   11  C   UNL     1      44.491 -22.402   3.389  1.00  0.00     0.002 C 
HETATM   12  C   UNL     1      45.242 -21.813   4.586  1.00  0.00     0.002 C 
HETATM   13  C   UNL     1      44.635 -20.496   5.078  1.00  0.00     0.027 C 
HETATM   14  H   UNL     1      44.412 -17.768   5.180  1.00  0.00     0.163 HD
ENDROOT
BRANCH   1  15
HETATM   15  C   UNL     1      42.608 -16.835   1.112  1.00  0.00     0.146 C 
BRANCH  15  16
HETATM   16  C   UNL     1      41.132 -16.609   0.895  1.00  0.00     0.224 C 
HETATM   17  N   UNL     1      40.612 -15.835  -0.085  1.00  0.00    -0.327 N 
HETATM   18  H   UNL     1      39.618 -16.011  -0.204  1.00  0.00     0.169 HD
HETATM   19  O   UNL     1      40.350 -17.273   1.597  1.00  0.00    -0.273 OA
BRANCH  17  20
HETATM   20  C   UNL     1      41.125 -14.842  -0.939  1.00  0.00     0.035 A 
HETATM   21  C   UNL     1      41.686 -13.630  -0.534  1.00  0.00     0.037 A 
HETATM   22  C   UNL     1      42.157 -12.690  -1.473  1.00  0.00    -0.054 A 
HETATM   23  C   UNL     1      42.047 -12.965  -2.849  1.00  0.00    -0.056 A 
HETATM   24  C   UNL     1      42.781 -11.409  -0.983  1.00  0.00     0.049 C 
HETATM   25  C   UNL     1      42.514 -11.988  -3.894  1.00  0.00     0.049 C 
HETATM   26  C   UNL     1      41.436 -14.155  -3.253  1.00  0.00     0.009 A 
HETATM   27  C   UNL     1      40.979 -15.078  -2.310  1.00  0.00     0.030 A 
ENDBRANCH  17  20
ENDBRANCH  15  16
ENDBRANCH   1  15
TORSDOF 3
ENDMDL
MODEL 6
REMARK VINA RESULT:      -7.9      3.593      4.656
REMARK  3 active torsions:
REMARK  status: ('A' for Active; 'I' for Inactive)
REMARK    1  A    between atoms: C_6  and  N_7 
REMARK       I    between atoms: N_7  and  C_8 
REMARK    2  A    between atoms: C_8  and  C_9 
REMARK    3  A    between atoms: C_9  and  C_10 
ROOT
HETATM    1  C   UNL     1      40.925 -15.048   1.559  1.00  0.00     0.286 C 
HETATM    2  N   UNL     1      40.908 -15.847   0.254  1.00  0.00    -0.056 N 
HETATM    3  H   UNL     1      41.764 -16.438   0.260  1.00  0.00     0.278 HD
HETATM    4  H   UNL     1      40.111 -16.495   0.243  1.00  0.00     0.278 HD
HETATM    5  C   UNL     1      40.889 -14.931  -0.930  1.00  0.00     0.209 C 
HETATM    6  C   UNL     1      39.605 -14.073  -0.858  1.00  0.00     0.115 C 
HETATM    7  N   UNL     1      39.452 -13.401   0.431  1.00  0.00    -0.353 N 
HETATM    8  C   UNL     1      39.786 -14.010   1.624  1.00  0.00     0.249 C 
HETATM    9  O   UNL     1      39.261 -13.654   2.671  1.00  0.00    -0.271 OA
HETATM   10  C   UNL     1      40.938 -15.731  -2.224  1.00  0.00     0.035 C 
HETATM   11  C   UNL     1      40.887 -14.782  -3.423  1.00  0.00     0.002 C 
HETATM   12  C   UNL     1      39.688 -13.832  -3.365  1.00  0.00     0.002 C 
HETATM   13  C   UNL     1      39.581 -13.091  -2.029  1.00  0.00     0.027 C 
HETATM   14  H   UNL     1      38.681 -12.742   0.534  1.00  0.00     0.163 HD
ENDROOT
BRANCH   1  15
HETATM   15  C   UNL     1      40.943 -15.997   2.760  1.00  0.00     0.146 C 
BRANCH  15  16
HETATM   16  C   UNL     1      42.160 -15.668   3.590  1.00  0.00     0.224 C 
HETATM   17  N   UNL     1      43.259 -16.452   3.680  1.00  0.00    -0.327 N 
HETATM   18  H   UNL     1      44.041 -15.943   4.083  1.00  0.00     0.169 HD
HETATM   19  O   UNL     1      42.190 -14.550   4.129  1.00  0.00    -0.273 OA
BRANCH  17  20
HETATM   20  C   UNL     1      43.546 -17.795   3.372  1.00  0.00     0.035 A 
HETATM   21  C   UNL     1      44.081 -18.735   4.253  1.00  0.00     0.037 A 
HETATM   22  C   UNL     1      44.349 -20.056   3.840  1.00  0.00    -0.054 A 
HETATM   23  C   UNL     1      44.091 -20.437   2.510  1.00  0.00    -0.056 A 
HETATM   24  C   UNL     1      44.899 -21.042   4.838  1.00  0.00     0.049 C 
HETATM   25  C   UNL     1      44.379 -21.827   2.011  1.00  0.00     0.049 C 
HETATM   26  C   UNL     1      43.607 -19.478   1.615  1.00  0.00     0.009 A 
HETATM   27  C   UNL     1      43.341 -18.175   2.041  1.00  0.00     0.030 A 
ENDBRANCH  17  20
ENDBRANCH  15  16
ENDBRANCH   1  15
TORSDOF 3
ENDMDL
MODEL 7
REMARK VINA RESULT:      -7.8      5.318      9.138
REMARK  3 active torsions:
REMARK  status: ('A' for Active; 'I' for Inactive)
REMARK    1  A    between atoms: C_6  and  N_7 
REMARK       I    between atoms: N_7  and  C_8 
REMARK    2  A    between atoms: C_8  and  C_9 
REMARK    3  A    between atoms: C_9  and  C_10 
ROOT
HETATM    1  C   UNL     1      40.735 -15.532  -0.112  1.00  0.00     0.286 C 
HETATM    2  N   UNL     1      42.206 -15.941  -0.008  1.00  0.00    -0.056 N 
HETATM    3  H   UNL     1      42.501 -16.222  -0.965  1.00  0.00     0.278 HD
HETATM    4  H   UNL     1      42.784 -15.131   0.245  1.00  0.00     0.278 HD
HETATM    5  C   UNL     1      42.378 -17.065   0.966  1.00  0.00     0.209 C 
HETATM    6  C   UNL     1      41.900 -16.581   2.354  1.00  0.00     0.115 C 
HETATM    7  N   UNL     1      40.553 -16.013   2.316  1.00  0.00    -0.353 N 
HETATM    8  C   UNL     1      40.113 -15.230   1.268  1.00  0.00     0.249 C 
HETATM    9  O   UNL     1      39.210 -14.420   1.434  1.00  0.00    -0.271 OA
HETATM   10  C   UNL     1      43.834 -17.509   1.015  1.00  0.00     0.035 C 
HETATM   11  C   UNL     1      43.996 -18.637   2.036  1.00  0.00     0.002 C 
HETATM   12  C   UNL     1      43.451 -18.259   3.415  1.00  0.00     0.002 C 
HETATM   13  C   UNL     1      42.017 -17.725   3.361  1.00  0.00     0.027 C 
HETATM   14  H   UNL     1      40.123 -15.753   3.202  1.00  0.00     0.163 HD
ENDROOT
BRANCH   1  15
HETATM   15  C   UNL     1      40.574 -14.382  -1.109  1.00  0.00     0.146 C 
BRANCH  15  16
HETATM   16  C   UNL     1      41.337 -14.745  -2.359  1.00  0.00     0.224 C 
HETATM   17  N   UNL     1      42.163 -13.904  -3.023  1.00  0.00    -0.327 N 
HETATM   18  H   UNL     1      42.753 -14.409  -3.679  1.00  0.00     0.169 HD
HETATM   19  O   UNL     1      41.286 -15.930  -2.727  1.00  0.00    -0.273 OA
BRANCH  17  20
HETATM   20  C   UNL     1      42.362 -12.511  -3.027  1.00  0.00     0.035 A 
HETATM   21  C   UNL     1      42.941 -11.768  -1.999  1.00  0.00     0.037 A 
HETATM   22  C   UNL     1      43.080 -10.368  -2.094  1.00  0.00    -0.054 A 
HETATM   23  C   UNL     1      42.613  -9.698  -3.239  1.00  0.00    -0.056 A 
HETATM   24  C   UNL     1      43.740  -9.615  -0.967  1.00  0.00     0.049 C 
HETATM   25  C   UNL     1      42.716  -8.203  -3.383  1.00  0.00     0.049 C 
HETATM   26  C   UNL     1      41.983 -10.437  -4.244  1.00  0.00     0.009 A 
HETATM   27  C   UNL     1      41.858 -11.824  -4.137  1.00  0.00     0.030 A 
ENDBRANCH  17  20
ENDBRANCH  15  16
ENDBRANCH   1  15
TORSDOF 3
ENDMDL
MODEL 8
REMARK VINA RESULT:      -7.7      2.092      3.499
REMARK  3 active torsions:
REMARK  status: ('A' for Active; 'I' for Inactive)
REMARK    1  A    between atoms: C_6  and  N_7 
REMARK       I    between atoms: N_7  and  C_8 
REMARK    2  A    between atoms: C_8  and  C_9 
REMARK    3  A    between atoms: C_9  and  C_10 
ROOT
HETATM    1  C   UNL     1      40.956 -15.525   3.154  1.00  0.00     0.286 C 
HETATM    2  N   UNL     1      40.017 -14.360   2.834  1.00  0.00    -0.056 N 
HETATM    3  H   UNL     1      40.257 -14.045   1.872  1.00  0.00     0.278 HD
HETATM    4  H   UNL     1      39.044 -14.688   2.794  1.00  0.00     0.278 HD
HETATM    5  C   UNL     1      40.185 -13.253   3.827  1.00  0.00     0.209 C 
HETATM    6  C   UNL     1      39.833 -13.802   5.229  1.00  0.00     0.115 C 
HETATM    7  N   UNL     1      40.568 -15.024   5.553  1.00  0.00    -0.353 N 
HETATM    8  C   UNL     1      40.817 -16.004   4.614  1.00  0.00     0.249 C 
HETATM    9  O   UNL     1      41.011 -17.162   4.962  1.00  0.00    -0.271 OA
HETATM   10  C   UNL     1      39.294 -12.072   3.465  1.00  0.00     0.035 C 
HETATM   11  C   UNL     1      39.457 -10.963   4.506  1.00  0.00     0.002 C 
HETATM   12  C   UNL     1      39.217 -11.462   5.933  1.00  0.00     0.002 C 
HETATM   13  C   UNL     1      40.044 -12.706   6.273  1.00  0.00     0.027 C 
HETATM   14  H   UNL     1      40.466 -15.403   6.493  1.00  0.00     0.163 HD
ENDROOT
BRANCH   1  15
HETATM   15  C   UNL     1      40.773 -16.650   2.131  1.00  0.00     0.146 C 
BRANCH  15  16
HETATM   16  C   UNL     1      41.897 -16.551   1.130  1.00  0.00     0.224 C 
HETATM   17  N   UNL     1      42.925 -17.426   1.045  1.00  0.00    -0.327 N 
HETATM   18  H   UNL     1      43.427 -17.320   0.167  1.00  0.00     0.169 HD
HETATM   19  O   UNL     1      41.801 -15.671   0.259  1.00  0.00    -0.273 OA
BRANCH  17  20
HETATM   20  C   UNL     1      43.460 -18.411   1.896  1.00  0.00     0.035 A 
HETATM   21  C   UNL     1      43.604 -19.763   1.585  1.00  0.00     0.037 A 
HETATM   22  C   UNL     1      44.138 -20.677   2.518  1.00  0.00    -0.054 A 
HETATM   23  C   UNL     1      44.519 -20.225   3.795  1.00  0.00    -0.056 A 
HETATM   24  C   UNL     1      44.301 -22.122   2.123  1.00  0.00     0.049 C 
HETATM   25  C   UNL     1      45.074 -21.160   4.836  1.00  0.00     0.049 C 
HETATM   26  C   UNL     1      44.323 -18.881   4.123  1.00  0.00     0.009 A 
HETATM   27  C   UNL     1      43.797 -17.988   3.186  1.00  0.00     0.030 A 
ENDBRANCH  17  20
ENDBRANCH  15  16
ENDBRANCH   1  15
TORSDOF 3
ENDMDL
MODEL 9
REMARK VINA RESULT:      -7.4      4.072      7.442
REMARK  3 active torsions:
REMARK  status: ('A' for Active; 'I' for Inactive)
REMARK    1  A    between atoms: C_6  and  N_7 
REMARK       I    between atoms: N_7  and  C_8 
REMARK    2  A    between atoms: C_8  and  C_9 
REMARK    3  A    between atoms: C_9  and  C_10 
ROOT
HETATM    1  C   UNL     1      40.950 -16.458   2.894  1.00  0.00     0.286 C 
HETATM    2  N   UNL     1      42.113 -17.052   2.096  1.00  0.00    -0.056 N 
HETATM    3  H   UNL     1      41.749 -17.234   1.138  1.00  0.00     0.278 HD
HETATM    4  H   UNL     1      42.864 -16.359   1.990  1.00  0.00     0.278 HD
HETATM    5  C   UNL     1      42.610 -18.310   2.737  1.00  0.00     0.209 C 
HETATM    6  C   UNL     1      43.111 -17.964   4.158  1.00  0.00     0.115 C 
HETATM    7  N   UNL     1      42.114 -17.238   4.942  1.00  0.00    -0.353 N 
HETATM    8  C   UNL     1      41.299 -16.273   4.385  1.00  0.00     0.249 C 
HETATM    9  O   UNL     1      40.816 -15.389   5.083  1.00  0.00    -0.271 OA
HETATM   10  C   UNL     1      43.723 -18.929   1.902  1.00  0.00     0.035 C 
HETATM   11  C   UNL     1      44.240 -20.196   2.587  1.00  0.00     0.002 C 
HETATM   12  C   UNL     1      44.663 -19.945   4.036  1.00  0.00     0.002 C 
HETATM   13  C   UNL     1      43.580 -19.239   4.858  1.00  0.00     0.027 C 
HETATM   14  H   UNL     1      42.325 -17.050   5.921  1.00  0.00     0.163 HD
ENDROOT
BRANCH   1  15
HETATM   15  C   UNL     1      40.452 -15.172   2.228  1.00  0.00     0.146 C 
BRANCH  15  16
HETATM   16  C   UNL     1      41.630 -14.521   1.546  1.00  0.00     0.224 C 
HETATM   17  N   UNL     1      41.660 -14.173   0.239  1.00  0.00    -0.327 N 
HETATM   18  H   UNL     1      42.433 -13.541   0.044  1.00  0.00     0.169 HD
HETATM   19  O   UNL     1      42.584 -14.184   2.266  1.00  0.00    -0.273 OA
BRANCH  17  20
HETATM   20  C   UNL     1      40.892 -14.506  -0.893  1.00  0.00     0.035 A 
HETATM   21  C   UNL     1      39.704 -13.888  -1.280  1.00  0.00     0.037 A 
HETATM   22  C   UNL     1      38.998 -14.310  -2.426  1.00  0.00    -0.054 A 
HETATM   23  C   UNL     1      39.489 -15.385  -3.190  1.00  0.00    -0.056 A 
HETATM   24  C   UNL     1      37.734 -13.590  -2.819  1.00  0.00     0.049 C 
HETATM   25  C   UNL     1      38.765 -15.889  -4.409  1.00  0.00     0.049 C 
HETATM   26  C   UNL     1      40.651 -16.037  -2.769  1.00  0.00     0.009 A 
HETATM   27  C   UNL     1      41.340 -15.604  -1.634  1.00  0.00     0.030 A 
ENDBRANCH  17  20
ENDBRANCH  15  16
ENDBRANCH   1  15
TORSDOF 3
ENDMDL
MODEL 10
REMARK VINA RESULT:      -7.3      3.826      7.007
REMARK  3 active torsions:
REMARK  status: ('A' for Active; 'I' for Inactive)
REMARK    1  A    between atoms: C_6  and  N_7 
REMARK       I    between atoms: N_7  and  C_8 
REMARK    2  A    between atoms: C_8  and  C_9 
REMARK    3  A    between atoms: C_9  and  C_10 
ROOT
HETATM    1  C   UNL     1      43.491 -17.097   2.087  1.00  0.00     0.286 C 
HETATM    2  N   UNL     1      42.821 -16.016   2.939  1.00  0.00    -0.056 N 
HETATM    3  H   UNL     1      42.839 -15.143   2.373  1.00  0.00     0.278 HD
HETATM    4  H   UNL     1      41.829 -16.242   3.087  1.00  0.00     0.278 HD
HETATM    5  C   UNL     1      43.544 -15.838   4.237  1.00  0.00     0.209 C 
HETATM    6  C   UNL     1      43.494 -17.177   5.008  1.00  0.00     0.115 C 
HETATM    7  N   UNL     1      43.962 -18.304   4.203  1.00  0.00    -0.353 N 
HETATM    8  C   UNL     1      43.671 -18.421   2.859  1.00  0.00     0.249 C 
HETATM    9  O   UNL     1      43.663 -19.519   2.318  1.00  0.00    -0.271 OA
HETATM   10  C   UNL     1      42.911 -14.717   5.051  1.00  0.00     0.035 C 
HETATM   11  C   UNL     1      43.644 -14.568   6.385  1.00  0.00     0.002 C 
HETATM   12  C   UNL     1      43.717 -15.887   7.160  1.00  0.00     0.002 C 
HETATM   13  C   UNL     1      44.269 -17.041   6.318  1.00  0.00     0.027 C 
HETATM   14  H   UNL     1      44.049 -19.210   4.662  1.00  0.00     0.163 HD
ENDROOT
BRANCH   1  15
HETATM   15  C   UNL     1      42.739 -17.270   0.764  1.00  0.00     0.146 C 
BRANCH  15  16
HETATM   16  C   UNL     1      41.325 -16.788   0.971  1.00  0.00     0.224 C 
HETATM   17  N   UNL     1      40.718 -15.848   0.211  1.00  0.00    -0.327 N 
HETATM   18  H   UNL     1      39.712 -15.848   0.360  1.00  0.00     0.169 HD
HETATM   19  O   UNL     1      40.645 -17.383   1.824  1.00  0.00    -0.273 OA
BRANCH  17  20
HETATM   20  C   UNL     1      41.163 -14.871  -0.699  1.00  0.00     0.035 A 
HETATM   21  C   UNL     1      41.714 -13.635  -0.360  1.00  0.00     0.037 A 
HETATM   22  C   UNL     1      42.114 -12.715  -1.352  1.00  0.00    -0.054 A 
HETATM   23  C   UNL     1      41.942 -13.036  -2.711  1.00  0.00    -0.056 A 
HETATM   24  C   UNL     1      42.731 -11.405  -0.934  1.00  0.00     0.049 C 
HETATM   25  C   UNL     1      42.331 -12.083  -3.808  1.00  0.00     0.049 C 
HETATM   26  C   UNL     1      41.339 -14.252  -3.046  1.00  0.00     0.009 A 
HETATM   27  C   UNL     1      40.953 -15.155  -2.052  1.00  0.00     0.030 A 
ENDBRANCH  17  20
ENDBRANCH  15  16
ENDBRANCH   1  15
TORSDOF 3
ENDMDL
