MODEL 1
REMARK VINA RESULT:      -8.7      0.000      0.000
REMARK  3 active torsions:
REMARK  status: ('A' for Active; 'I' for Inactive)
REMARK    1  A    between atoms: C_6  and  N_7 
REMARK       I    between atoms: N_7  and  C_8 
REMARK    2  A    between atoms: C_8  and  C_9 
REMARK    3  A    between atoms: C_9  and  C_10 
ROOT
HETATM    1  C   UNL     1      43.472 -16.110   6.763  1.00  0.00     0.286 C 
HETATM    2  N   UNL     1      42.422 -16.382   5.674  1.00  0.00    -0.056 N 
HETATM    3  H   UNL     1      42.816 -17.098   5.032  1.00  0.00     0.278 HD
HETATM    4  H   UNL     1      41.583 -16.799   6.095  1.00  0.00     0.278 HD
HETATM    5  C   UNL     1      42.077 -15.219   4.782  1.00  0.00     0.209 C 
HETATM    6  C   UNL     1      41.954 -13.932   5.618  1.00  0.00     0.115 C 
HETATM    7  N   UNL     1      43.202 -13.670   6.310  1.00  0.00    -0.353 N 
HETATM    8  C   UNL     1      43.954 -14.650   6.900  1.00  0.00     0.249 C 
HETATM    9  O   UNL     1      44.945 -14.343   7.555  1.00  0.00    -0.271 OA
HETATM   10  C   UNL     1      40.794 -15.531   4.019  1.00  0.00     0.035 C 
HETATM   11  C   UNL     1      40.401 -14.353   3.130  1.00  0.00     0.002 C 
HETATM   12  C   UNL     1      40.293 -13.052   3.926  1.00  0.00     0.002 C 
HETATM   13  C   UNL     1      41.563 -12.754   4.721  1.00  0.00     0.027 C 
HETATM   14  H   UNL     1      43.491 -12.717   6.520  1.00  0.00     0.163 HD
ENDROOT
BRANCH   1  15
HETATM   15  C   UNL     1      44.654 -17.090   6.689  1.00  0.00     0.146 C 
BRANCH  15  16
HETATM   16  C   UNL     1      44.325 -18.388   7.383  1.00  0.00     0.224 C 
HETATM   17  N   UNL     1      44.321 -19.605   6.796  1.00  0.00    -0.327 N 
HETATM   18  H   UNL     1      44.305 -20.348   7.490  1.00  0.00     0.169 HD
HETATM   19  O   UNL     1      44.162 -18.336   8.613  1.00  0.00    -0.273 OA
BRANCH  17  20
HETATM   20  C   UNL     1      44.322 -20.063   5.466  1.00  0.00     0.035 A 
HETATM   21  C   UNL     1      43.972 -19.311   4.349  1.00  0.00     0.037 A 
HETATM   22  C   UNL     1      43.990 -19.869   3.053  1.00  0.00    -0.054 A 
HETATM   23  C   UNL     1      44.360 -21.214   2.879  1.00  0.00    -0.056 A 
HETATM   24  C   UNL     1      43.623 -19.002   1.876  1.00  0.00     0.049 C 
HETATM   25  C   UNL     1      44.391 -21.857   1.520  1.00  0.00     0.049 C 
HETATM   26  C   UNL     1      44.665 -21.982   4.007  1.00  0.00     0.009 A 
HETATM   27  C   UNL     1      44.641 -21.414   5.284  1.00  0.00     0.030 A 
ENDBRANCH  17  20
ENDBRANCH  15  16
ENDBRANCH   1  15
TORSDOF 3
ENDMDL
MODEL 2
REMARK VINA RESULT:      -8.7      3.835      5.216
REMARK  3 active torsions:
REMARK  status: ('A' for Active; 'I' for Inactive)
REMARK    1  A    between atoms: C_6  and  N_7 
REMARK       I    between atoms: N_7  and  C_8 
REMARK    2  A    between atoms: C_8  and  C_9 
REMARK    3  A    between atoms: C_9  and  C_10 
ROOT
HETATM    1  C   UNL     1      40.269 -16.092   1.745  1.00  0.00     0.286 C 
HETATM    2  N   UNL     1      40.823 -16.340   0.334  1.00  0.00    -0.056 N 
HETATM    3  H   UNL     1      41.814 -16.641   0.435  1.00  0.00     0.278 HD
HETATM    4  H   UNL     1      40.324 -17.125  -0.104  1.00  0.00     0.278 HD
HETATM    5  C   UNL     1      40.880 -15.141  -0.575  1.00  0.00     0.209 C 
HETATM    6  C   UNL     1      39.596 -14.305  -0.425  1.00  0.00     0.115 C 
HETATM    7  N   UNL     1      39.445 -13.874   0.952  1.00  0.00    -0.353 N 
HETATM    8  C   UNL     1      39.717 -14.679   2.026  1.00  0.00     0.249 C 
HETATM    9  O   UNL     1      39.469 -14.282   3.161  1.00  0.00    -0.271 OA
HETATM   10  C   UNL     1      41.095 -15.606  -2.011  1.00  0.00     0.035 C 
HETATM   11  C   UNL     1      41.123 -14.410  -2.962  1.00  0.00     0.002 C 
HETATM   12  C   UNL     1      39.872 -13.544  -2.821  1.00  0.00     0.002 C 
HETATM   13  C   UNL     1      39.631 -13.107  -1.377  1.00  0.00     0.027 C 
HETATM   14  H   UNL     1      38.977 -12.997   1.176  1.00  0.00     0.163 HD
ENDROOT
BRANCH   1  15
HETATM   15  C   UNL     1      41.248 -16.543   2.842  1.00  0.00     0.146 C 
BRANCH  15  16
HETATM   16  C   UNL     1      42.661 -16.135   2.508  1.00  0.00     0.224 C 
HETATM   17  N   UNL     1      43.720 -16.973   2.454  1.00  0.00    -0.327 N 
HETATM   18  H   UNL     1      44.511 -16.535   1.987  1.00  0.00     0.169 HD
HETATM   19  O   UNL     1      42.829 -14.961   2.142  1.00  0.00    -0.273 OA
BRANCH  17  20
HETATM   20  C   UNL     1      43.971 -18.283   2.900  1.00  0.00     0.035 A 
HETATM   21  C   UNL     1      43.967 -19.425   2.105  1.00  0.00     0.037 A 
HETATM   22  C   UNL     1      44.215 -20.702   2.652  1.00  0.00    -0.054 A 
HETATM   23  C   UNL     1      44.465 -20.832   4.028  1.00  0.00    -0.056 A 
HETATM   24  C   UNL     1      44.221 -21.901   1.740  1.00  0.00     0.049 C 
HETATM   25  C   UNL     1      44.732 -22.170   4.662  1.00  0.00     0.049 C 
HETATM   26  C   UNL     1      44.422 -19.690   4.835  1.00  0.00     0.009 A 
HETATM   27  C   UNL     1      44.173 -18.434   4.277  1.00  0.00     0.030 A 
ENDBRANCH  17  20
ENDBRANCH  15  16
ENDBRANCH   1  15
TORSDOF 3
ENDMDL
MODEL 3
REMARK VINA RESULT:      -8.7      2.391      4.350
REMARK  3 active torsions:
REMARK  status: ('A' for Active; 'I' for Inactive)
REMARK    1  A    between atoms: C_6  and  N_7 
REMARK       I    between atoms: N_7  and  C_8 
REMARK    2  A    between atoms: C_8  and  C_9 
REMARK    3  A    between atoms: C_9  and  C_10 
ROOT
HETATM    1  C   UNL     1      41.060 -16.039   3.989  1.00  0.00     0.286 C 
HETATM    2  N   UNL     1      42.098 -14.908   4.037  1.00  0.00    -0.056 N 
HETATM    3  H   UNL     1      42.577 -14.884   3.115  1.00  0.00     0.278 HD
HETATM    4  H   UNL     1      41.624 -14.003   4.143  1.00  0.00     0.278 HD
HETATM    5  C   UNL     1      43.210 -15.073   5.039  1.00  0.00     0.209 C 
HETATM    6  C   UNL     1      42.647 -15.612   6.367  1.00  0.00     0.115 C 
HETATM    7  N   UNL     1      41.990 -16.886   6.145  1.00  0.00    -0.353 N 
HETATM    8  C   UNL     1      41.201 -17.145   5.056  1.00  0.00     0.249 C 
HETATM    9  O   UNL     1      40.595 -18.210   4.985  1.00  0.00    -0.271 OA
HETATM   10  C   UNL     1      43.928 -13.740   5.222  1.00  0.00     0.035 C 
HETATM   11  C   UNL     1      45.041 -13.869   6.260  1.00  0.00     0.002 C 
HETATM   12  C   UNL     1      44.520 -14.425   7.584  1.00  0.00     0.002 C 
HETATM   13  C   UNL     1      43.767 -15.742   7.402  1.00  0.00     0.027 C 
HETATM   14  H   UNL     1      41.965 -17.594   6.876  1.00  0.00     0.163 HD
ENDROOT
BRANCH   1  15
HETATM   15  C   UNL     1      40.910 -16.632   2.579  1.00  0.00     0.146 C 
BRANCH  15  16
HETATM   16  C   UNL     1      42.131 -16.348   1.740  1.00  0.00     0.224 C 
HETATM   17  N   UNL     1      43.178 -17.187   1.581  1.00  0.00    -0.327 N 
HETATM   18  H   UNL     1      43.764 -16.900   0.801  1.00  0.00     0.169 HD
HETATM   19  O   UNL     1      42.107 -15.313   1.054  1.00  0.00    -0.273 OA
BRANCH  17  20
HETATM   20  C   UNL     1      43.634 -18.339   2.247  1.00  0.00     0.035 A 
HETATM   21  C   UNL     1      43.654 -19.627   1.719  1.00  0.00     0.037 A 
HETATM   22  C   UNL     1      44.117 -20.724   2.475  1.00  0.00    -0.054 A 
HETATM   23  C   UNL     1      44.562 -20.521   3.793  1.00  0.00    -0.056 A 
HETATM   24  C   UNL     1      44.137 -22.093   1.845  1.00  0.00     0.049 C 
HETATM   25  C   UNL     1      45.062 -21.658   4.643  1.00  0.00     0.049 C 
HETATM   26  C   UNL     1      44.497 -19.236   4.339  1.00  0.00     0.009 A 
HETATM   27  C   UNL     1      44.034 -18.161   3.576  1.00  0.00     0.030 A 
ENDBRANCH  17  20
ENDBRANCH  15  16
ENDBRANCH   1  15
TORSDOF 3
ENDMDL
MODEL 4
REMARK VINA RESULT:      -8.5      2.763      4.221
REMARK  3 active torsions:
REMARK  status: ('A' for Active; 'I' for Inactive)
REMARK    1  A    between atoms: C_6  and  N_7 
REMARK       I    between atoms: N_7  and  C_8 
REMARK    2  A    between atoms: C_8  and  C_9 
REMARK    3  A    between atoms: C_9  and  C_10 
ROOT
HETATM    1  C   UNL     1      41.040 -15.466   3.145  1.00  0.00     0.286 C 
HETATM    2  N   UNL     1      40.674 -14.023   3.523  1.00  0.00    -0.056 N 
HETATM    3  H   UNL     1      40.532 -13.996   4.553  1.00  0.00     0.278 HD
HETATM    4  H   UNL     1      41.465 -13.398   3.322  1.00  0.00     0.278 HD
HETATM    5  C   UNL     1      39.388 -13.493   2.947  1.00  0.00     0.209 C 
HETATM    6  C   UNL     1      39.253 -13.925   1.475  1.00  0.00     0.115 C 
HETATM    7  N   UNL     1      39.278 -15.373   1.380  1.00  0.00    -0.353 N 
HETATM    8  C   UNL     1      40.119 -16.160   2.119  1.00  0.00     0.249 C 
HETATM    9  O   UNL     1      40.157 -17.370   1.913  1.00  0.00    -0.271 OA
HETATM   10  C   UNL     1      39.350 -11.977   3.104  1.00  0.00     0.035 C 
HETATM   11  C   UNL     1      38.069 -11.408   2.496  1.00  0.00     0.002 C 
HETATM   12  C   UNL     1      37.891 -11.838   1.040  1.00  0.00     0.002 C 
HETATM   13  C   UNL     1      37.966 -13.355   0.873  1.00  0.00     0.027 C 
HETATM   14  H   UNL     1      38.772 -15.855   0.639  1.00  0.00     0.163 HD
ENDROOT
BRANCH   1  15
HETATM   15  C   UNL     1      41.275 -16.350   4.381  1.00  0.00     0.146 C 
BRANCH  15  16
HETATM   16  C   UNL     1      42.667 -16.157   4.927  1.00  0.00     0.224 C 
HETATM   17  N   UNL     1      43.732 -16.938   4.639  1.00  0.00    -0.327 N 
HETATM   18  H   UNL     1      44.601 -16.493   4.922  1.00  0.00     0.169 HD
HETATM   19  O   UNL     1      42.865 -15.131   5.599  1.00  0.00    -0.273 OA
BRANCH  17  20
HETATM   20  C   UNL     1      43.901 -18.207   4.057  1.00  0.00     0.035 A 
HETATM   21  C   UNL     1      44.345 -19.349   4.717  1.00  0.00     0.037 A 
HETATM   22  C   UNL     1      44.498 -20.576   4.038  1.00  0.00    -0.054 A 
HETATM   23  C   UNL     1      44.206 -20.654   2.666  1.00  0.00    -0.056 A 
HETATM   24  C   UNL     1      44.961 -21.787   4.808  1.00  0.00     0.049 C 
HETATM   25  C   UNL     1      44.356 -21.937   1.895  1.00  0.00     0.049 C 
HETATM   26  C   UNL     1      43.806 -19.495   1.993  1.00  0.00     0.009 A 
HETATM   27  C   UNL     1      43.661 -18.287   2.680  1.00  0.00     0.030 A 
ENDBRANCH  17  20
ENDBRANCH  15  16
ENDBRANCH   1  15
TORSDOF 3
ENDMDL
MODEL 5
REMARK VINA RESULT:      -8.3      1.874      2.617
REMARK  3 active torsions:
REMARK  status: ('A' for Active; 'I' for Inactive)
REMARK    1  A    between atoms: C_6  and  N_7 
REMARK       I    between atoms: N_7  and  C_8 
REMARK    2  A    between atoms: C_8  and  C_9 
REMARK    3  A    between atoms: C_9  and  C_10 
ROOT
HETATM    1  C   UNL     1      41.888 -15.806   5.629  1.00  0.00     0.286 C 
HETATM    2  N   UNL     1      41.651 -14.429   6.268  1.00  0.00    -0.056 N 
HETATM    3  H   UNL     1      41.420 -14.585   7.270  1.00  0.00     0.278 HD
HETATM    4  H   UNL     1      42.520 -13.882   6.251  1.00  0.00     0.278 HD
HETATM    5  C   UNL     1      40.488 -13.640   5.728  1.00  0.00     0.209 C 
HETATM    6  C   UNL     1      40.439 -13.758   4.193  1.00  0.00     0.115 C 
HETATM    7  N   UNL     1      40.312 -15.151   3.808  1.00  0.00    -0.353 N 
HETATM    8  C   UNL     1      40.992 -16.167   4.425  1.00  0.00     0.249 C 
HETATM    9  O   UNL     1      40.914 -17.308   3.980  1.00  0.00    -0.271 OA
HETATM   10  C   UNL     1      40.603 -12.191   6.187  1.00  0.00     0.035 C 
HETATM   11  C   UNL     1      39.453 -11.358   5.624  1.00  0.00     0.002 C 
HETATM   12  C   UNL     1      39.360 -11.472   4.103  1.00  0.00     0.002 C 
HETATM   13  C   UNL     1      39.282 -12.924   3.636  1.00  0.00     0.027 C 
HETATM   14  H   UNL     1      39.825 -15.413   2.952  1.00  0.00     0.163 HD
ENDROOT
BRANCH   1  15
HETATM   15  C   UNL     1      41.912 -16.935   6.672  1.00  0.00     0.146 C 
BRANCH  15  16
HETATM   16  C   UNL     1      43.311 -17.172   7.181  1.00  0.00     0.224 C 
HETATM   17  N   UNL     1      44.285 -17.823   6.506  1.00  0.00    -0.327 N 
HETATM   18  H   UNL     1      45.196 -17.661   6.928  1.00  0.00     0.169 HD
HETATM   19  O   UNL     1      43.615 -16.622   8.252  1.00  0.00    -0.273 OA
BRANCH  17  20
HETATM   20  C   UNL     1      44.317 -18.665   5.381  1.00  0.00     0.035 A 
HETATM   21  C   UNL     1      44.015 -18.288   4.076  1.00  0.00     0.037 A 
HETATM   22  C   UNL     1      44.060 -19.215   3.014  1.00  0.00    -0.054 A 
HETATM   23  C   UNL     1      44.409 -20.552   3.272  1.00  0.00    -0.056 A 
HETATM   24  C   UNL     1      43.746 -18.746   1.617  1.00  0.00     0.049 C 
HETATM   25  C   UNL     1      44.469 -21.581   2.175  1.00  0.00     0.049 C 
HETATM   26  C   UNL     1      44.666 -20.941   4.590  1.00  0.00     0.009 A 
HETATM   27  C   UNL     1      44.615 -20.010   5.630  1.00  0.00     0.030 A 
ENDBRANCH  17  20
ENDBRANCH  15  16
ENDBRANCH   1  15
TORSDOF 3
ENDMDL
MODEL 6
REMARK VINA RESULT:      -8.3      2.566      6.656
REMARK  3 active torsions:
REMARK  status: ('A' for Active; 'I' for Inactive)
REMARK    1  A    between atoms: C_6  and  N_7 
REMARK       I    between atoms: N_7  and  C_8 
REMARK    2  A    between atoms: C_8  and  C_9 
REMARK    3  A    between atoms: C_9  and  C_10 
ROOT
HETATM    1  C   UNL     1      43.767 -17.364   4.220  1.00  0.00     0.286 C 
HETATM    2  N   UNL     1      43.554 -18.195   2.945  1.00  0.00    -0.056 N 
HETATM    3  H   UNL     1      42.604 -17.977   2.584  1.00  0.00     0.278 HD
HETATM    4  H   UNL     1      44.217 -17.896   2.219  1.00  0.00     0.278 HD
HETATM    5  C   UNL     1      43.560 -19.691   3.121  1.00  0.00     0.209 C 
HETATM    6  C   UNL     1      44.685 -20.102   4.089  1.00  0.00     0.115 C 
HETATM    7  N   UNL     1      44.493 -19.455   5.374  1.00  0.00    -0.353 N 
HETATM    8  C   UNL     1      44.089 -18.153   5.507  1.00  0.00     0.249 C 
HETATM    9  O   UNL     1      44.047 -17.641   6.621  1.00  0.00    -0.271 OA
HETATM   10  C   UNL     1      43.706 -20.359   1.759  1.00  0.00     0.035 C 
HETATM   11  C   UNL     1      43.750 -21.879   1.910  1.00  0.00     0.002 C 
HETATM   12  C   UNL     1      44.840 -22.321   2.885  1.00  0.00     0.002 C 
HETATM   13  C   UNL     1      44.721 -21.626   4.240  1.00  0.00     0.027 C 
HETATM   14  H   UNL     1      44.804 -19.902   6.234  1.00  0.00     0.163 HD
ENDROOT
BRANCH   1  15
HETATM   15  C   UNL     1      42.634 -16.351   4.449  1.00  0.00     0.146 C 
BRANCH  15  16
HETATM   16  C   UNL     1      41.283 -17.009   4.318  1.00  0.00     0.224 C 
HETATM   17  N   UNL     1      40.493 -16.952   3.223  1.00  0.00    -0.327 N 
HETATM   18  H   UNL     1      39.755 -17.650   3.266  1.00  0.00     0.169 HD
HETATM   19  O   UNL     1      40.934 -17.754   5.248  1.00  0.00    -0.273 OA
BRANCH  17  20
HETATM   20  C   UNL     1      40.459 -16.153   2.066  1.00  0.00     0.035 A 
HETATM   21  C   UNL     1      39.661 -15.028   1.881  1.00  0.00     0.037 A 
HETATM   22  C   UNL     1      39.686 -14.300   0.673  1.00  0.00    -0.054 A 
HETATM   23  C   UNL     1      40.527 -14.718  -0.373  1.00  0.00    -0.056 A 
HETATM   24  C   UNL     1      38.818 -13.076   0.536  1.00  0.00     0.049 C 
HETATM   25  C   UNL     1      40.588 -13.979  -1.683  1.00  0.00     0.049 C 
HETATM   26  C   UNL     1      41.292 -15.876  -0.205  1.00  0.00     0.009 A 
HETATM   27  C   UNL     1      41.253 -16.586   0.998  1.00  0.00     0.030 A 
ENDBRANCH  17  20
ENDBRANCH  15  16
ENDBRANCH   1  15
TORSDOF 3
ENDMDL
MODEL 7
REMARK VINA RESULT:      -8.3      1.360      6.211
REMARK  3 active torsions:
REMARK  status: ('A' for Active; 'I' for Inactive)
REMARK    1  A    between atoms: C_6  and  N_7 
REMARK       I    between atoms: N_7  and  C_8 
REMARK    2  A    between atoms: C_8  and  C_9 
REMARK    3  A    between atoms: C_9  and  C_10 
ROOT
HETATM    1  C   UNL     1      44.250 -17.792   5.886  1.00  0.00     0.286 C 
HETATM    2  N   UNL     1      44.050 -17.908   4.367  1.00  0.00    -0.056 N 
HETATM    3  H   UNL     1      43.213 -17.343   4.118  1.00  0.00     0.278 HD
HETATM    4  H   UNL     1      44.845 -17.481   3.877  1.00  0.00     0.278 HD
HETATM    5  C   UNL     1      43.749 -19.287   3.843  1.00  0.00     0.209 C 
HETATM    6  C   UNL     1      44.640 -20.325   4.550  1.00  0.00     0.115 C 
HETATM    7  N   UNL     1      44.411 -20.280   5.982  1.00  0.00    -0.353 N 
HETATM    8  C   UNL     1      44.248 -19.115   6.681  1.00  0.00     0.249 C 
HETATM    9  O   UNL     1      44.160 -19.147   7.905  1.00  0.00    -0.271 OA
HETATM   10  C   UNL     1      43.939 -19.305   2.331  1.00  0.00     0.035 C 
HETATM   11  C   UNL     1      43.674 -20.703   1.774  1.00  0.00     0.002 C 
HETATM   12  C   UNL     1      44.526 -21.763   2.472  1.00  0.00     0.002 C 
HETATM   13  C   UNL     1      44.367 -21.724   3.991  1.00  0.00     0.027 C 
HETATM   14  H   UNL     1      44.518 -21.117   6.553  1.00  0.00     0.163 HD
ENDROOT
BRANCH   1  15
HETATM   15  C   UNL     1      43.310 -16.752   6.519  1.00  0.00     0.146 C 
BRANCH  15  16
HETATM   16  C   UNL     1      43.770 -15.349   6.212  1.00  0.00     0.224 C 
HETATM   17  N   UNL     1      43.144 -14.491   5.377  1.00  0.00    -0.327 N 
HETATM   18  H   UNL     1      43.486 -13.542   5.501  1.00  0.00     0.169 HD
HETATM   19  O   UNL     1      44.730 -14.920   6.873  1.00  0.00    -0.273 OA
BRANCH  17  20
HETATM   20  C   UNL     1      42.154 -14.617   4.386  1.00  0.00     0.035 A 
HETATM   21  C   UNL     1      42.369 -15.017   3.070  1.00  0.00     0.037 A 
HETATM   22  C   UNL     1      41.308 -15.097   2.144  1.00  0.00    -0.054 A 
HETATM   23  C   UNL     1      40.005 -14.759   2.548  1.00  0.00    -0.056 A 
HETATM   24  C   UNL     1      41.596 -15.558   0.738  1.00  0.00     0.049 C 
HETATM   25  C   UNL     1      38.840 -14.823   1.597  1.00  0.00     0.049 C 
HETATM   26  C   UNL     1      39.797 -14.312   3.856  1.00  0.00     0.009 A 
HETATM   27  C   UNL     1      40.860 -14.237   4.760  1.00  0.00     0.030 A 
ENDBRANCH  17  20
ENDBRANCH  15  16
ENDBRANCH   1  15
TORSDOF 3
ENDMDL
MODEL 8
REMARK VINA RESULT:      -8.3      4.369      6.019
REMARK  3 active torsions:
REMARK  status: ('A' for Active; 'I' for Inactive)
REMARK    1  A    between atoms: C_6  and  N_7 
REMARK       I    between atoms: N_7  and  C_8 
REMARK    2  A    between atoms: C_8  and  C_9 
REMARK    3  A    between atoms: C_9  and  C_10 
ROOT
HETATM    1  C   UNL     1      40.788 -15.051   1.054  1.00  0.00     0.286 C 
HETATM    2  N   UNL     1      41.785 -14.434   0.061  1.00  0.00    -0.056 N 
HETATM    3  H   UNL     1      42.462 -13.866   0.609  1.00  0.00     0.278 HD
HETATM    4  H   UNL     1      42.330 -15.178  -0.394  1.00  0.00     0.278 HD
HETATM    5  C   UNL     1      41.209 -13.474  -0.945  1.00  0.00     0.209 C 
HETATM    6  C   UNL     1      39.872 -14.015  -1.485  1.00  0.00     0.115 C 
HETATM    7  N   UNL     1      38.938 -14.204  -0.391  1.00  0.00    -0.353 N 
HETATM    8  C   UNL     1      39.298 -14.717   0.826  1.00  0.00     0.249 C 
HETATM    9  O   UNL     1      38.436 -14.944   1.670  1.00  0.00    -0.271 OA
HETATM   10  C   UNL     1      42.223 -13.241  -2.060  1.00  0.00     0.035 C 
HETATM   11  C   UNL     1      41.651 -12.295  -3.115  1.00  0.00     0.002 C 
HETATM   12  C   UNL     1      40.310 -12.791  -3.654  1.00  0.00     0.002 C 
HETATM   13  C   UNL     1      39.302 -13.061  -2.538  1.00  0.00     0.027 C 
HETATM   14  H   UNL     1      37.935 -14.105  -0.539  1.00  0.00     0.163 HD
ENDROOT
BRANCH   1  15
HETATM   15  C   UNL     1      41.202 -14.815   2.516  1.00  0.00     0.146 C 
BRANCH  15  16
HETATM   16  C   UNL     1      42.674 -14.503   2.618  1.00  0.00     0.224 C 
HETATM   17  N   UNL     1      43.670 -15.412   2.526  1.00  0.00    -0.327 N 
HETATM   18  H   UNL     1      44.569 -14.958   2.387  1.00  0.00     0.169 HD
HETATM   19  O   UNL     1      42.986 -13.302   2.673  1.00  0.00    -0.273 OA
BRANCH  17  20
HETATM   20  C   UNL     1      43.739 -16.815   2.589  1.00  0.00     0.035 A 
HETATM   21  C   UNL     1      43.907 -17.567   3.748  1.00  0.00     0.037 A 
HETATM   22  C   UNL     1      43.983 -18.975   3.706  1.00  0.00    -0.054 A 
HETATM   23  C   UNL     1      43.895 -19.639   2.470  1.00  0.00    -0.056 A 
HETATM   24  C   UNL     1      44.141 -19.740   4.994  1.00  0.00     0.049 C 
HETATM   25  C   UNL     1      43.974 -21.139   2.370  1.00  0.00     0.049 C 
HETATM   26  C   UNL     1      43.776 -18.880   1.302  1.00  0.00     0.009 A 
HETATM   27  C   UNL     1      43.704 -17.486   1.362  1.00  0.00     0.030 A 
ENDBRANCH  17  20
ENDBRANCH  15  16
ENDBRANCH   1  15
TORSDOF 3
ENDMDL
MODEL 9
REMARK VINA RESULT:      -8.0      4.182      7.442
REMARK  3 active torsions:
REMARK  status: ('A' for Active; 'I' for Inactive)
REMARK    1  A    between atoms: C_6  and  N_7 
REMARK       I    between atoms: N_7  and  C_8 
REMARK    2  A    between atoms: C_8  and  C_9 
REMARK    3  A    between atoms: C_9  and  C_10 
ROOT
HETATM    1  C   UNL     1      42.733 -15.940   2.903  1.00  0.00     0.286 C 
HETATM    2  N   UNL     1      43.128 -17.182   2.090  1.00  0.00    -0.056 N 
HETATM    3  H   UNL     1      42.347 -17.388   1.435  1.00  0.00     0.278 HD
HETATM    4  H   UNL     1      43.948 -16.973   1.509  1.00  0.00     0.278 HD
HETATM    5  C   UNL     1      43.312 -18.455   2.874  1.00  0.00     0.209 C 
HETATM    6  C   UNL     1      44.066 -18.162   4.184  1.00  0.00     0.115 C 
HETATM    7  N   UNL     1      43.327 -17.197   4.976  1.00  0.00    -0.353 N 
HETATM    8  C   UNL     1      42.698 -16.107   4.437  1.00  0.00     0.249 C 
HETATM    9  O   UNL     1      42.178 -15.278   5.178  1.00  0.00    -0.271 OA
HETATM   10  C   UNL     1      44.040 -19.479   2.011  1.00  0.00     0.035 C 
HETATM   11  C   UNL     1      44.272 -20.770   2.793  1.00  0.00     0.002 C 
HETATM   12  C   UNL     1      44.999 -20.512   4.112  1.00  0.00     0.002 C 
HETATM   13  C   UNL     1      44.292 -19.459   4.965  1.00  0.00     0.027 C 
HETATM   14  H   UNL     1      43.378 -17.209   5.993  1.00  0.00     0.163 HD
ENDROOT
BRANCH   1  15
HETATM   15  C   UNL     1      41.445 -15.285   2.377  1.00  0.00     0.146 C 
BRANCH  15  16
HETATM   16  C   UNL     1      40.741 -16.188   1.396  1.00  0.00     0.224 C 
HETATM   17  N   UNL     1      40.788 -16.063   0.051  1.00  0.00    -0.327 N 
HETATM   18  H   UNL     1      40.444 -16.902  -0.408  1.00  0.00     0.169 HD
HETATM   19  O   UNL     1      40.174 -17.188   1.867  1.00  0.00    -0.273 OA
BRANCH  17  20
HETATM   20  C   UNL     1      41.189 -15.048  -0.836  1.00  0.00     0.035 A 
HETATM   21  C   UNL     1      41.736 -13.821  -0.471  1.00  0.00     0.037 A 
HETATM   22  C   UNL     1      42.092 -12.859  -1.439  1.00  0.00    -0.054 A 
HETATM   23  C   UNL     1      41.885 -13.133  -2.801  1.00  0.00    -0.056 A 
HETATM   24  C   UNL     1      42.702 -11.557  -0.988  1.00  0.00     0.049 C 
HETATM   25  C   UNL     1      42.243 -12.139  -3.873  1.00  0.00     0.049 C 
HETATM   26  C   UNL     1      41.290 -14.345  -3.164  1.00  0.00     0.009 A 
HETATM   27  C   UNL     1      40.943 -15.287  -2.193  1.00  0.00     0.030 A 
ENDBRANCH  17  20
ENDBRANCH  15  16
ENDBRANCH   1  15
TORSDOF 3
ENDMDL
MODEL 10
REMARK VINA RESULT:      -7.8      4.911      6.254
REMARK  3 active torsions:
REMARK  status: ('A' for Active; 'I' for Inactive)
REMARK    1  A    between atoms: C_6  and  N_7 
REMARK       I    between atoms: N_7  and  C_8 
REMARK    2  A    between atoms: C_8  and  C_9 
REMARK    3  A    between atoms: C_9  and  C_10 
ROOT
HETATM    1  C   UNL     1      41.238 -13.905   0.200  1.00  0.00     0.286 C 
HETATM    2  N   UNL     1      41.117 -13.885  -1.332  1.00  0.00    -0.056 N 
HETATM    3  H   UNL     1      41.436 -14.811  -1.682  1.00  0.00     0.278 HD
HETATM    4  H   UNL     1      40.131 -13.794  -1.603  1.00  0.00     0.278 HD
HETATM    5  C   UNL     1      41.985 -12.887  -2.051  1.00  0.00     0.209 C 
HETATM    6  C   UNL     1      41.983 -11.546  -1.295  1.00  0.00     0.115 C 
HETATM    7  N   UNL     1      42.470 -11.739   0.058  1.00  0.00    -0.353 N 
HETATM    8  C   UNL     1      42.133 -12.817   0.831  1.00  0.00     0.249 C 
HETATM    9  O   UNL     1      42.501 -12.864   2.001  1.00  0.00    -0.271 OA
HETATM   10  C   UNL     1      41.497 -12.735  -3.487  1.00  0.00     0.035 C 
HETATM   11  C   UNL     1      42.339 -11.701  -4.233  1.00  0.00     0.002 C 
HETATM   12  C   UNL     1      42.378 -10.363  -3.496  1.00  0.00     0.002 C 
HETATM   13  C   UNL     1      42.832 -10.515  -2.045  1.00  0.00     0.027 C 
HETATM   14  H   UNL     1      42.965 -10.994   0.545  1.00  0.00     0.163 HD
ENDROOT
BRANCH   1  15
HETATM   15  C   UNL     1      41.584 -15.303   0.738  1.00  0.00     0.146 C 
BRANCH  15  16
HETATM   16  C   UNL     1      40.519 -15.798   1.683  1.00  0.00     0.224 C 
HETATM   17  N   UNL     1      40.724 -16.655   2.708  1.00  0.00    -0.327 N 
HETATM   18  H   UNL     1      39.931 -16.664   3.344  1.00  0.00     0.169 HD
HETATM   19  O   UNL     1      39.394 -15.282   1.575  1.00  0.00    -0.273 OA
BRANCH  17  20
HETATM   20  C   UNL     1      41.765 -17.527   3.076  1.00  0.00     0.035 A 
HETATM   21  C   UNL     1      42.286 -18.547   2.286  1.00  0.00     0.037 A 
HETATM   22  C   UNL     1      43.322 -19.382   2.754  1.00  0.00    -0.054 A 
HETATM   23  C   UNL     1      43.838 -19.192   4.048  1.00  0.00    -0.056 A 
HETATM   24  C   UNL     1      43.865 -20.456   1.847  1.00  0.00     0.049 C 
HETATM   25  C   UNL     1      44.940 -20.058   4.596  1.00  0.00     0.049 C 
HETATM   26  C   UNL     1      43.281 -18.199   4.859  1.00  0.00     0.009 A 
HETATM   27  C   UNL     1      42.254 -17.382   4.380  1.00  0.00     0.030 A 
ENDBRANCH  17  20
ENDBRANCH  15  16
ENDBRANCH   1  15
TORSDOF 3
ENDMDL
