MODEL 1
REMARK VINA RESULT:      -7.6      0.000      0.000
REMARK  3 active torsions:
REMARK  status: ('A' for Active; 'I' for Inactive)
REMARK    1  A    between atoms: C_2  and  N_3 
REMARK       I    between atoms: N_3  and  C_4 
REMARK    2  A    between atoms: C_4  and  C_5 
REMARK    3  A    between atoms: C_5  and  C_6 
ROOT
HETATM    1  C   UNL     1      41.426 -15.714   1.455  1.00  0.00     0.286 C 
HETATM    2  N   UNL     1      42.164 -15.346   2.740  1.00  0.00    -0.056 N 
HETATM    3  H   UNL     1      41.469 -15.265   3.493  1.00  0.00     0.278 HD
HETATM    4  H   UNL     1      42.751 -16.164   3.011  1.00  0.00     0.278 HD
HETATM    5  C   UNL     1      43.001 -14.100   2.648  1.00  0.00     0.209 C 
HETATM    6  C   UNL     1      42.086 -12.928   2.216  1.00  0.00     0.115 C 
HETATM    7  N   UNL     1      41.321 -13.259   1.016  1.00  0.00    -0.353 N 
HETATM    8  C   UNL     1      40.830 -14.503   0.716  1.00  0.00     0.249 C 
HETATM    9  O   UNL     1      40.007 -14.640  -0.183  1.00  0.00    -0.271 OA
HETATM   10  C   UNL     1      43.683 -13.851   3.993  1.00  0.00     0.035 C 
HETATM   11  C   UNL     1      42.716 -13.406   5.088  1.00  0.00     0.002 C 
HETATM   12  C   UNL     1      41.875 -12.215   4.643  1.00  0.00     0.002 C 
HETATM   13  C   UNL     1      41.133 -12.495   3.341  1.00  0.00     0.027 C 
HETATM   14  H   UNL     1      40.882 -12.502   0.493  1.00  0.00     0.163 HD
ENDROOT
BRANCH   1  15
HETATM   15  C   UNL     1      42.318 -16.499   0.483  1.00  0.00     0.146 C 
BRANCH  15  16
HETATM   16  C   UNL     1      43.285 -17.369   1.248  1.00  0.00     0.224 C 
HETATM   17  N   UNL     1      42.729 -18.509   1.779  1.00  0.00    -0.327 N 
HETATM   18  H   UNL     1      41.724 -18.637   1.694  1.00  0.00     0.169 HD
HETATM   19  O   UNL     1      44.462 -17.012   1.315  1.00  0.00    -0.273 OA
BRANCH  17  20
HETATM   20  C   UNL     1      43.394 -19.517   2.513  1.00  0.00     0.034 A 
HETATM   21  C   UNL     1      43.740 -19.219   3.839  1.00  0.00     0.031 A 
HETATM   22  C   UNL     1      44.412 -20.159   4.629  1.00  0.00     0.026 A 
HETATM   23  C   UNL     1      44.728 -21.407   4.101  1.00  0.00     0.034 A 
HETATM   24  C   UNL     1      44.379 -21.720   2.791  1.00  0.00     0.026 A 
HETATM   25 CL   UNL     1      45.551 -22.564   5.069  1.00  0.00    -0.084 Cl
HETATM   26  C   UNL     1      43.715 -20.775   1.998  1.00  0.00     0.031 A 
ENDBRANCH  17  20
ENDBRANCH  15  16
ENDBRANCH   1  15
TORSDOF 3
ENDMDL
MODEL 2
REMARK VINA RESULT:      -7.6      4.182      7.724
REMARK  3 active torsions:
REMARK  status: ('A' for Active; 'I' for Inactive)
REMARK    1  A    between atoms: C_2  and  N_3 
REMARK       I    between atoms: N_3  and  C_4 
REMARK    2  A    between atoms: C_4  and  C_5 
REMARK    3  A    between atoms: C_5  and  C_6 
ROOT
HETATM    1  C   UNL     1      42.800 -18.494   2.639  1.00  0.00     0.286 C 
HETATM    2  N   UNL     1      43.278 -19.929   2.426  1.00  0.00    -0.056 N 
HETATM    3  H   UNL     1      42.667 -20.551   2.968  1.00  0.00     0.278 HD
HETATM    4  H   UNL     1      43.091 -20.178   1.430  1.00  0.00     0.278 HD
HETATM    5  C   UNL     1      44.724 -20.166   2.768  1.00  0.00     0.209 C 
HETATM    6  C   UNL     1      44.950 -19.752   4.242  1.00  0.00     0.115 C 
HETATM    7  N   UNL     1      44.457 -18.402   4.503  1.00  0.00    -0.353 N 
HETATM    8  C   UNL     1      43.349 -17.844   3.921  1.00  0.00     0.249 C 
HETATM    9  O   UNL     1      42.875 -16.804   4.367  1.00  0.00    -0.271 OA
HETATM   10  C   UNL     1      45.069 -21.631   2.506  1.00  0.00     0.035 C 
HETATM   11  C   UNL     1      44.429 -22.591   3.506  1.00  0.00     0.002 C 
HETATM   12  C   UNL     1      44.723 -22.181   4.945  1.00  0.00     0.002 C 
HETATM   13  C   UNL     1      44.305 -20.742   5.225  1.00  0.00     0.027 C 
HETATM   14  H   UNL     1      44.766 -17.924   5.349  1.00  0.00     0.163 HD
ENDROOT
BRANCH   1  15
HETATM   15  C   UNL     1      43.133 -17.591   1.443  1.00  0.00     0.146 C 
BRANCH  15  16
HETATM   16  C   UNL     1      41.864 -17.044   0.832  1.00  0.00     0.224 C 
HETATM   17  N   UNL     1      42.064 -16.064  -0.112  1.00  0.00    -0.327 N 
HETATM   18  H   UNL     1      43.012 -15.730  -0.264  1.00  0.00     0.169 HD
HETATM   19  O   UNL     1      40.790 -17.520   1.200  1.00  0.00    -0.273 OA
BRANCH  17  20
HETATM   20  C   UNL     1      41.072 -15.396  -0.865  1.00  0.00     0.034 A 
HETATM   21  C   UNL     1      40.960 -15.737  -2.220  1.00  0.00     0.031 A 
HETATM   22  C   UNL     1      40.010 -15.112  -3.037  1.00  0.00     0.026 A 
HETATM   23  C   UNL     1      39.160 -14.152  -2.498  1.00  0.00     0.034 A 
HETATM   24  C   UNL     1      39.252 -13.813  -1.151  1.00  0.00     0.026 A 
HETATM   25 CL   UNL     1      37.991 -13.384  -3.497  1.00  0.00    -0.084 Cl
HETATM   26  C   UNL     1      40.208 -14.433  -0.337  1.00  0.00     0.031 A 
ENDBRANCH  17  20
ENDBRANCH  15  16
ENDBRANCH   1  15
TORSDOF 3
ENDMDL
MODEL 3
REMARK VINA RESULT:      -7.6      2.130      2.891
REMARK  3 active torsions:
REMARK  status: ('A' for Active; 'I' for Inactive)
REMARK    1  A    between atoms: C_2  and  N_3 
REMARK       I    between atoms: N_3  and  C_4 
REMARK    2  A    between atoms: C_4  and  C_5 
REMARK    3  A    between atoms: C_5  and  C_6 
ROOT
HETATM    1  C   UNL     1      41.610 -15.462   1.319  1.00  0.00     0.286 C 
HETATM    2  N   UNL     1      41.270 -14.231   0.482  1.00  0.00    -0.056 N 
HETATM    3  H   UNL     1      41.392 -13.401   1.075  1.00  0.00     0.278 HD
HETATM    4  H   UNL     1      42.003 -14.138  -0.254  1.00  0.00     0.278 HD
HETATM    5  C   UNL     1      39.899 -14.251  -0.135  1.00  0.00     0.209 C 
HETATM    6  C   UNL     1      38.856 -14.419   0.996  1.00  0.00     0.115 C 
HETATM    7  N   UNL     1      39.174 -15.558   1.854  1.00  0.00    -0.353 N 
HETATM    8  C   UNL     1      40.441 -15.963   2.185  1.00  0.00     0.249 C 
HETATM    9  O   UNL     1      40.613 -16.773   3.090  1.00  0.00    -0.271 OA
HETATM   10  C   UNL     1      39.692 -12.971  -0.944  1.00  0.00     0.035 C 
HETATM   11  C   UNL     1      39.541 -11.725  -0.074  1.00  0.00     0.002 C 
HETATM   12  C   UNL     1      38.465 -11.910   0.991  1.00  0.00     0.002 C 
HETATM   13  C   UNL     1      38.718 -13.147   1.847  1.00  0.00     0.027 C 
HETATM   14  H   UNL     1      38.448 -15.923   2.469  1.00  0.00     0.163 HD
ENDROOT
BRANCH   1  15
HETATM   15  C   UNL     1      42.121 -16.623   0.455  1.00  0.00     0.146 C 
BRANCH  15  16
HETATM   16  C   UNL     1      43.124 -17.448   1.226  1.00  0.00     0.224 C 
HETATM   17  N   UNL     1      42.620 -18.617   1.745  1.00  0.00    -0.327 N 
HETATM   18  H   UNL     1      41.624 -18.795   1.649  1.00  0.00     0.169 HD
HETATM   19  O   UNL     1      44.280 -17.031   1.307  1.00  0.00    -0.273 OA
BRANCH  17  20
HETATM   20  C   UNL     1      43.328 -19.594   2.482  1.00  0.00     0.034 A 
HETATM   21  C   UNL     1      43.692 -19.265   3.796  1.00  0.00     0.031 A 
HETATM   22  C   UNL     1      44.405 -20.173   4.587  1.00  0.00     0.026 A 
HETATM   23  C   UNL     1      44.747 -21.419   4.072  1.00  0.00     0.034 A 
HETATM   24  C   UNL     1      44.382 -21.763   2.774  1.00  0.00     0.026 A 
HETATM   25 CL   UNL     1      45.621 -22.538   5.040  1.00  0.00    -0.084 Cl
HETATM   26  C   UNL     1      43.675 -20.851   1.980  1.00  0.00     0.031 A 
ENDBRANCH  17  20
ENDBRANCH  15  16
ENDBRANCH   1  15
TORSDOF 3
ENDMDL
MODEL 4
REMARK VINA RESULT:      -7.4      3.500      7.407
REMARK  3 active torsions:
REMARK  status: ('A' for Active; 'I' for Inactive)
REMARK    1  A    between atoms: C_2  and  N_3 
REMARK       I    between atoms: N_3  and  C_4 
REMARK    2  A    between atoms: C_4  and  C_5 
REMARK    3  A    between atoms: C_5  and  C_6 
ROOT
HETATM    1  C   UNL     1      42.926 -18.365   5.056  1.00  0.00     0.286 C 
HETATM    2  N   UNL     1      42.843 -19.094   3.716  1.00  0.00    -0.056 N 
HETATM    3  H   UNL     1      42.345 -19.979   3.867  1.00  0.00     0.278 HD
HETATM    4  H   UNL     1      42.213 -18.540   3.096  1.00  0.00     0.278 HD
HETATM    5  C   UNL     1      44.169 -19.331   3.048  1.00  0.00     0.209 C 
HETATM    6  C   UNL     1      45.070 -20.129   4.021  1.00  0.00     0.115 C 
HETATM    7  N   UNL     1      45.136 -19.493   5.335  1.00  0.00    -0.353 N 
HETATM    8  C   UNL     1      44.100 -18.825   5.937  1.00  0.00     0.249 C 
HETATM    9  O   UNL     1      44.166 -18.530   7.126  1.00  0.00    -0.271 OA
HETATM   10  C   UNL     1      43.942 -20.059   1.723  1.00  0.00     0.035 C 
HETATM   11  C   UNL     1      43.502 -21.511   1.899  1.00  0.00     0.002 C 
HETATM   12  C   UNL     1      44.447 -22.276   2.818  1.00  0.00     0.002 C 
HETATM   13  C   UNL     1      44.611 -21.587   4.169  1.00  0.00     0.027 C 
HETATM   14  H   UNL     1      45.878 -19.771   5.975  1.00  0.00     0.163 HD
ENDROOT
BRANCH   1  15
HETATM   15  C   UNL     1      43.004 -16.842   4.881  1.00  0.00     0.146 C 
BRANCH  15  16
HETATM   16  C   UNL     1      42.100 -16.399   3.755  1.00  0.00     0.224 C 
HETATM   17  N   UNL     1      42.750 -15.777   2.715  1.00  0.00    -0.327 N 
HETATM   18  H   UNL     1      43.744 -15.590   2.814  1.00  0.00     0.169 HD
HETATM   19  O   UNL     1      40.896 -16.643   3.845  1.00  0.00    -0.273 OA
BRANCH  17  20
HETATM   20  C   UNL     1      42.170 -15.286   1.523  1.00  0.00     0.034 A 
HETATM   21  C   UNL     1      41.852 -16.227   0.533  1.00  0.00     0.031 A 
HETATM   22  C   UNL     1      41.286 -15.820  -0.681  1.00  0.00     0.026 A 
HETATM   23  C   UNL     1      41.022 -14.472  -0.904  1.00  0.00     0.034 A 
HETATM   24  C   UNL     1      41.322 -13.530   0.075  1.00  0.00     0.026 A 
HETATM   25 CL   UNL     1      40.325 -13.970  -2.392  1.00  0.00    -0.084 Cl
HETATM   26  C   UNL     1      41.896 -13.937   1.286  1.00  0.00     0.031 A 
ENDBRANCH  17  20
ENDBRANCH  15  16
ENDBRANCH   1  15
TORSDOF 3
ENDMDL
MODEL 5
REMARK VINA RESULT:      -7.4      3.806      7.200
REMARK  3 active torsions:
REMARK  status: ('A' for Active; 'I' for Inactive)
REMARK    1  A    between atoms: C_2  and  N_3 
REMARK       I    between atoms: N_3  and  C_4 
REMARK    2  A    between atoms: C_4  and  C_5 
REMARK    3  A    between atoms: C_5  and  C_6 
ROOT
HETATM    1  C   UNL     1      41.549 -17.464   4.628  1.00  0.00     0.286 C 
HETATM    2  N   UNL     1      42.223 -18.295   3.539  1.00  0.00    -0.056 N 
HETATM    3  H   UNL     1      42.009 -19.284   3.717  1.00  0.00     0.278 HD
HETATM    4  H   UNL     1      41.744 -18.080   2.637  1.00  0.00     0.278 HD
HETATM    5  C   UNL     1      43.707 -18.082   3.414  1.00  0.00     0.209 C 
HETATM    6  C   UNL     1      44.360 -18.386   4.784  1.00  0.00     0.115 C 
HETATM    7  N   UNL     1      43.709 -17.649   5.865  1.00  0.00    -0.353 N 
HETATM    8  C   UNL     1      42.370 -17.363   5.925  1.00  0.00     0.249 C 
HETATM    9  O   UNL     1      41.874 -16.952   6.969  1.00  0.00    -0.271 OA
HETATM   10  C   UNL     1      44.250 -18.966   2.292  1.00  0.00     0.035 C 
HETATM   11  C   UNL     1      44.253 -20.452   2.641  1.00  0.00     0.002 C 
HETATM   12  C   UNL     1      44.955 -20.716   3.969  1.00  0.00     0.002 C 
HETATM   13  C   UNL     1      44.359 -19.890   5.103  1.00  0.00     0.027 C 
HETATM   14  H   UNL     1      44.192 -17.566   6.759  1.00  0.00     0.163 HD
ENDROOT
BRANCH   1  15
HETATM   15  C   UNL     1      41.209 -16.047   4.145  1.00  0.00     0.146 C 
BRANCH  15  16
HETATM   16  C   UNL     1      40.616 -16.097   2.757  1.00  0.00     0.224 C 
HETATM   17  N   UNL     1      40.921 -15.012   1.969  1.00  0.00    -0.327 N 
HETATM   18  H   UNL     1      41.434 -14.242   2.390  1.00  0.00     0.169 HD
HETATM   19  O   UNL     1      39.948 -17.083   2.445  1.00  0.00    -0.273 OA
BRANCH  17  20
HETATM   20  C   UNL     1      40.532 -14.801   0.626  1.00  0.00     0.034 A 
HETATM   21  C   UNL     1      41.285 -15.445  -0.366  1.00  0.00     0.031 A 
HETATM   22  C   UNL     1      40.971 -15.278  -1.720  1.00  0.00     0.026 A 
HETATM   23  C   UNL     1      39.894 -14.478  -2.087  1.00  0.00     0.034 A 
HETATM   24  C   UNL     1      39.132 -13.843  -1.111  1.00  0.00     0.026 A 
HETATM   25 CL   UNL     1      39.505 -14.272  -3.748  1.00  0.00    -0.084 Cl
HETATM   26  C   UNL     1      39.451 -14.003   0.242  1.00  0.00     0.031 A 
ENDBRANCH  17  20
ENDBRANCH  15  16
ENDBRANCH   1  15
TORSDOF 3
ENDMDL
MODEL 6
REMARK VINA RESULT:      -7.4      3.942      7.746
REMARK  3 active torsions:
REMARK  status: ('A' for Active; 'I' for Inactive)
REMARK    1  A    between atoms: C_2  and  N_3 
REMARK       I    between atoms: N_3  and  C_4 
REMARK    2  A    between atoms: C_4  and  C_5 
REMARK    3  A    between atoms: C_5  and  C_6 
ROOT
HETATM    1  C   UNL     1      42.713 -18.466   5.619  1.00  0.00     0.286 C 
HETATM    2  N   UNL     1      42.709 -18.823   4.134  1.00  0.00    -0.056 N 
HETATM    3  H   UNL     1      42.206 -19.712   4.023  1.00  0.00     0.278 HD
HETATM    4  H   UNL     1      42.113 -18.121   3.643  1.00  0.00     0.278 HD
HETATM    5  C   UNL     1      44.072 -18.895   3.502  1.00  0.00     0.209 C 
HETATM    6  C   UNL     1      44.919 -19.926   4.285  1.00  0.00     0.115 C 
HETATM    7  N   UNL     1      44.907 -19.652   5.720  1.00  0.00    -0.353 N 
HETATM    8  C   UNL     1      43.837 -19.150   6.415  1.00  0.00     0.249 C 
HETATM    9  O   UNL     1      43.834 -19.172   7.642  1.00  0.00    -0.271 OA
HETATM   10  C   UNL     1      43.923 -19.254   2.024  1.00  0.00     0.035 C 
HETATM   11  C   UNL     1      43.479 -20.697   1.794  1.00  0.00     0.002 C 
HETATM   12  C   UNL     1      44.373 -21.684   2.536  1.00  0.00     0.002 C 
HETATM   13  C   UNL     1      44.457 -21.369   4.026  1.00  0.00     0.027 C 
HETATM   14  H   UNL     1      45.613 -20.094   6.308  1.00  0.00     0.163 HD
ENDROOT
BRANCH   1  15
HETATM   15  C   UNL     1      42.795 -16.950   5.847  1.00  0.00     0.146 C 
BRANCH  15  16
HETATM   16  C   UNL     1      41.546 -16.276   5.333  1.00  0.00     0.224 C 
HETATM   17  N   UNL     1      41.711 -15.599   4.147  1.00  0.00    -0.327 N 
HETATM   18  H   UNL     1      42.649 -15.531   3.760  1.00  0.00     0.169 HD
HETATM   19  O   UNL     1      40.507 -16.401   5.983  1.00  0.00    -0.273 OA
BRANCH  17  20
HETATM   20  C   UNL     1      40.718 -14.903   3.421  1.00  0.00     0.034 A 
HETATM   21  C   UNL     1      40.079 -15.599   2.385  1.00  0.00     0.031 A 
HETATM   22  C   UNL     1      39.092 -14.977   1.611  1.00  0.00     0.026 A 
HETATM   23  C   UNL     1      38.732 -13.661   1.877  1.00  0.00     0.034 A 
HETATM   24  C   UNL     1      39.350 -12.962   2.910  1.00  0.00     0.026 A 
HETATM   25 CL   UNL     1      37.520 -12.894   0.930  1.00  0.00    -0.084 Cl
HETATM   26  C   UNL     1      40.343 -13.583   3.679  1.00  0.00     0.031 A 
ENDBRANCH  17  20
ENDBRANCH  15  16
ENDBRANCH   1  15
TORSDOF 3
ENDMDL
MODEL 7
REMARK VINA RESULT:      -7.4      3.818      6.591
REMARK  3 active torsions:
REMARK  status: ('A' for Active; 'I' for Inactive)
REMARK    1  A    between atoms: C_2  and  N_3 
REMARK       I    between atoms: N_3  and  C_4 
REMARK    2  A    between atoms: C_4  and  C_5 
REMARK    3  A    between atoms: C_5  and  C_6 
ROOT
HETATM    1  C   UNL     1      44.571 -19.122   4.117  1.00  0.00     0.286 C 
HETATM    2  N   UNL     1      43.997 -17.896   4.825  1.00  0.00    -0.056 N 
HETATM    3  H   UNL     1      44.755 -17.454   5.358  1.00  0.00     0.278 HD
HETATM    4  H   UNL     1      43.749 -17.197   4.091  1.00  0.00     0.278 HD
HETATM    5  C   UNL     1      42.813 -18.178   5.708  1.00  0.00     0.209 C 
HETATM    6  C   UNL     1      43.227 -19.240   6.755  1.00  0.00     0.115 C 
HETATM    7  N   UNL     1      43.831 -20.411   6.123  1.00  0.00    -0.353 N 
HETATM    8  C   UNL     1      44.621 -20.378   5.003  1.00  0.00     0.249 C 
HETATM    9  O   UNL     1      45.273 -21.367   4.680  1.00  0.00    -0.271 OA
HETATM   10  C   UNL     1      42.338 -16.873   6.346  1.00  0.00     0.035 C 
HETATM   11  C   UNL     1      43.298 -16.333   7.403  1.00  0.00     0.002 C 
HETATM   12  C   UNL     1      43.636 -17.392   8.447  1.00  0.00     0.002 C 
HETATM   13  C   UNL     1      44.184 -18.665   7.812  1.00  0.00     0.027 C 
HETATM   14  H   UNL     1      43.914 -21.270   6.665  1.00  0.00     0.163 HD
ENDROOT
BRANCH   1  15
HETATM   15  C   UNL     1      43.808 -19.454   2.827  1.00  0.00     0.146 C 
BRANCH  15  16
HETATM   16  C   UNL     1      43.406 -18.183   2.117  1.00  0.00     0.224 C 
HETATM   17  N   UNL     1      42.048 -18.005   1.995  1.00  0.00    -0.327 N 
HETATM   18  H   UNL     1      41.435 -18.755   2.304  1.00  0.00     0.169 HD
HETATM   19  O   UNL     1      44.297 -17.423   1.736  1.00  0.00    -0.273 OA
BRANCH  17  20
HETATM   20  C   UNL     1      41.385 -16.904   1.406  1.00  0.00     0.034 A 
HETATM   21  C   UNL     1      40.379 -16.285   2.162  1.00  0.00     0.031 A 
HETATM   22  C   UNL     1      39.668 -15.195   1.645  1.00  0.00     0.026 A 
HETATM   23  C   UNL     1      39.969 -14.712   0.376  1.00  0.00     0.034 A 
HETATM   24  C   UNL     1      40.973 -15.310  -0.379  1.00  0.00     0.026 A 
HETATM   25 CL   UNL     1      39.099 -13.373  -0.260  1.00  0.00    -0.084 Cl
HETATM   26  C   UNL     1      41.678 -16.405   0.135  1.00  0.00     0.031 A 
ENDBRANCH  17  20
ENDBRANCH  15  16
ENDBRANCH   1  15
TORSDOF 3
ENDMDL
MODEL 8
REMARK VINA RESULT:      -7.3      2.339      3.912
REMARK  3 active torsions:
REMARK  status: ('A' for Active; 'I' for Inactive)
REMARK    1  A    between atoms: C_2  and  N_3 
REMARK       I    between atoms: N_3  and  C_4 
REMARK    2  A    between atoms: C_4  and  C_5 
REMARK    3  A    between atoms: C_5  and  C_6 
ROOT
HETATM    1  C   UNL     1      41.963 -15.098   1.188  1.00  0.00     0.286 C 
HETATM    2  N   UNL     1      41.544 -15.354  -0.257  1.00  0.00    -0.056 N 
HETATM    3  H   UNL     1      42.396 -15.470  -0.819  1.00  0.00     0.278 HD
HETATM    4  H   UNL     1      41.079 -16.288  -0.289  1.00  0.00     0.278 HD
HETATM    5  C   UNL     1      40.651 -14.298  -0.849  1.00  0.00     0.209 C 
HETATM    6  C   UNL     1      41.376 -12.935  -0.749  1.00  0.00     0.115 C 
HETATM    7  N   UNL     1      41.841 -12.672   0.611  1.00  0.00    -0.353 N 
HETATM    8  C   UNL     1      42.303 -13.626   1.481  1.00  0.00     0.249 C 
HETATM    9  O   UNL     1      42.889 -13.293   2.506  1.00  0.00    -0.271 OA
HETATM   10  C   UNL     1      40.306 -14.679  -2.288  1.00  0.00     0.035 C 
HETATM   11  C   UNL     1      41.487 -14.554  -3.246  1.00  0.00     0.002 C 
HETATM   12  C   UNL     1      42.137 -13.177  -3.159  1.00  0.00     0.002 C 
HETATM   13  C   UNL     1      42.552 -12.833  -1.732  1.00  0.00     0.027 C 
HETATM   14  H   UNL     1      42.104 -11.720   0.862  1.00  0.00     0.163 HD
ENDROOT
BRANCH   1  15
HETATM   15  C   UNL     1      40.900 -15.570   2.190  1.00  0.00     0.146 C 
BRANCH  15  16
HETATM   16  C   UNL     1      41.456 -16.673   3.060  1.00  0.00     0.224 C 
HETATM   17  N   UNL     1      42.474 -17.394   2.483  1.00  0.00    -0.327 N 
HETATM   18  H   UNL     1      42.714 -17.197   1.515  1.00  0.00     0.169 HD
HETATM   19  O   UNL     1      40.982 -16.818   4.188  1.00  0.00    -0.273 OA
BRANCH  17  20
HETATM   20  C   UNL     1      43.198 -18.458   3.068  1.00  0.00     0.034 A 
HETATM   21  C   UNL     1      43.445 -19.581   2.266  1.00  0.00     0.031 A 
HETATM   22  C   UNL     1      44.145 -20.681   2.775  1.00  0.00     0.026 A 
HETATM   23  C   UNL     1      44.613 -20.657   4.084  1.00  0.00     0.034 A 
HETATM   24  C   UNL     1      44.386 -19.543   4.887  1.00  0.00     0.026 A 
HETATM   25 CL   UNL     1      45.475 -22.005   4.712  1.00  0.00    -0.084 Cl
HETATM   26  C   UNL     1      43.679 -18.447   4.380  1.00  0.00     0.031 A 
ENDBRANCH  17  20
ENDBRANCH  15  16
ENDBRANCH   1  15
TORSDOF 3
ENDMDL
MODEL 9
REMARK VINA RESULT:      -7.2      4.190      7.594
REMARK  3 active torsions:
REMARK  status: ('A' for Active; 'I' for Inactive)
REMARK    1  A    between atoms: C_2  and  N_3 
REMARK       I    between atoms: N_3  and  C_4 
REMARK    2  A    between atoms: C_4  and  C_5 
REMARK    3  A    between atoms: C_5  and  C_6 
ROOT
HETATM    1  C   UNL     1      41.828 -17.043   5.128  1.00  0.00     0.286 C 
HETATM    2  N   UNL     1      42.231 -17.505   3.730  1.00  0.00    -0.056 N 
HETATM    3  H   UNL     1      41.795 -18.420   3.560  1.00  0.00     0.278 HD
HETATM    4  H   UNL     1      41.774 -16.865   3.044  1.00  0.00     0.278 HD
HETATM    5  C   UNL     1      43.715 -17.565   3.491  1.00  0.00     0.209 C 
HETATM    6  C   UNL     1      44.342 -18.501   4.552  1.00  0.00     0.115 C 
HETATM    7  N   UNL     1      43.939 -18.126   5.905  1.00  0.00    -0.353 N 
HETATM    8  C   UNL     1      42.711 -17.621   6.248  1.00  0.00     0.249 C 
HETATM    9  O   UNL     1      42.379 -17.556   7.427  1.00  0.00    -0.271 OA
HETATM   10  C   UNL     1      43.976 -18.034   2.061  1.00  0.00     0.035 C 
HETATM   11  C   UNL     1      43.641 -19.507   1.837  1.00  0.00     0.002 C 
HETATM   12  C   UNL     1      44.324 -20.400   2.867  1.00  0.00     0.002 C 
HETATM   13  C   UNL     1      43.998 -19.976   4.295  1.00  0.00     0.027 C 
HETATM   14  H   UNL     1      44.471 -18.494   6.693  1.00  0.00     0.163 HD
ENDROOT
BRANCH   1  15
HETATM   15  C   UNL     1      41.813 -15.513   5.249  1.00  0.00     0.146 C 
BRANCH  15  16
HETATM   16  C   UNL     1      41.337 -14.892   3.957  1.00  0.00     0.224 C 
HETATM   17  N   UNL     1      39.976 -14.711   3.881  1.00  0.00    -0.327 N 
HETATM   18  H   UNL     1      39.400 -15.074   4.636  1.00  0.00     0.169 HD
HETATM   19  O   UNL     1      42.180 -14.586   3.113  1.00  0.00    -0.273 OA
BRANCH  17  20
HETATM   20  C   UNL     1      39.255 -14.130   2.813  1.00  0.00     0.034 A 
HETATM   21  C   UNL     1      39.070 -12.741   2.847  1.00  0.00     0.031 A 
HETATM   22  C   UNL     1      38.357 -12.091   1.833  1.00  0.00     0.026 A 
HETATM   23  C   UNL     1      37.837 -12.827   0.773  1.00  0.00     0.034 A 
HETATM   24  C   UNL     1      38.023 -14.205   0.721  1.00  0.00     0.026 A 
HETATM   25 CL   UNL     1      36.962 -12.032  -0.475  1.00  0.00    -0.084 Cl
HETATM   26  C   UNL     1      38.729 -14.855   1.740  1.00  0.00     0.031 A 
ENDBRANCH  17  20
ENDBRANCH  15  16
ENDBRANCH   1  15
TORSDOF 3
ENDMDL
MODEL 10
REMARK VINA RESULT:      -7.1      6.811      8.751
REMARK  3 active torsions:
REMARK  status: ('A' for Active; 'I' for Inactive)
REMARK    1  A    between atoms: C_2  and  N_3 
REMARK       I    between atoms: N_3  and  C_4 
REMARK    2  A    between atoms: C_4  and  C_5 
REMARK    3  A    between atoms: C_5  and  C_6 
ROOT
HETATM    1  C   UNL     1      43.153 -11.373  10.136  1.00  0.00     0.286 C 
HETATM    2  N   UNL     1      43.350 -11.110  11.628  1.00  0.00    -0.056 N 
HETATM    3  H   UNL     1      42.643 -11.651  12.141  1.00  0.00     0.278 HD
HETATM    4  H   UNL     1      44.260 -11.538  11.905  1.00  0.00     0.278 HD
HETATM    5  C   UNL     1      43.304  -9.659  12.021  1.00  0.00     0.209 C 
HETATM    6  C   UNL     1      41.948  -9.072  11.561  1.00  0.00     0.115 C 
HETATM    7  N   UNL     1      41.696  -9.346  10.148  1.00  0.00    -0.353 N 
HETATM    8  C   UNL     1      42.072 -10.489   9.491  1.00  0.00     0.249 C 
HETATM    9  O   UNL     1      41.618 -10.738   8.378  1.00  0.00    -0.271 OA
HETATM   10  C   UNL     1      43.517  -9.540  13.529  1.00  0.00     0.035 C 
HETATM   11  C   UNL     1      42.332 -10.044  14.349  1.00  0.00     0.002 C 
HETATM   12  C   UNL     1      41.025  -9.399  13.903  1.00  0.00     0.002 C 
HETATM   13  C   UNL     1      40.777  -9.588  12.411  1.00  0.00     0.027 C 
HETATM   14  H   UNL     1      40.975  -8.810   9.667  1.00  0.00     0.163 HD
ENDROOT
BRANCH   1  15
HETATM   15  C   UNL     1      44.460 -11.215   9.346  1.00  0.00     0.146 C 
BRANCH  15  16
HETATM   16  C   UNL     1      44.754 -12.475   8.566  1.00  0.00     0.224 C 
HETATM   17  N   UNL     1      43.718 -12.907   7.772  1.00  0.00    -0.327 N 
HETATM   18  H   UNL     1      42.831 -12.415   7.830  1.00  0.00     0.169 HD
HETATM   19  O   UNL     1      45.869 -12.984   8.683  1.00  0.00    -0.273 OA
BRANCH  17  20
HETATM   20  C   UNL     1      43.717 -14.032   6.916  1.00  0.00     0.034 A 
HETATM   21  C   UNL     1      43.365 -13.815   5.576  1.00  0.00     0.031 A 
HETATM   22  C   UNL     1      43.328 -14.878   4.667  1.00  0.00     0.026 A 
HETATM   23  C   UNL     1      43.657 -16.162   5.091  1.00  0.00     0.034 A 
HETATM   24  C   UNL     1      44.020 -16.389   6.415  1.00  0.00     0.026 A 
HETATM   25 CL   UNL     1      43.614 -17.470   3.977  1.00  0.00    -0.084 Cl
HETATM   26  C   UNL     1      44.048 -15.326   7.325  1.00  0.00     0.031 A 
ENDBRANCH  17  20
ENDBRANCH  15  16
ENDBRANCH   1  15
TORSDOF 3
ENDMDL
