MODEL 1
REMARK VINA RESULT:      -9.6      0.000      0.000
REMARK  7 active torsions:
REMARK  status: ('A' for Active; 'I' for Inactive)
REMARK    1  A    between atoms: C_2  and  C_3 
REMARK    2  A    between atoms: C_2  and  C_9 
REMARK    3  A    between atoms: C_9  and  C_10 
REMARK       I    between atoms: C_10  and  N_11 
REMARK    4  A    between atoms: N_11  and  N_12 
REMARK       I    between atoms: N_12  and  C_13 
REMARK    5  A    between atoms: C_13  and  C_14 
REMARK    6  A    between atoms: C_18  and  C_19 
REMARK    7  A    between atoms: C_22  and  O_23 
ROOT
HETATM    1  N   UNL     1      44.233 -14.487   7.702  1.00  0.00    -0.262 N 
HETATM    2  C   UNL     1      45.136 -13.450   7.618  1.00  0.00     0.288 C 
HETATM    3  O   UNL     1      46.026 -13.428   6.770  1.00  0.00    -0.264 OA
HETATM    4  H   UNL     1      43.511 -14.556   8.416  1.00  0.00     0.190 HD
ENDROOT
BRANCH   2   5
HETATM    5  C   UNL     1      44.950 -12.403   8.584  1.00  0.00     0.121 A 
HETATM    6  N   UNL     1      45.908 -11.465   8.838  1.00  0.00    -0.272 N 
HETATM    7  H   UNL     1      46.827 -11.398   8.409  1.00  0.00     0.189 HD
HETATM    8  N   UNL     1      45.547 -10.538   9.739  1.00  0.00    -0.174 NA
HETATM    9  C   UNL     1      44.310 -10.897  10.119  1.00  0.00     0.089 A 
HETATM   10  C   UNL     1      43.901 -12.064   9.417  1.00  0.00     0.071 A 
BRANCH   9  11
HETATM   11  C   UNL     1      43.542 -10.132  11.102  1.00  0.00    -0.005 A 
HETATM   12  C   UNL     1      42.394  -9.426  10.720  1.00  0.00     0.016 A 
HETATM   13  C   UNL     1      41.638  -8.730  11.670  1.00  0.00     0.037 A 
HETATM   14  C   UNL     1      42.014  -8.722  13.014  1.00  0.00     0.068 A 
HETATM   15  C   UNL     1      43.166  -9.403  13.400  1.00  0.00     0.037 A 
HETATM   16  C   UNL     1      43.924 -10.104  12.451  1.00  0.00     0.016 A 
BRANCH  14  17
HETATM   17  O   UNL     1      41.183  -8.016  13.840  1.00  0.00    -0.356 OA
HETATM   18  C   UNL     1      39.861  -7.783  13.371  1.00  0.00     0.210 C 
ENDBRANCH  14  17
ENDBRANCH   9  11
ENDBRANCH   2   5
BRANCH   1  19
HETATM   19  N   UNL     1      44.322 -15.564   6.816  1.00  0.00    -0.267 N 
HETATM   20  C   UNL     1      43.889 -16.789   7.273  1.00  0.00     0.236 C 
HETATM   21  O   UNL     1      43.309 -16.913   8.354  1.00  0.00    -0.272 OA
HETATM   22  H   UNL     1      44.937 -15.440   6.015  1.00  0.00     0.190 HD
BRANCH  20  23
HETATM   23  C   UNL     1      44.063 -17.952   6.317  1.00  0.00     0.113 C 
BRANCH  23  24
HETATM   24  C   UNL     1      43.326 -17.812   4.976  1.00  0.00     0.023 C 
HETATM   25  C   UNL     1      41.816 -17.690   5.217  1.00  0.00     0.015 C 
BRANCH  24  26
HETATM   26  C   UNL     1      43.613 -18.943   4.004  1.00  0.00    -0.054 A 
HETATM   27  C   UNL     1      43.048 -18.977   2.720  1.00  0.00     0.007 A 
HETATM   28  C   UNL     1      43.326 -20.031   1.847  1.00  0.00     0.001 A 
HETATM   29  C   UNL     1      44.175 -21.062   2.244  1.00  0.00     0.000 A 
HETATM   30  C   UNL     1      44.747 -21.039   3.512  1.00  0.00     0.001 A 
HETATM   31  C   UNL     1      44.470 -19.987   4.387  1.00  0.00     0.007 A 
ENDBRANCH  24  26
ENDBRANCH  23  24
ENDBRANCH  20  23
ENDBRANCH   1  19
TORSDOF 7
ENDMDL
MODEL 2
REMARK VINA RESULT:      -9.0      2.480     11.199
REMARK  7 active torsions:
REMARK  status: ('A' for Active; 'I' for Inactive)
REMARK    1  A    between atoms: C_2  and  C_3 
REMARK    2  A    between atoms: C_2  and  C_9 
REMARK    3  A    between atoms: C_9  and  C_10 
REMARK       I    between atoms: C_10  and  N_11 
REMARK    4  A    between atoms: N_11  and  N_12 
REMARK       I    between atoms: N_12  and  C_13 
REMARK    5  A    between atoms: C_13  and  C_14 
REMARK    6  A    between atoms: C_18  and  C_19 
REMARK    7  A    between atoms: C_22  and  O_23 
ROOT
HETATM    1  N   UNL     1      43.578 -13.349   6.988  1.00  0.00    -0.262 N 
HETATM    2  C   UNL     1      42.747 -13.395   5.891  1.00  0.00     0.288 C 
HETATM    3  O   UNL     1      41.884 -12.542   5.690  1.00  0.00    -0.264 OA
HETATM    4  H   UNL     1      44.273 -14.060   7.204  1.00  0.00     0.190 HD
ENDROOT
BRANCH   2   5
HETATM    5  C   UNL     1      42.973 -14.502   5.003  1.00  0.00     0.121 A 
HETATM    6  N   UNL     1      43.030 -14.350   3.647  1.00  0.00    -0.272 N 
HETATM    7  H   UNL     1      42.914 -13.488   3.123  1.00  0.00     0.189 HD
HETATM    8  N   UNL     1      43.292 -15.484   2.977  1.00  0.00    -0.174 NA
HETATM    9  C   UNL     1      43.380 -16.428   3.927  1.00  0.00     0.089 A 
HETATM   10  C   UNL     1      43.185 -15.850   5.213  1.00  0.00     0.071 A 
BRANCH   9  11
HETATM   11  C   UNL     1      43.666 -17.829   3.613  1.00  0.00    -0.005 A 
HETATM   12  C   UNL     1      43.355 -18.356   2.354  1.00  0.00     0.016 A 
HETATM   13  C   UNL     1      43.668 -19.684   2.041  1.00  0.00     0.037 A 
HETATM   14  C   UNL     1      44.292 -20.509   2.979  1.00  0.00     0.068 A 
HETATM   15  C   UNL     1      44.585 -19.999   4.242  1.00  0.00     0.037 A 
HETATM   16  C   UNL     1      44.275 -18.669   4.557  1.00  0.00     0.016 A 
BRANCH  14  17
HETATM   17  O   UNL     1      44.554 -21.778   2.544  1.00  0.00    -0.356 OA
HETATM   18  C   UNL     1      44.623 -22.795   3.537  1.00  0.00     0.210 C 
ENDBRANCH  14  17
ENDBRANCH   9  11
ENDBRANCH   2   5
BRANCH   1  19
HETATM   19  N   UNL     1      43.444 -12.319   7.923  1.00  0.00    -0.267 N 
HETATM   20  C   UNL     1      44.406 -12.236   8.905  1.00  0.00     0.236 C 
HETATM   21  O   UNL     1      45.422 -12.935   8.884  1.00  0.00    -0.272 OA
HETATM   22  H   UNL     1      42.529 -11.881   7.984  1.00  0.00     0.190 HD
BRANCH  20  23
HETATM   23  C   UNL     1      44.198 -11.155   9.946  1.00  0.00     0.113 C 
BRANCH  23  24
HETATM   24  C   UNL     1      42.741 -10.947  10.391  1.00  0.00     0.023 C 
HETATM   25  C   UNL     1      42.063  -9.905   9.494  1.00  0.00     0.015 C 
BRANCH  24  26
HETATM   26  C   UNL     1      42.603 -10.554  11.851  1.00  0.00    -0.054 A 
HETATM   27  C   UNL     1      41.527 -10.995  12.637  1.00  0.00     0.007 A 
HETATM   28  C   UNL     1      41.421 -10.615  13.977  1.00  0.00     0.001 A 
HETATM   29  C   UNL     1      42.390  -9.795  14.549  1.00  0.00     0.000 A 
HETATM   30  C   UNL     1      43.466  -9.353  13.784  1.00  0.00     0.001 A 
HETATM   31  C   UNL     1      43.573  -9.731  12.444  1.00  0.00     0.007 A 
ENDBRANCH  24  26
ENDBRANCH  23  24
ENDBRANCH  20  23
ENDBRANCH   1  19
TORSDOF 7
ENDMDL
MODEL 3
REMARK VINA RESULT:      -9.0      2.317     11.176
REMARK  7 active torsions:
REMARK  status: ('A' for Active; 'I' for Inactive)
REMARK    1  A    between atoms: C_2  and  C_3 
REMARK    2  A    between atoms: C_2  and  C_9 
REMARK    3  A    between atoms: C_9  and  C_10 
REMARK       I    between atoms: C_10  and  N_11 
REMARK    4  A    between atoms: N_11  and  N_12 
REMARK       I    between atoms: N_12  and  C_13 
REMARK    5  A    between atoms: C_13  and  C_14 
REMARK    6  A    between atoms: C_18  and  C_19 
REMARK    7  A    between atoms: C_22  and  O_23 
ROOT
HETATM    1  N   UNL     1      43.580 -13.313   7.386  1.00  0.00    -0.262 N 
HETATM    2  C   UNL     1      42.714 -13.298   6.315  1.00  0.00     0.288 C 
HETATM    3  O   UNL     1      42.077 -12.293   6.004  1.00  0.00    -0.264 OA
HETATM    4  H   UNL     1      44.090 -14.138   7.693  1.00  0.00     0.190 HD
ENDROOT
BRANCH   2   5
HETATM    5  C   UNL     1      42.623 -14.536   5.591  1.00  0.00     0.121 A 
HETATM    6  N   UNL     1      41.540 -14.855   4.823  1.00  0.00    -0.272 N 
HETATM    7  H   UNL     1      40.703 -14.295   4.684  1.00  0.00     0.189 HD
HETATM    8  N   UNL     1      41.644 -16.031   4.185  1.00  0.00    -0.174 NA
HETATM    9  C   UNL     1      42.831 -16.524   4.573  1.00  0.00     0.089 A 
HETATM   10  C   UNL     1      43.475 -15.614   5.456  1.00  0.00     0.071 A 
BRANCH   9  11
HETATM   11  C   UNL     1      43.338 -17.810   4.091  1.00  0.00    -0.005 A 
HETATM   12  C   UNL     1      43.071 -18.240   2.785  1.00  0.00     0.016 A 
HETATM   13  C   UNL     1      43.591 -19.451   2.314  1.00  0.00     0.037 A 
HETATM   14  C   UNL     1      44.384 -20.254   3.136  1.00  0.00     0.068 A 
HETATM   15  C   UNL     1      44.637 -19.845   4.444  1.00  0.00     0.037 A 
HETATM   16  C   UNL     1      44.119 -18.632   4.917  1.00  0.00     0.016 A 
BRANCH  14  17
HETATM   17  O   UNL     1      44.841 -21.402   2.551  1.00  0.00    -0.356 OA
HETATM   18  C   UNL     1      44.042 -21.952   1.510  1.00  0.00     0.210 C 
ENDBRANCH  14  17
ENDBRANCH   9  11
ENDBRANCH   2   5
BRANCH   1  19
HETATM   19  N   UNL     1      43.744 -12.165   8.166  1.00  0.00    -0.267 N 
HETATM   20  C   UNL     1      44.905 -12.067   8.900  1.00  0.00     0.236 C 
HETATM   21  O   UNL     1      45.829 -12.874   8.769  1.00  0.00    -0.272 OA
HETATM   22  H   UNL     1      42.905 -11.623   8.353  1.00  0.00     0.190 HD
BRANCH  20  23
HETATM   23  C   UNL     1      45.025 -10.848   9.792  1.00  0.00     0.113 C 
BRANCH  23  24
HETATM   24  C   UNL     1      44.661 -11.078  11.267  1.00  0.00     0.023 C 
HETATM   25  C   UNL     1      44.164 -12.515  11.466  1.00  0.00     0.015 C 
BRANCH  24  26
HETATM   26  C   UNL     1      43.639 -10.090  11.801  1.00  0.00    -0.054 A 
HETATM   27  C   UNL     1      43.642  -9.673  13.141  1.00  0.00     0.007 A 
HETATM   28  C   UNL     1      42.688  -8.766  13.607  1.00  0.00     0.001 A 
HETATM   29  C   UNL     1      41.722  -8.260  12.741  1.00  0.00     0.000 A 
HETATM   30  C   UNL     1      41.710  -8.659  11.407  1.00  0.00     0.001 A 
HETATM   31  C   UNL     1      42.662  -9.567  10.939  1.00  0.00     0.007 A 
ENDBRANCH  24  26
ENDBRANCH  23  24
ENDBRANCH  20  23
ENDBRANCH   1  19
TORSDOF 7
ENDMDL
MODEL 4
REMARK VINA RESULT:      -8.8      2.124     11.547
REMARK  7 active torsions:
REMARK  status: ('A' for Active; 'I' for Inactive)
REMARK    1  A    between atoms: C_2  and  C_3 
REMARK    2  A    between atoms: C_2  and  C_9 
REMARK    3  A    between atoms: C_9  and  C_10 
REMARK       I    between atoms: C_10  and  N_11 
REMARK    4  A    between atoms: N_11  and  N_12 
REMARK       I    between atoms: N_12  and  C_13 
REMARK    5  A    between atoms: C_13  and  C_14 
REMARK    6  A    between atoms: C_18  and  C_19 
REMARK    7  A    between atoms: C_22  and  O_23 
ROOT
HETATM    1  N   UNL     1      44.205 -13.903   7.891  1.00  0.00    -0.262 N 
HETATM    2  C   UNL     1      43.730 -14.369   6.685  1.00  0.00     0.288 C 
HETATM    3  O   UNL     1      43.168 -13.632   5.876  1.00  0.00    -0.264 OA
HETATM    4  H   UNL     1      44.637 -14.494   8.598  1.00  0.00     0.190 HD
ENDROOT
BRANCH   2   5
HETATM    5  C   UNL     1      43.952 -15.768   6.444  1.00  0.00     0.121 A 
HETATM    6  N   UNL     1      44.259 -16.642   7.448  1.00  0.00    -0.272 N 
HETATM    7  H   UNL     1      44.376 -16.424   8.433  1.00  0.00     0.189 HD
HETATM    8  N   UNL     1      44.390 -17.917   7.047  1.00  0.00    -0.174 NA
HETATM    9  C   UNL     1      44.191 -17.878   5.720  1.00  0.00     0.089 A 
HETATM   10  C   UNL     1      43.914 -16.546   5.304  1.00  0.00     0.071 A 
BRANCH   9  11
HETATM   11  C   UNL     1      44.241 -19.081   4.887  1.00  0.00    -0.005 A 
HETATM   12  C   UNL     1      43.888 -19.028   3.533  1.00  0.00     0.016 A 
HETATM   13  C   UNL     1      43.977 -20.170   2.729  1.00  0.00     0.037 A 
HETATM   14  C   UNL     1      44.415 -21.384   3.262  1.00  0.00     0.068 A 
HETATM   15  C   UNL     1      44.747 -21.452   4.613  1.00  0.00     0.037 A 
HETATM   16  C   UNL     1      44.661 -20.309   5.420  1.00  0.00     0.016 A 
BRANCH  14  17
HETATM   17  O   UNL     1      44.468 -22.418   2.368  1.00  0.00    -0.356 OA
HETATM   18  C   UNL     1      44.081 -22.130   1.030  1.00  0.00     0.210 C 
ENDBRANCH  14  17
ENDBRANCH   9  11
ENDBRANCH   2   5
BRANCH   1  19
HETATM   19  N   UNL     1      44.040 -12.559   8.234  1.00  0.00    -0.267 N 
HETATM   20  C   UNL     1      44.444 -12.179   9.494  1.00  0.00     0.236 C 
HETATM   21  O   UNL     1      45.061 -12.945  10.239  1.00  0.00    -0.272 OA
HETATM   22  H   UNL     1      43.399 -12.021   7.655  1.00  0.00     0.190 HD
BRANCH  20  23
HETATM   23  C   UNL     1      44.188 -10.733   9.865  1.00  0.00     0.113 C 
BRANCH  23  24
HETATM   24  C   UNL     1      42.761 -10.424  10.345  1.00  0.00     0.023 C 
HETATM   25  C   UNL     1      41.972  -9.728   9.230  1.00  0.00     0.015 C 
BRANCH  24  26
HETATM   26  C   UNL     1      42.715  -9.596  11.617  1.00  0.00    -0.054 A 
HETATM   27  C   UNL     1      43.342 -10.020  12.799  1.00  0.00     0.007 A 
HETATM   28  C   UNL     1      43.280  -9.241  13.957  1.00  0.00     0.001 A 
HETATM   29  C   UNL     1      42.597  -8.027  13.947  1.00  0.00     0.000 A 
HETATM   30  C   UNL     1      41.975  -7.590  12.781  1.00  0.00     0.001 A 
HETATM   31  C   UNL     1      42.034  -8.368  11.623  1.00  0.00     0.007 A 
ENDBRANCH  24  26
ENDBRANCH  23  24
ENDBRANCH  20  23
ENDBRANCH   1  19
TORSDOF 7
ENDMDL
MODEL 5
REMARK VINA RESULT:      -8.4      8.500     12.172
REMARK  7 active torsions:
REMARK  status: ('A' for Active; 'I' for Inactive)
REMARK    1  A    between atoms: C_2  and  C_3 
REMARK    2  A    between atoms: C_2  and  C_9 
REMARK    3  A    between atoms: C_9  and  C_10 
REMARK       I    between atoms: C_10  and  N_11 
REMARK    4  A    between atoms: N_11  and  N_12 
REMARK       I    between atoms: N_12  and  C_13 
REMARK    5  A    between atoms: C_13  and  C_14 
REMARK    6  A    between atoms: C_18  and  C_19 
REMARK    7  A    between atoms: C_22  and  O_23 
ROOT
HETATM    1  N   UNL     1      41.653 -16.239  -0.658  1.00  0.00    -0.262 N 
HETATM    2  C   UNL     1      41.286 -14.948  -0.966  1.00  0.00     0.288 C 
HETATM    3  O   UNL     1      41.853 -13.974  -0.475  1.00  0.00    -0.264 OA
HETATM    4  H   UNL     1      41.178 -17.066  -1.015  1.00  0.00     0.190 HD
ENDROOT
BRANCH   2   5
HETATM    5  C   UNL     1      40.205 -14.832  -1.906  1.00  0.00     0.121 A 
HETATM    6  N   UNL     1      39.999 -15.746  -2.899  1.00  0.00    -0.272 N 
HETATM    7  H   UNL     1      40.559 -16.571  -3.096  1.00  0.00     0.189 HD
HETATM    8  N   UNL     1      38.918 -15.503  -3.657  1.00  0.00    -0.174 NA
HETATM    9  C   UNL     1      38.407 -14.364  -3.163  1.00  0.00     0.089 A 
HETATM   10  C   UNL     1      39.188 -13.911  -2.064  1.00  0.00     0.071 A 
BRANCH   9  11
HETATM   11  C   UNL     1      37.198 -13.747  -3.713  1.00  0.00    -0.005 A 
HETATM   12  C   UNL     1      36.314 -14.490  -4.505  1.00  0.00     0.016 A 
HETATM   13  C   UNL     1      35.138 -13.910  -4.994  1.00  0.00     0.037 A 
HETATM   14  C   UNL     1      34.826 -12.580  -4.706  1.00  0.00     0.068 A 
HETATM   15  C   UNL     1      35.711 -11.826  -3.938  1.00  0.00     0.037 A 
HETATM   16  C   UNL     1      36.888 -12.406  -3.444  1.00  0.00     0.016 A 
BRANCH  14  17
HETATM   17  O   UNL     1      33.643 -12.139  -5.233  1.00  0.00    -0.356 OA
HETATM   18  C   UNL     1      32.509 -12.170  -4.376  1.00  0.00     0.210 C 
ENDBRANCH  14  17
ENDBRANCH   9  11
ENDBRANCH   2   5
BRANCH   1  19
HETATM   19  N   UNL     1      42.689 -16.472   0.250  1.00  0.00    -0.267 N 
HETATM   20  C   UNL     1      42.337 -16.940   1.496  1.00  0.00     0.236 C 
HETATM   21  O   UNL     1      41.182 -17.283   1.761  1.00  0.00    -0.272 OA
HETATM   22  H   UNL     1      43.582 -16.035   0.037  1.00  0.00     0.190 HD
BRANCH  20  23
HETATM   23  C   UNL     1      43.472 -17.116   2.484  1.00  0.00     0.113 C 
BRANCH  23  24
HETATM   24  C   UNL     1      43.207 -18.126   3.611  1.00  0.00     0.023 C 
HETATM   25  C   UNL     1      43.860 -17.643   4.912  1.00  0.00     0.015 C 
BRANCH  24  26
HETATM   26  C   UNL     1      43.668 -19.536   3.284  1.00  0.00    -0.054 A 
HETATM   27  C   UNL     1      43.372 -20.144   2.054  1.00  0.00     0.007 A 
HETATM   28  C   UNL     1      43.805 -21.444   1.781  1.00  0.00     0.001 A 
HETATM   29  C   UNL     1      44.541 -22.150   2.729  1.00  0.00     0.000 A 
HETATM   30  C   UNL     1      44.847 -21.558   3.951  1.00  0.00     0.001 A 
HETATM   31  C   UNL     1      44.414 -20.259   4.228  1.00  0.00     0.007 A 
ENDBRANCH  24  26
ENDBRANCH  23  24
ENDBRANCH  20  23
ENDBRANCH   1  19
TORSDOF 7
ENDMDL
MODEL 6
REMARK VINA RESULT:      -8.1      2.464     11.291
REMARK  7 active torsions:
REMARK  status: ('A' for Active; 'I' for Inactive)
REMARK    1  A    between atoms: C_2  and  C_3 
REMARK    2  A    between atoms: C_2  and  C_9 
REMARK    3  A    between atoms: C_9  and  C_10 
REMARK       I    between atoms: C_10  and  N_11 
REMARK    4  A    between atoms: N_11  and  N_12 
REMARK       I    between atoms: N_12  and  C_13 
REMARK    5  A    between atoms: C_13  and  C_14 
REMARK    6  A    between atoms: C_18  and  C_19 
REMARK    7  A    between atoms: C_22  and  O_23 
ROOT
HETATM    1  N   UNL     1      42.858 -12.878   6.960  1.00  0.00    -0.262 N 
HETATM    2  C   UNL     1      43.792 -13.888   7.037  1.00  0.00     0.288 C 
HETATM    3  O   UNL     1      44.672 -13.898   7.896  1.00  0.00    -0.264 OA
HETATM    4  H   UNL     1      42.143 -12.819   6.239  1.00  0.00     0.190 HD
ENDROOT
BRANCH   2   5
HETATM    5  C   UNL     1      43.649 -14.924   6.051  1.00  0.00     0.121 A 
HETATM    6  N   UNL     1      42.952 -14.737   4.892  1.00  0.00    -0.272 N 
HETATM    7  H   UNL     1      42.464 -13.895   4.601  1.00  0.00     0.189 HD
HETATM    8  N   UNL     1      42.959 -15.797   4.069  1.00  0.00    -0.174 NA
HETATM    9  C   UNL     1      43.663 -16.733   4.726  1.00  0.00     0.089 A 
HETATM   10  C   UNL     1      44.112 -16.222   5.975  1.00  0.00     0.071 A 
BRANCH   9  11
HETATM   11  C   UNL     1      43.915 -18.060   4.161  1.00  0.00    -0.005 A 
HETATM   12  C   UNL     1      44.593 -19.035   4.904  1.00  0.00     0.016 A 
HETATM   13  C   UNL     1      44.796 -20.316   4.378  1.00  0.00     0.037 A 
HETATM   14  C   UNL     1      44.331 -20.646   3.104  1.00  0.00     0.068 A 
HETATM   15  C   UNL     1      43.674 -19.676   2.349  1.00  0.00     0.037 A 
HETATM   16  C   UNL     1      43.468 -18.393   2.875  1.00  0.00     0.016 A 
BRANCH  14  17
HETATM   17  O   UNL     1      44.582 -21.933   2.715  1.00  0.00    -0.356 OA
HETATM   18  C   UNL     1      44.640 -22.914   3.743  1.00  0.00     0.210 C 
ENDBRANCH  14  17
ENDBRANCH   9  11
ENDBRANCH   2   5
BRANCH   1  19
HETATM   19  N   UNL     1      42.904 -11.815   7.866  1.00  0.00    -0.267 N 
HETATM   20  C   UNL     1      41.854 -10.924   7.839  1.00  0.00     0.236 C 
HETATM   21  O   UNL     1      40.845 -11.125   7.159  1.00  0.00    -0.272 OA
HETATM   22  H   UNL     1      43.810 -11.615   8.282  1.00  0.00     0.190 HD
BRANCH  20  23
HETATM   23  C   UNL     1      41.964  -9.742   8.781  1.00  0.00     0.113 C 
BRANCH  23  24
HETATM   24  C   UNL     1      41.039  -9.796  10.007  1.00  0.00     0.023 C 
HETATM   25  C   UNL     1      39.996  -8.674   9.927  1.00  0.00     0.015 C 
BRANCH  24  26
HETATM   26  C   UNL     1      41.781  -9.730  11.331  1.00  0.00    -0.054 A 
HETATM   27  C   UNL     1      42.130 -10.889  12.041  1.00  0.00     0.007 A 
HETATM   28  C   UNL     1      42.809 -10.800  13.258  1.00  0.00     0.001 A 
HETATM   29  C   UNL     1      43.152  -9.555  13.779  1.00  0.00     0.000 A 
HETATM   30  C   UNL     1      42.817  -8.397  13.082  1.00  0.00     0.001 A 
HETATM   31  C   UNL     1      42.137  -8.483  11.866  1.00  0.00     0.007 A 
ENDBRANCH  24  26
ENDBRANCH  23  24
ENDBRANCH  20  23
ENDBRANCH   1  19
TORSDOF 7
ENDMDL
MODEL 7
REMARK VINA RESULT:      -8.0      3.284     11.135
REMARK  7 active torsions:
REMARK  status: ('A' for Active; 'I' for Inactive)
REMARK    1  A    between atoms: C_2  and  C_3 
REMARK    2  A    between atoms: C_2  and  C_9 
REMARK    3  A    between atoms: C_9  and  C_10 
REMARK       I    between atoms: C_10  and  N_11 
REMARK    4  A    between atoms: N_11  and  N_12 
REMARK       I    between atoms: N_12  and  C_13 
REMARK    5  A    between atoms: C_13  and  C_14 
REMARK    6  A    between atoms: C_18  and  C_19 
REMARK    7  A    between atoms: C_22  and  O_23 
ROOT
HETATM    1  N   UNL     1      41.327 -12.892   6.548  1.00  0.00    -0.262 N 
HETATM    2  C   UNL     1      41.748 -13.023   5.243  1.00  0.00     0.288 C 
HETATM    3  O   UNL     1      42.071 -12.052   4.561  1.00  0.00    -0.264 OA
HETATM    4  H   UNL     1      41.014 -13.669   7.125  1.00  0.00     0.190 HD
ENDROOT
BRANCH   2   5
HETATM    5  C   UNL     1      41.788 -14.372   4.750  1.00  0.00     0.121 A 
HETATM    6  N   UNL     1      40.687 -14.994   4.232  1.00  0.00    -0.272 N 
HETATM    7  H   UNL     1      39.752 -14.607   4.146  1.00  0.00     0.189 HD
HETATM    8  N   UNL     1      40.918 -16.237   3.781  1.00  0.00    -0.174 NA
HETATM    9  C   UNL     1      42.217 -16.457   4.041  1.00  0.00     0.089 A 
HETATM   10  C   UNL     1      42.797 -15.310   4.650  1.00  0.00     0.071 A 
BRANCH   9  11
HETATM   11  C   UNL     1      42.881 -17.714   3.693  1.00  0.00    -0.005 A 
HETATM   12  C   UNL     1      42.712 -18.285   2.425  1.00  0.00     0.016 A 
HETATM   13  C   UNL     1      43.381 -19.465   2.081  1.00  0.00     0.037 A 
HETATM   14  C   UNL     1      44.226 -20.098   2.995  1.00  0.00     0.068 A 
HETATM   15  C   UNL     1      44.382 -19.550   4.266  1.00  0.00     0.037 A 
HETATM   16  C   UNL     1      43.715 -18.366   4.612  1.00  0.00     0.016 A 
BRANCH  14  17
HETATM   17  O   UNL     1      44.828 -21.234   2.530  1.00  0.00    -0.356 OA
HETATM   18  C   UNL     1      44.126 -21.972   1.537  1.00  0.00     0.210 C 
ENDBRANCH  14  17
ENDBRANCH   9  11
ENDBRANCH   2   5
BRANCH   1  19
HETATM   19  N   UNL     1      41.244 -11.624   7.130  1.00  0.00    -0.267 N 
HETATM   20  C   UNL     1      40.025 -11.254   7.653  1.00  0.00     0.236 C 
HETATM   21  O   UNL     1      39.086 -12.049   7.744  1.00  0.00    -0.272 OA
HETATM   22  H   UNL     1      41.984 -10.969   6.893  1.00  0.00     0.190 HD
BRANCH  20  23
HETATM   23  C   UNL     1      39.943  -9.849   8.214  1.00  0.00     0.113 C 
BRANCH  23  24
HETATM   24  C   UNL     1      39.601  -9.761   9.710  1.00  0.00     0.023 C 
HETATM   25  C   UNL     1      39.077  -8.360  10.046  1.00  0.00     0.015 C 
BRANCH  24  26
HETATM   26  C   UNL     1      40.762 -10.121  10.620  1.00  0.00    -0.054 A 
HETATM   27  C   UNL     1      40.610 -11.005  11.699  1.00  0.00     0.007 A 
HETATM   28  C   UNL     1      41.694 -11.315  12.523  1.00  0.00     0.001 A 
HETATM   29  C   UNL     1      42.943 -10.751  12.278  1.00  0.00     0.000 A 
HETATM   30  C   UNL     1      43.111  -9.877  11.208  1.00  0.00     0.001 A 
HETATM   31  C   UNL     1      42.029  -9.564  10.383  1.00  0.00     0.007 A 
ENDBRANCH  24  26
ENDBRANCH  23  24
ENDBRANCH  20  23
ENDBRANCH   1  19
TORSDOF 7
ENDMDL
MODEL 8
REMARK VINA RESULT:      -7.9      7.877     11.188
REMARK  7 active torsions:
REMARK  status: ('A' for Active; 'I' for Inactive)
REMARK    1  A    between atoms: C_2  and  C_3 
REMARK    2  A    between atoms: C_2  and  C_9 
REMARK    3  A    between atoms: C_9  and  C_10 
REMARK       I    between atoms: C_10  and  N_11 
REMARK    4  A    between atoms: N_11  and  N_12 
REMARK       I    between atoms: N_12  and  C_13 
REMARK    5  A    between atoms: C_13  and  C_14 
REMARK    6  A    between atoms: C_18  and  C_19 
REMARK    7  A    between atoms: C_22  and  O_23 
ROOT
HETATM    1  N   UNL     1      42.168 -16.403  -0.017  1.00  0.00    -0.262 N 
HETATM    2  C   UNL     1      41.291 -15.343  -0.069  1.00  0.00     0.288 C 
HETATM    3  O   UNL     1      40.394 -15.197   0.759  1.00  0.00    -0.264 OA
HETATM    4  H   UNL     1      42.894 -16.575  -0.710  1.00  0.00     0.190 HD
ENDROOT
BRANCH   2   5
HETATM    5  C   UNL     1      41.512 -14.424  -1.152  1.00  0.00     0.121 A 
HETATM    6  N   UNL     1      41.543 -14.827  -2.457  1.00  0.00    -0.272 N 
HETATM    7  H   UNL     1      41.432 -15.775  -2.806  1.00  0.00     0.189 HD
HETATM    8  N   UNL     1      41.717 -13.829  -3.337  1.00  0.00    -0.174 NA
HETATM    9  C   UNL     1      41.838 -12.726  -2.581  1.00  0.00     0.089 A 
HETATM   10  C   UNL     1      41.715 -13.060  -1.204  1.00  0.00     0.071 A 
BRANCH   9  11
HETATM   11  C   UNL     1      42.038 -11.398  -3.164  1.00  0.00    -0.005 A 
HETATM   12  C   UNL     1      42.029 -10.254  -2.355  1.00  0.00     0.016 A 
HETATM   13  C   UNL     1      42.262  -8.990  -2.908  1.00  0.00     0.037 A 
HETATM   14  C   UNL     1      42.506  -8.844  -4.275  1.00  0.00     0.068 A 
HETATM   15  C   UNL     1      42.495  -9.973  -5.091  1.00  0.00     0.037 A 
HETATM   16  C   UNL     1      42.264 -11.241  -4.539  1.00  0.00     0.016 A 
BRANCH  14  17
HETATM   17  O   UNL     1      42.732  -7.559  -4.685  1.00  0.00    -0.356 OA
HETATM   18  C   UNL     1      42.964  -7.361  -6.074  1.00  0.00     0.210 C 
ENDBRANCH  14  17
ENDBRANCH   9  11
ENDBRANCH   2   5
BRANCH   1  19
HETATM   19  N   UNL     1      42.044 -17.363   0.991  1.00  0.00    -0.267 N 
HETATM   20  C   UNL     1      43.210 -17.881   1.510  1.00  0.00     0.236 C 
HETATM   21  O   UNL     1      44.315 -17.421   1.215  1.00  0.00    -0.272 OA
HETATM   22  H   UNL     1      41.133 -17.807   1.081  1.00  0.00     0.190 HD
BRANCH  20  23
HETATM   23  C   UNL     1      43.045 -18.970   2.550  1.00  0.00     0.113 C 
BRANCH  23  24
HETATM   24  C   UNL     1      44.184 -19.069   3.578  1.00  0.00     0.023 C 
HETATM   25  C   UNL     1      44.667 -20.521   3.686  1.00  0.00     0.015 C 
BRANCH  24  26
HETATM   26  C   UNL     1      43.812 -18.536   4.950  1.00  0.00    -0.054 A 
HETATM   27  C   UNL     1      42.565 -17.942   5.200  1.00  0.00     0.007 A 
HETATM   28  C   UNL     1      42.250 -17.456   6.471  1.00  0.00     0.001 A 
HETATM   29  C   UNL     1      43.174 -17.560   7.508  1.00  0.00     0.000 A 
HETATM   30  C   UNL     1      44.413 -18.151   7.277  1.00  0.00     0.001 A 
HETATM   31  C   UNL     1      44.731 -18.637   6.007  1.00  0.00     0.007 A 
ENDBRANCH  24  26
ENDBRANCH  23  24
ENDBRANCH  20  23
ENDBRANCH   1  19
TORSDOF 7
ENDMDL
MODEL 9
REMARK VINA RESULT:      -7.8      8.149     10.356
REMARK  7 active torsions:
REMARK  status: ('A' for Active; 'I' for Inactive)
REMARK    1  A    between atoms: C_2  and  C_3 
REMARK    2  A    between atoms: C_2  and  C_9 
REMARK    3  A    between atoms: C_9  and  C_10 
REMARK       I    between atoms: C_10  and  N_11 
REMARK    4  A    between atoms: N_11  and  N_12 
REMARK       I    between atoms: N_12  and  C_13 
REMARK    5  A    between atoms: C_13  and  C_14 
REMARK    6  A    between atoms: C_18  and  C_19 
REMARK    7  A    between atoms: C_22  and  O_23 
ROOT
HETATM    1  N   UNL     1      39.199 -15.738   1.768  1.00  0.00    -0.262 N 
HETATM    2  C   UNL     1      39.541 -14.476   2.200  1.00  0.00     0.288 C 
HETATM    3  O   UNL     1      40.566 -14.262   2.845  1.00  0.00    -0.264 OA
HETATM    4  H   UNL     1      38.339 -15.954   1.269  1.00  0.00     0.190 HD
ENDROOT
BRANCH   2   5
HETATM    5  C   UNL     1      38.619 -13.437   1.830  1.00  0.00     0.121 A 
HETATM    6  N   UNL     1      38.566 -12.241   2.487  1.00  0.00    -0.272 N 
HETATM    7  H   UNL     1      39.130 -11.954   3.282  1.00  0.00     0.189 HD
HETATM    8  N   UNL     1      37.675 -11.373   1.980  1.00  0.00    -0.174 NA
HETATM    9  C   UNL     1      37.095 -12.036   0.967  1.00  0.00     0.089 A 
HETATM   10  C   UNL     1      37.661 -13.335   0.842  1.00  0.00     0.071 A 
BRANCH   9  11
HETATM   11  C   UNL     1      36.053 -11.432   0.133  1.00  0.00    -0.005 A 
HETATM   12  C   UNL     1      36.251 -11.255  -1.242  1.00  0.00     0.016 A 
HETATM   13  C   UNL     1      35.238 -10.717  -2.043  1.00  0.00     0.037 A 
HETATM   14  C   UNL     1      34.013 -10.342  -1.487  1.00  0.00     0.068 A 
HETATM   15  C   UNL     1      33.815 -10.494  -0.117  1.00  0.00     0.037 A 
HETATM   16  C   UNL     1      34.828 -11.035   0.688  1.00  0.00     0.016 A 
BRANCH  14  17
HETATM   17  O   UNL     1      33.106  -9.843  -2.380  1.00  0.00    -0.356 OA
HETATM   18  C   UNL     1      33.546  -9.687  -3.723  1.00  0.00     0.210 C 
ENDBRANCH  14  17
ENDBRANCH   9  11
ENDBRANCH   2   5
BRANCH   1  19
HETATM   19  N   UNL     1      40.019 -16.827   2.075  1.00  0.00    -0.267 N 
HETATM   20  C   UNL     1      40.955 -17.191   1.132  1.00  0.00     0.236 C 
HETATM   21  O   UNL     1      41.170 -16.507   0.129  1.00  0.00    -0.272 OA
HETATM   22  H   UNL     1      39.701 -17.434   2.826  1.00  0.00     0.190 HD
BRANCH  20  23
HETATM   23  C   UNL     1      41.782 -18.417   1.460  1.00  0.00     0.113 C 
BRANCH  23  24
HETATM   24  C   UNL     1      43.067 -18.145   2.260  1.00  0.00     0.023 C 
HETATM   25  C   UNL     1      44.087 -17.413   1.379  1.00  0.00     0.015 C 
BRANCH  24  26
HETATM   26  C   UNL     1      43.688 -19.396   2.855  1.00  0.00    -0.054 A 
HETATM   27  C   UNL     1      44.193 -19.421   4.164  1.00  0.00     0.007 A 
HETATM   28  C   UNL     1      44.763 -20.584   4.686  1.00  0.00     0.001 A 
HETATM   29  C   UNL     1      44.832 -21.738   3.909  1.00  0.00     0.000 A 
HETATM   30  C   UNL     1      44.330 -21.731   2.611  1.00  0.00     0.001 A 
HETATM   31  C   UNL     1      43.761 -20.569   2.086  1.00  0.00     0.007 A 
ENDBRANCH  24  26
ENDBRANCH  23  24
ENDBRANCH  20  23
ENDBRANCH   1  19
TORSDOF 7
ENDMDL
MODEL 10
REMARK VINA RESULT:      -7.8      7.874     11.501
REMARK  7 active torsions:
REMARK  status: ('A' for Active; 'I' for Inactive)
REMARK    1  A    between atoms: C_2  and  C_3 
REMARK    2  A    between atoms: C_2  and  C_9 
REMARK    3  A    between atoms: C_9  and  C_10 
REMARK       I    between atoms: C_10  and  N_11 
REMARK    4  A    between atoms: N_11  and  N_12 
REMARK       I    between atoms: N_12  and  C_13 
REMARK    5  A    between atoms: C_13  and  C_14 
REMARK    6  A    between atoms: C_18  and  C_19 
REMARK    7  A    between atoms: C_22  and  O_23 
ROOT
HETATM    1  N   UNL     1      42.304 -15.891   0.295  1.00  0.00    -0.262 N 
HETATM    2  C   UNL     1      41.001 -15.444   0.285  1.00  0.00     0.288 C 
HETATM    3  O   UNL     1      40.192 -15.773   1.151  1.00  0.00    -0.264 OA
HETATM    4  H   UNL     1      42.985 -15.672  -0.427  1.00  0.00     0.190 HD
ENDROOT
BRANCH   2   5
HETATM    5  C   UNL     1      40.669 -14.564  -0.802  1.00  0.00     0.121 A 
HETATM    6  N   UNL     1      39.388 -14.401  -1.244  1.00  0.00    -0.272 N 
HETATM    7  H   UNL     1      38.555 -14.863  -0.889  1.00  0.00     0.189 HD
HETATM    8  N   UNL     1      39.258 -13.508  -2.238  1.00  0.00    -0.174 NA
HETATM    9  C   UNL     1      40.509 -13.089  -2.483  1.00  0.00     0.089 A 
HETATM   10  C   UNL     1      41.423 -13.730  -1.602  1.00  0.00     0.071 A 
BRANCH   9  11
HETATM   11  C   UNL     1      40.811 -12.090  -3.510  1.00  0.00    -0.005 A 
HETATM   12  C   UNL     1      42.133 -11.843  -3.901  1.00  0.00     0.016 A 
HETATM   13  C   UNL     1      42.416 -10.918  -4.912  1.00  0.00     0.037 A 
HETATM   14  C   UNL     1      41.387 -10.221  -5.548  1.00  0.00     0.068 A 
HETATM   15  C   UNL     1      40.070 -10.443  -5.151  1.00  0.00     0.037 A 
HETATM   16  C   UNL     1      39.784 -11.371  -4.140  1.00  0.00     0.016 A 
BRANCH  14  17
HETATM   17  O   UNL     1      41.796  -9.357  -6.526  1.00  0.00    -0.356 OA
HETATM   18  C   UNL     1      41.577  -9.762  -7.872  1.00  0.00     0.210 C 
ENDBRANCH  14  17
ENDBRANCH   9  11
ENDBRANCH   2   5
BRANCH   1  19
HETATM   19  N   UNL     1      42.737 -16.758   1.303  1.00  0.00    -0.267 N 
HETATM   20  C   UNL     1      43.365 -16.190   2.389  1.00  0.00     0.236 C 
HETATM   21  O   UNL     1      43.417 -14.969   2.548  1.00  0.00    -0.272 OA
HETATM   22  H   UNL     1      42.807 -17.741   1.053  1.00  0.00     0.190 HD
BRANCH  20  23
HETATM   23  C   UNL     1      43.887 -17.158   3.432  1.00  0.00     0.113 C 
BRANCH  23  24
HETATM   24  C   UNL     1      42.960 -18.344   3.745  1.00  0.00     0.023 C 
HETATM   25  C   UNL     1      42.589 -18.340   5.233  1.00  0.00     0.015 C 
BRANCH  24  26
HETATM   26  C   UNL     1      43.543 -19.690   3.352  1.00  0.00    -0.054 A 
HETATM   27  C   UNL     1      44.360 -20.425   4.225  1.00  0.00     0.007 A 
HETATM   28  C   UNL     1      44.887 -21.659   3.836  1.00  0.00     0.001 A 
HETATM   29  C   UNL     1      44.601 -22.176   2.575  1.00  0.00     0.000 A 
HETATM   30  C   UNL     1      43.788 -21.460   1.701  1.00  0.00     0.001 A 
HETATM   31  C   UNL     1      43.261 -20.226   2.086  1.00  0.00     0.007 A 
ENDBRANCH  24  26
ENDBRANCH  23  24
ENDBRANCH  20  23
ENDBRANCH   1  19
TORSDOF 7
ENDMDL
