MODEL 1
REMARK VINA RESULT:      -9.1      0.000      0.000
REMARK  9 active torsions:
REMARK  status: ('A' for Active; 'I' for Inactive)
REMARK    1  A    between atoms: C_3  and  C_4 
REMARK    2  A    between atoms: C_4  and  C_5 
REMARK    3  A    between atoms: C_5  and  O_6 
REMARK    4  A    between atoms: C_16  and  O_17 
REMARK    5  A    between atoms: C_18  and  C_19 
REMARK    6  A    between atoms: C_19  and  N_20 
REMARK    7  A    between atoms: N_20  and  C_23 
REMARK    8  A    between atoms: N_26  and  C_28 
REMARK    9  A    between atoms: C_28  and  C_29 
ROOT
HETATM    1  C   UNL     1      44.966 -18.370   5.878  1.00  0.00     0.050 C 
HETATM    2  C   UNL     1      44.147 -18.632   4.639  1.00  0.00    -0.036 C 
HETATM    3  C   UNL     1      44.396 -19.643   3.778  1.00  0.00     0.034 C 
HETATM    4  C   UNL     1      43.628 -19.785   2.511  1.00  0.00     0.295 C 
HETATM    5  O   UNL     1      43.731 -20.776   1.800  1.00  0.00    -0.259 OA
HETATM    6  O   UNL     1      42.799 -18.736   2.163  1.00  0.00    -0.274 OA
HETATM    7  C   UNL     1      42.405 -17.764   3.100  1.00  0.00     0.099 A 
HETATM    8  C   UNL     1      43.019 -17.722   4.354  1.00  0.00     0.006 A 
HETATM    9  C   UNL     1      41.338 -16.922   2.733  1.00  0.00     0.007 A 
HETATM   10  C   UNL     1      40.733 -17.001   1.356  1.00  0.00     0.054 C 
HETATM   11  C   UNL     1      40.836 -16.060   3.714  1.00  0.00     0.082 A 
HETATM   12  C   UNL     1      41.391 -16.022   5.005  1.00  0.00     0.002 A 
HETATM   13  C   UNL     1      42.496 -16.834   5.304  1.00  0.00     0.026 A 
ENDROOT
BRANCH  12  14
HETATM   14  C   UNL     1      40.749 -15.191   6.079  1.00  0.00     0.274 C 
BRANCH  14  15
HETATM   15  N   UNL     1      41.132 -13.752   5.864  1.00  0.00    -0.067 N 
HETATM   16  H   UNL     1      41.797 -13.526   6.616  1.00  0.00     0.277 HD
HETATM   17  H   UNL     1      41.738 -13.765   5.026  1.00  0.00     0.277 HD
BRANCH  15  18
HETATM   18  C   UNL     1      40.092 -12.687   5.657  1.00  0.00     0.189 C 
HETATM   19  C   UNL     1      39.187 -12.420   6.857  1.00  0.00     0.060 C 
HETATM   20  C   UNL     1      39.696 -11.388   7.859  1.00  0.00     0.237 C 
HETATM   21  N   UNL     1      41.176 -11.161   7.709  1.00  0.00    -0.067 N 
HETATM   22  H   UNL     1      41.661 -12.051   7.896  1.00  0.00     0.280 HD
HETATM   23  C   UNL     1      41.554 -10.666   6.336  1.00  0.00     0.237 C 
HETATM   24  C   UNL     1      40.793 -11.398   5.225  1.00  0.00     0.060 C 
BRANCH  21  25
HETATM   25  C   UNL     1      41.761 -10.262   8.822  1.00  0.00     0.273 C 
BRANCH  25  26
HETATM   26  C   UNL     1      43.023 -10.751   9.475  1.00  0.00    -0.033 A 
HETATM   27  C   UNL     1      43.361 -10.305  10.765  1.00  0.00     0.009 A 
HETATM   28  C   UNL     1      44.549 -10.714  11.367  1.00  0.00     0.001 A 
HETATM   29  C   UNL     1      45.411 -11.575  10.695  1.00  0.00     0.000 A 
HETATM   30  C   UNL     1      45.081 -12.036   9.422  1.00  0.00     0.001 A 
HETATM   31  C   UNL     1      43.890 -11.632   8.815  1.00  0.00     0.009 A 
ENDBRANCH  25  26
ENDBRANCH  21  25
ENDBRANCH  15  18
ENDBRANCH  14  15
ENDBRANCH  12  14
BRANCH  11  32
HETATM   32  O   UNL     1      39.732 -15.267   3.478  1.00  0.00    -0.359 OA
HETATM   33  H   UNL     1      39.546 -15.371   2.517  1.00  0.00     0.217 HD
ENDBRANCH  11  32
BRANCH   3  34
HETATM   34  C   UNL     1      45.427 -20.737   3.953  1.00  0.00     0.156 C 
BRANCH  34  35
HETATM   35  C   UNL     1      44.827 -21.939   4.657  1.00  0.00     0.262 C 
HETATM   36  O   UNL     1      44.380 -22.928   4.091  1.00  0.00    -0.265 OA
BRANCH  35  37
HETATM   37  O   UNL     1      44.916 -21.764   6.003  1.00  0.00    -0.326 OA
HETATM   38  C   UNL     1      43.660 -21.616   6.670  1.00  0.00     0.213 C 
ENDBRANCH  35  37
ENDBRANCH  34  35
ENDBRANCH   3  34
TORSDOF 9
ENDMDL
MODEL 2
REMARK VINA RESULT:      -8.7      3.883      8.723
REMARK  9 active torsions:
REMARK  status: ('A' for Active; 'I' for Inactive)
REMARK    1  A    between atoms: C_3  and  C_4 
REMARK    2  A    between atoms: C_4  and  C_5 
REMARK    3  A    between atoms: C_5  and  O_6 
REMARK    4  A    between atoms: C_16  and  O_17 
REMARK    5  A    between atoms: C_18  and  C_19 
REMARK    6  A    between atoms: C_19  and  N_20 
REMARK    7  A    between atoms: N_20  and  C_23 
REMARK    8  A    between atoms: N_26  and  C_28 
REMARK    9  A    between atoms: C_28  and  C_29 
ROOT
HETATM    1  C   UNL     1      40.453 -11.198   1.203  1.00  0.00     0.050 C 
HETATM    2  C   UNL     1      40.800 -12.512   0.550  1.00  0.00    -0.036 C 
HETATM    3  C   UNL     1      41.105 -12.640  -0.760  1.00  0.00     0.034 C 
HETATM    4  C   UNL     1      41.325 -13.977  -1.375  1.00  0.00     0.295 C 
HETATM    5  O   UNL     1      41.754 -14.102  -2.515  1.00  0.00    -0.259 OA
HETATM    6  O   UNL     1      41.009 -15.078  -0.603  1.00  0.00    -0.274 OA
HETATM    7  C   UNL     1      40.846 -14.982   0.790  1.00  0.00     0.099 A 
HETATM    8  C   UNL     1      40.792 -13.724   1.396  1.00  0.00     0.006 A 
HETATM    9  C   UNL     1      40.823 -16.189   1.514  1.00  0.00     0.007 A 
HETATM   10  C   UNL     1      40.862 -17.515   0.800  1.00  0.00     0.054 C 
HETATM   11  C   UNL     1      40.821 -16.099   2.910  1.00  0.00     0.082 A 
HETATM   12  C   UNL     1      40.818 -14.853   3.560  1.00  0.00     0.002 A 
HETATM   13  C   UNL     1      40.775 -13.677   2.796  1.00  0.00     0.026 A 
ENDROOT
BRANCH  12  14
HETATM   14  C   UNL     1      40.954 -14.781   5.054  1.00  0.00     0.274 C 
BRANCH  14  15
HETATM   15  N   UNL     1      42.259 -15.417   5.448  1.00  0.00    -0.067 N 
HETATM   16  H   UNL     1      42.469 -16.102   4.710  1.00  0.00     0.277 HD
HETATM   17  H   UNL     1      42.969 -14.683   5.279  1.00  0.00     0.277 HD
BRANCH  15  18
HETATM   18  C   UNL     1      42.484 -15.955   6.833  1.00  0.00     0.189 C 
HETATM   19  C   UNL     1      41.996 -17.384   7.062  1.00  0.00     0.060 C 
HETATM   20  C   UNL     1      42.995 -18.489   6.732  1.00  0.00     0.237 C 
HETATM   21  N   UNL     1      44.094 -17.986   5.836  1.00  0.00    -0.067 N 
HETATM   22  H   UNL     1      43.671 -17.667   4.952  1.00  0.00     0.280 HD
HETATM   23  C   UNL     1      44.877 -16.854   6.451  1.00  0.00     0.237 C 
HETATM   24  C   UNL     1      43.973 -15.843   7.165  1.00  0.00     0.060 C 
BRANCH  21  25
HETATM   25  C   UNL     1      45.022 -19.115   5.332  1.00  0.00     0.273 C 
BRANCH  25  26
HETATM   26  C   UNL     1      44.575 -19.838   4.093  1.00  0.00    -0.033 A 
HETATM   27  C   UNL     1      43.849 -19.149   3.105  1.00  0.00     0.009 A 
HETATM   28  C   UNL     1      43.390 -19.814   1.970  1.00  0.00     0.001 A 
HETATM   29  C   UNL     1      43.651 -21.170   1.804  1.00  0.00     0.000 A 
HETATM   30  C   UNL     1      44.382 -21.862   2.767  1.00  0.00     0.001 A 
HETATM   31  C   UNL     1      44.848 -21.200   3.905  1.00  0.00     0.009 A 
ENDBRANCH  25  26
ENDBRANCH  21  25
ENDBRANCH  15  18
ENDBRANCH  14  15
ENDBRANCH  12  14
BRANCH  11  32
HETATM   32  O   UNL     1      40.895 -17.226   3.703  1.00  0.00    -0.359 OA
HETATM   33  H   UNL     1      41.382 -17.886   3.160  1.00  0.00     0.217 HD
ENDBRANCH  11  32
BRANCH   3  34
HETATM   34  C   UNL     1      41.273 -11.512  -1.755  1.00  0.00     0.156 C 
BRANCH  34  35
HETATM   35  C   UNL     1      42.711 -11.032  -1.793  1.00  0.00     0.262 C 
HETATM   36  O   UNL     1      43.492 -11.090  -0.851  1.00  0.00    -0.265 OA
BRANCH  35  37
HETATM   37  O   UNL     1      43.004 -10.583  -3.043  1.00  0.00    -0.326 OA
HETATM   38  C   UNL     1      42.011 -10.874  -4.029  1.00  0.00     0.213 C 
ENDBRANCH  35  37
ENDBRANCH  34  35
ENDBRANCH   3  34
TORSDOF 9
ENDMDL
MODEL 3
REMARK VINA RESULT:      -8.7      4.747      8.443
REMARK  9 active torsions:
REMARK  status: ('A' for Active; 'I' for Inactive)
REMARK    1  A    between atoms: C_3  and  C_4 
REMARK    2  A    between atoms: C_4  and  C_5 
REMARK    3  A    between atoms: C_5  and  O_6 
REMARK    4  A    between atoms: C_16  and  O_17 
REMARK    5  A    between atoms: C_18  and  C_19 
REMARK    6  A    between atoms: C_19  and  N_20 
REMARK    7  A    between atoms: N_20  and  C_23 
REMARK    8  A    between atoms: N_26  and  C_28 
REMARK    9  A    between atoms: C_28  and  C_29 
ROOT
HETATM    1  C   UNL     1      41.971 -15.616   1.007  1.00  0.00     0.050 C 
HETATM    2  C   UNL     1      40.824 -14.666   0.774  1.00  0.00    -0.036 C 
HETATM    3  C   UNL     1      40.269 -14.445  -0.438  1.00  0.00     0.034 C 
HETATM    4  C   UNL     1      39.216 -13.410  -0.628  1.00  0.00     0.295 C 
HETATM    5  O   UNL     1      38.595 -13.305  -1.678  1.00  0.00    -0.259 OA
HETATM    6  O   UNL     1      38.979 -12.559   0.434  1.00  0.00    -0.274 OA
HETATM    7  C   UNL     1      39.417 -12.861   1.735  1.00  0.00     0.099 A 
HETATM    8  C   UNL     1      40.290 -13.932   1.941  1.00  0.00     0.006 A 
HETATM    9  C   UNL     1      38.876 -12.093   2.784  1.00  0.00     0.007 A 
HETATM   10  C   UNL     1      37.957 -10.935   2.495  1.00  0.00     0.054 C 
HETATM   11  C   UNL     1      39.183 -12.487   4.090  1.00  0.00     0.082 A 
HETATM   12  C   UNL     1      40.016 -13.590   4.343  1.00  0.00     0.002 A 
HETATM   13  C   UNL     1      40.584 -14.286   3.265  1.00  0.00     0.026 A 
ENDROOT
BRANCH  12  14
HETATM   14  C   UNL     1      40.219 -14.077   5.749  1.00  0.00     0.274 C 
BRANCH  14  15
HETATM   15  N   UNL     1      41.450 -14.941   5.784  1.00  0.00    -0.067 N 
HETATM   16  H   UNL     1      41.851 -14.892   4.838  1.00  0.00     0.277 HD
HETATM   17  H   UNL     1      42.132 -14.400   6.344  1.00  0.00     0.277 HD
BRANCH  15  18
HETATM   18  C   UNL     1      41.413 -16.338   6.338  1.00  0.00     0.189 C 
HETATM   19  C   UNL     1      40.804 -17.388   5.412  1.00  0.00     0.060 C 
HETATM   20  C   UNL     1      41.769 -18.058   4.439  1.00  0.00     0.237 C 
HETATM   21  N   UNL     1      43.028 -17.252   4.272  1.00  0.00    -0.067 N 
HETATM   22  H   UNL     1      42.775 -16.331   3.883  1.00  0.00     0.280 HD
HETATM   23  C   UNL     1      43.773 -17.057   5.569  1.00  0.00     0.237 C 
HETATM   24  C   UNL     1      42.833 -16.742   6.737  1.00  0.00     0.060 C 
BRANCH  21  25
HETATM   25  C   UNL     1      43.950 -17.801   3.160  1.00  0.00     0.273 C 
BRANCH  25  26
HETATM   26  C   UNL     1      44.038 -19.297   3.049  1.00  0.00    -0.033 A 
HETATM   27  C   UNL     1      44.665 -20.038   4.067  1.00  0.00     0.009 A 
HETATM   28  C   UNL     1      44.794 -21.421   3.959  1.00  0.00     0.001 A 
HETATM   29  C   UNL     1      44.296 -22.082   2.841  1.00  0.00     0.000 A 
HETATM   30  C   UNL     1      43.659 -21.363   1.832  1.00  0.00     0.001 A 
HETATM   31  C   UNL     1      43.524 -19.976   1.936  1.00  0.00     0.009 A 
ENDBRANCH  25  26
ENDBRANCH  21  25
ENDBRANCH  15  18
ENDBRANCH  14  15
ENDBRANCH  12  14
BRANCH  11  32
HETATM   32  O   UNL     1      38.623 -11.856   5.182  1.00  0.00    -0.359 OA
HETATM   33  H   UNL     1      37.882 -12.441   5.461  1.00  0.00     0.217 HD
ENDBRANCH  11  32
BRANCH   3  34
HETATM   34  C   UNL     1      40.599 -15.175  -1.721  1.00  0.00     0.156 C 
BRANCH  34  35
HETATM   35  C   UNL     1      41.363 -14.276  -2.674  1.00  0.00     0.262 C 
HETATM   36  O   UNL     1      41.085 -14.114  -3.856  1.00  0.00    -0.265 OA
BRANCH  35  37
HETATM   37  O   UNL     1      42.361 -13.646  -1.998  1.00  0.00    -0.326 OA
HETATM   38  C   UNL     1      42.590 -12.292  -2.395  1.00  0.00     0.213 C 
ENDBRANCH  35  37
ENDBRANCH  34  35
ENDBRANCH   3  34
TORSDOF 9
ENDMDL
MODEL 4
REMARK VINA RESULT:      -8.6      2.795      6.430
REMARK  9 active torsions:
REMARK  status: ('A' for Active; 'I' for Inactive)
REMARK    1  A    between atoms: C_3  and  C_4 
REMARK    2  A    between atoms: C_4  and  C_5 
REMARK    3  A    between atoms: C_5  and  O_6 
REMARK    4  A    between atoms: C_16  and  O_17 
REMARK    5  A    between atoms: C_18  and  C_19 
REMARK    6  A    between atoms: C_19  and  N_20 
REMARK    7  A    between atoms: N_20  and  C_23 
REMARK    8  A    between atoms: N_26  and  C_28 
REMARK    9  A    between atoms: C_28  and  C_29 
ROOT
HETATM    1  C   UNL     1      41.260 -18.059   5.083  1.00  0.00     0.050 C 
HETATM    2  C   UNL     1      42.554 -17.440   5.551  1.00  0.00    -0.036 C 
HETATM    3  C   UNL     1      43.699 -18.137   5.717  1.00  0.00     0.034 C 
HETATM    4  C   UNL     1      44.914 -17.499   6.292  1.00  0.00     0.295 C 
HETATM    5  O   UNL     1      45.999 -18.066   6.305  1.00  0.00    -0.259 OA
HETATM    6  O   UNL     1      44.760 -16.235   6.829  1.00  0.00    -0.274 OA
HETATM    7  C   UNL     1      43.642 -15.437   6.531  1.00  0.00     0.099 A 
HETATM    8  C   UNL     1      42.555 -15.994   5.852  1.00  0.00     0.006 A 
HETATM    9  C   UNL     1      43.720 -14.074   6.877  1.00  0.00     0.007 A 
HETATM   10  C   UNL     1      44.910 -13.540   7.630  1.00  0.00     0.054 C 
HETATM   11  C   UNL     1      42.682 -13.243   6.445  1.00  0.00     0.082 A 
HETATM   12  C   UNL     1      41.595 -13.753   5.715  1.00  0.00     0.002 A 
HETATM   13  C   UNL     1      41.528 -15.129   5.449  1.00  0.00     0.026 A 
ENDROOT
BRANCH  12  14
HETATM   14  C   UNL     1      40.565 -12.821   5.144  1.00  0.00     0.274 C 
BRANCH  14  15
HETATM   15  N   UNL     1      39.959 -13.463   3.926  1.00  0.00    -0.067 N 
HETATM   16  H   UNL     1      40.451 -14.359   3.811  1.00  0.00     0.277 HD
HETATM   17  H   UNL     1      39.017 -13.764   4.230  1.00  0.00     0.277 HD
BRANCH  15  18
HETATM   18  C   UNL     1      39.801 -12.707   2.637  1.00  0.00     0.189 C 
HETATM   19  C   UNL     1      41.081 -12.534   1.824  1.00  0.00     0.060 C 
HETATM   20  C   UNL     1      41.405 -13.658   0.844  1.00  0.00     0.237 C 
HETATM   21  N   UNL     1      40.650 -14.915   1.181  1.00  0.00    -0.067 N 
HETATM   22  H   UNL     1      40.936 -15.222   2.122  1.00  0.00     0.280 HD
HETATM   23  C   UNL     1      39.154 -14.722   1.153  1.00  0.00     0.237 C 
HETATM   24  C   UNL     1      38.727 -13.398   1.795  1.00  0.00     0.060 C 
BRANCH  21  25
HETATM   25  C   UNL     1      41.086 -16.126   0.325  1.00  0.00     0.273 C 
BRANCH  25  26
HETATM   26  C   UNL     1      42.120 -17.030   0.934  1.00  0.00    -0.033 A 
HETATM   27  C   UNL     1      41.771 -18.340   1.309  1.00  0.00     0.009 A 
HETATM   28  C   UNL     1      42.706 -19.176   1.915  1.00  0.00     0.001 A 
HETATM   29  C   UNL     1      43.999 -18.721   2.150  1.00  0.00     0.000 A 
HETATM   30  C   UNL     1      44.364 -17.431   1.770  1.00  0.00     0.001 A 
HETATM   31  C   UNL     1      43.432 -16.589   1.159  1.00  0.00     0.009 A 
ENDBRANCH  25  26
ENDBRANCH  21  25
ENDBRANCH  15  18
ENDBRANCH  14  15
ENDBRANCH  12  14
BRANCH  11  32
HETATM   32  O   UNL     1      42.719 -11.879   6.653  1.00  0.00    -0.359 OA
HETATM   33  H   UNL     1      42.266 -11.491   5.870  1.00  0.00     0.217 HD
ENDBRANCH  11  32
BRANCH   3  34
HETATM   34  C   UNL     1      43.925 -19.590   5.359  1.00  0.00     0.156 C 
BRANCH  34  35
HETATM   35  C   UNL     1      43.838 -20.471   6.591  1.00  0.00     0.262 C 
HETATM   36  O   UNL     1      43.486 -20.089   7.699  1.00  0.00    -0.265 OA
BRANCH  35  37
HETATM   37  O   UNL     1      44.160 -21.749   6.254  1.00  0.00    -0.326 OA
HETATM   38  C   UNL     1      44.928 -21.875   5.055  1.00  0.00     0.213 C 
ENDBRANCH  35  37
ENDBRANCH  34  35
ENDBRANCH   3  34
TORSDOF 9
ENDMDL
MODEL 5
REMARK VINA RESULT:      -8.6      4.447      8.825
REMARK  9 active torsions:
REMARK  status: ('A' for Active; 'I' for Inactive)
REMARK    1  A    between atoms: C_3  and  C_4 
REMARK    2  A    between atoms: C_4  and  C_5 
REMARK    3  A    between atoms: C_5  and  O_6 
REMARK    4  A    between atoms: C_16  and  O_17 
REMARK    5  A    between atoms: C_18  and  C_19 
REMARK    6  A    between atoms: C_19  and  N_20 
REMARK    7  A    between atoms: N_20  and  C_23 
REMARK    8  A    between atoms: N_26  and  C_28 
REMARK    9  A    between atoms: C_28  and  C_29 
ROOT
HETATM    1  C   UNL     1      41.187 -15.842  -0.520  1.00  0.00     0.050 C 
HETATM    2  C   UNL     1      40.293 -14.797   0.099  1.00  0.00    -0.036 C 
HETATM    3  C   UNL     1      39.433 -14.033  -0.608  1.00  0.00     0.034 C 
HETATM    4  C   UNL     1      38.660 -12.938   0.039  1.00  0.00     0.295 C 
HETATM    5  O   UNL     1      37.767 -12.342  -0.548  1.00  0.00    -0.259 OA
HETATM    6  O   UNL     1      39.008 -12.611   1.335  1.00  0.00    -0.274 OA
HETATM    7  C   UNL     1      39.773 -13.478   2.137  1.00  0.00     0.099 A 
HETATM    8  C   UNL     1      40.378 -14.598   1.561  1.00  0.00     0.006 A 
HETATM    9  C   UNL     1      39.820 -13.197   3.515  1.00  0.00     0.007 A 
HETATM   10  C   UNL     1      39.165 -11.959   4.071  1.00  0.00     0.054 C 
HETATM   11  C   UNL     1      40.444 -14.139   4.340  1.00  0.00     0.082 A 
HETATM   12  C   UNL     1      41.022 -15.305   3.809  1.00  0.00     0.002 A 
HETATM   13  C   UNL     1      41.007 -15.510   2.420  1.00  0.00     0.026 A 
ENDROOT
BRANCH  12  14
HETATM   14  C   UNL     1      41.563 -16.364   4.725  1.00  0.00     0.274 C 
BRANCH  14  15
HETATM   15  N   UNL     1      42.836 -15.856   5.345  1.00  0.00    -0.067 N 
HETATM   16  H   UNL     1      43.582 -16.084   4.675  1.00  0.00     0.277 HD
HETATM   17  H   UNL     1      42.772 -14.827   5.268  1.00  0.00     0.277 HD
BRANCH  15  18
HETATM   18  C   UNL     1      43.200 -16.182   6.767  1.00  0.00     0.189 C 
HETATM   19  C   UNL     1      42.488 -17.397   7.358  1.00  0.00     0.060 C 
HETATM   20  C   UNL     1      43.168 -18.744   7.130  1.00  0.00     0.237 C 
HETATM   21  N   UNL     1      44.161 -18.673   6.001  1.00  0.00    -0.067 N 
HETATM   22  H   UNL     1      43.654 -18.424   5.139  1.00  0.00     0.280 HD
HETATM   23  C   UNL     1      45.254 -17.663   6.248  1.00  0.00     0.237 C 
HETATM   24  C   UNL     1      44.717 -16.362   6.853  1.00  0.00     0.060 C 
BRANCH  21  25
HETATM   25  C   UNL     1      44.736 -20.056   5.620  1.00  0.00     0.273 C 
BRANCH  25  26
HETATM   26  C   UNL     1      44.459 -20.527   4.221  1.00  0.00    -0.033 A 
HETATM   27  C   UNL     1      43.904 -19.640   3.281  1.00  0.00     0.009 A 
HETATM   28  C   UNL     1      43.601 -20.073   1.992  1.00  0.00     0.001 A 
HETATM   29  C   UNL     1      43.849 -21.391   1.623  1.00  0.00     0.000 A 
HETATM   30  C   UNL     1      44.411 -22.277   2.539  1.00  0.00     0.001 A 
HETATM   31  C   UNL     1      44.721 -21.848   3.831  1.00  0.00     0.009 A 
ENDBRANCH  25  26
ENDBRANCH  21  25
ENDBRANCH  15  18
ENDBRANCH  14  15
ENDBRANCH  12  14
BRANCH  11  32
HETATM   32  O   UNL     1      40.455 -13.997   5.713  1.00  0.00    -0.359 OA
HETATM   33  H   UNL     1      40.649 -14.898   6.058  1.00  0.00     0.217 HD
ENDBRANCH  11  32
BRANCH   3  34
HETATM   34  C   UNL     1      39.125 -14.162  -2.084  1.00  0.00     0.156 C 
BRANCH  34  35
HETATM   35  C   UNL     1      40.314 -13.738  -2.925  1.00  0.00     0.262 C 
HETATM   36  O   UNL     1      40.967 -12.718  -2.746  1.00  0.00    -0.265 OA
BRANCH  35  37
HETATM   37  O   UNL     1      40.564 -14.691  -3.863  1.00  0.00    -0.326 OA
HETATM   38  C   UNL     1      39.628 -15.770  -3.883  1.00  0.00     0.213 C 
ENDBRANCH  35  37
ENDBRANCH  34  35
ENDBRANCH   3  34
TORSDOF 9
ENDMDL
MODEL 6
REMARK VINA RESULT:      -8.6      3.762      7.441
REMARK  9 active torsions:
REMARK  status: ('A' for Active; 'I' for Inactive)
REMARK    1  A    between atoms: C_3  and  C_4 
REMARK    2  A    between atoms: C_4  and  C_5 
REMARK    3  A    between atoms: C_5  and  O_6 
REMARK    4  A    between atoms: C_16  and  O_17 
REMARK    5  A    between atoms: C_18  and  C_19 
REMARK    6  A    between atoms: C_19  and  N_20 
REMARK    7  A    between atoms: N_20  and  C_23 
REMARK    8  A    between atoms: N_26  and  C_28 
REMARK    9  A    between atoms: C_28  and  C_29 
ROOT
HETATM    1  C   UNL     1      43.798 -17.803   1.194  1.00  0.00     0.050 C 
HETATM    2  C   UNL     1      43.857 -18.056   2.680  1.00  0.00    -0.036 C 
HETATM    3  C   UNL     1      44.337 -19.194   3.227  1.00  0.00     0.034 C 
HETATM    4  C   UNL     1      44.264 -19.436   4.693  1.00  0.00     0.295 C 
HETATM    5  O   UNL     1      44.831 -20.384   5.222  1.00  0.00    -0.259 OA
HETATM    6  O   UNL     1      43.510 -18.547   5.436  1.00  0.00    -0.274 OA
HETATM    7  C   UNL     1      43.140 -17.289   4.929  1.00  0.00     0.099 A 
HETATM    8  C   UNL     1      43.349 -16.998   3.578  1.00  0.00     0.006 A 
HETATM    9  C   UNL     1      42.641 -16.351   5.853  1.00  0.00     0.007 A 
HETATM   10  C   UNL     1      42.417 -16.734   7.292  1.00  0.00     0.054 C 
HETATM   11  C   UNL     1      42.420 -15.051   5.389  1.00  0.00     0.082 A 
HETATM   12  C   UNL     1      42.664 -14.702   4.050  1.00  0.00     0.002 A 
HETATM   13  C   UNL     1      43.101 -15.687   3.150  1.00  0.00     0.026 A 
ENDROOT
BRANCH  12  14
HETATM   14  C   UNL     1      42.551 -13.271   3.609  1.00  0.00     0.274 C 
BRANCH  14  15
HETATM   15  N   UNL     1      41.571 -13.196   2.470  1.00  0.00    -0.067 N 
HETATM   16  H   UNL     1      41.744 -12.291   2.013  1.00  0.00     0.277 HD
HETATM   17  H   UNL     1      41.929 -13.871   1.772  1.00  0.00     0.277 HD
BRANCH  15  18
HETATM   18  C   UNL     1      40.110 -13.484   2.672  1.00  0.00     0.189 C 
HETATM   19  C   UNL     1      39.174 -12.305   2.417  1.00  0.00     0.060 C 
HETATM   20  C   UNL     1      38.693 -12.136   0.979  1.00  0.00     0.237 C 
HETATM   21  N   UNL     1      39.573 -12.885   0.014  1.00  0.00    -0.067 N 
HETATM   22  H   UNL     1      40.527 -12.497   0.078  1.00  0.00     0.280 HD
HETATM   23  C   UNL     1      39.617 -14.366   0.293  1.00  0.00     0.237 C 
HETATM   24  C   UNL     1      39.720 -14.672   1.791  1.00  0.00     0.060 C 
BRANCH  21  25
HETATM   25  C   UNL     1      39.230 -12.591  -1.464  1.00  0.00     0.273 C 
BRANCH  25  26
HETATM   26  C   UNL     1      39.119 -13.785  -2.368  1.00  0.00    -0.033 A 
HETATM   27  C   UNL     1      37.855 -14.200  -2.828  1.00  0.00     0.009 A 
HETATM   28  C   UNL     1      37.730 -15.331  -3.632  1.00  0.00     0.001 A 
HETATM   29  C   UNL     1      38.860 -16.059  -3.991  1.00  0.00     0.000 A 
HETATM   30  C   UNL     1      40.119 -15.651  -3.556  1.00  0.00     0.001 A 
HETATM   31  C   UNL     1      40.251 -14.517  -2.753  1.00  0.00     0.009 A 
ENDBRANCH  25  26
ENDBRANCH  21  25
ENDBRANCH  15  18
ENDBRANCH  14  15
ENDBRANCH  12  14
BRANCH  11  32
HETATM   32  O   UNL     1      42.022 -14.041   6.242  1.00  0.00    -0.359 OA
HETATM   33  H   UNL     1      41.090 -13.849   5.990  1.00  0.00     0.217 HD
ENDBRANCH  11  32
BRANCH   3  34
HETATM   34  C   UNL     1      44.997 -20.336   2.485  1.00  0.00     0.156 C 
BRANCH  34  35
HETATM   35  C   UNL     1      43.990 -21.419   2.151  1.00  0.00     0.262 C 
HETATM   36  O   UNL     1      42.860 -21.214   1.726  1.00  0.00    -0.265 OA
BRANCH  35  37
HETATM   37  O   UNL     1      44.558 -22.639   2.348  1.00  0.00    -0.326 OA
HETATM   38  C   UNL     1      44.722 -23.008   3.719  1.00  0.00     0.213 C 
ENDBRANCH  35  37
ENDBRANCH  34  35
ENDBRANCH   3  34
TORSDOF 9
ENDMDL
MODEL 7
REMARK VINA RESULT:      -8.5      3.785      5.735
REMARK  9 active torsions:
REMARK  status: ('A' for Active; 'I' for Inactive)
REMARK    1  A    between atoms: C_3  and  C_4 
REMARK    2  A    between atoms: C_4  and  C_5 
REMARK    3  A    between atoms: C_5  and  O_6 
REMARK    4  A    between atoms: C_16  and  O_17 
REMARK    5  A    between atoms: C_18  and  C_19 
REMARK    6  A    between atoms: C_19  and  N_20 
REMARK    7  A    between atoms: N_20  and  C_23 
REMARK    8  A    between atoms: N_26  and  C_28 
REMARK    9  A    between atoms: C_28  and  C_29 
ROOT
HETATM    1  C   UNL     1      44.113 -19.724   2.351  1.00  0.00     0.050 C 
HETATM    2  C   UNL     1      43.641 -18.653   3.303  1.00  0.00    -0.036 C 
HETATM    3  C   UNL     1      44.058 -18.554   4.584  1.00  0.00     0.034 C 
HETATM    4  C   UNL     1      43.472 -17.549   5.511  1.00  0.00     0.295 C 
HETATM    5  O   UNL     1      43.943 -17.340   6.622  1.00  0.00    -0.259 OA
HETATM    6  O   UNL     1      42.355 -16.868   5.068  1.00  0.00    -0.274 OA
HETATM    7  C   UNL     1      42.002 -16.834   3.707  1.00  0.00     0.099 A 
HETATM    8  C   UNL     1      42.659 -17.670   2.800  1.00  0.00     0.006 A 
HETATM    9  C   UNL     1      41.038 -15.883   3.322  1.00  0.00     0.007 A 
HETATM   10  C   UNL     1      40.349 -15.026   4.351  1.00  0.00     0.054 C 
HETATM   11  C   UNL     1      40.797 -15.734   1.952  1.00  0.00     0.082 A 
HETATM   12  C   UNL     1      41.473 -16.519   1.002  1.00  0.00     0.002 A 
HETATM   13  C   UNL     1      42.378 -17.499   1.438  1.00  0.00     0.026 A 
ENDROOT
BRANCH  12  14
HETATM   14  C   UNL     1      41.300 -16.247  -0.464  1.00  0.00     0.274 C 
BRANCH  14  15
HETATM   15  N   UNL     1      41.803 -14.860  -0.757  1.00  0.00    -0.067 N 
HETATM   16  H   UNL     1      41.725 -14.343   0.129  1.00  0.00     0.277 HD
HETATM   17  H   UNL     1      42.826 -14.970  -0.863  1.00  0.00     0.277 HD
BRANCH  15  18
HETATM   18  C   UNL     1      41.305 -14.078  -1.941  1.00  0.00     0.189 C 
HETATM   19  C   UNL     1      39.788 -13.942  -2.038  1.00  0.00     0.060 C 
HETATM   20  C   UNL     1      39.178 -12.752  -1.302  1.00  0.00     0.237 C 
HETATM   21  N   UNL     1      40.123 -12.203  -0.268  1.00  0.00    -0.067 N 
HETATM   22  H   UNL     1      40.309 -12.943   0.425  1.00  0.00     0.280 HD
HETATM   23  C   UNL     1      41.427 -11.734  -0.860  1.00  0.00     0.237 C 
HETATM   24  C   UNL     1      41.962 -12.697  -1.925  1.00  0.00     0.060 C 
BRANCH  21  25
HETATM   25  C   UNL     1      39.475 -11.118   0.621  1.00  0.00     0.273 C 
BRANCH  25  26
HETATM   26  C   UNL     1      39.660 -11.276   2.103  1.00  0.00    -0.033 A 
HETATM   27  C   UNL     1      38.536 -11.395   2.941  1.00  0.00     0.009 A 
HETATM   28  C   UNL     1      38.689 -11.498   4.322  1.00  0.00     0.001 A 
HETATM   29  C   UNL     1      39.961 -11.489   4.884  1.00  0.00     0.000 A 
HETATM   30  C   UNL     1      41.084 -11.388   4.066  1.00  0.00     0.001 A 
HETATM   31  C   UNL     1      40.938 -11.287   2.681  1.00  0.00     0.009 A 
ENDBRANCH  25  26
ENDBRANCH  21  25
ENDBRANCH  15  18
ENDBRANCH  14  15
ENDBRANCH  12  14
BRANCH  11  32
HETATM   32  O   UNL     1      39.941 -14.762   1.474  1.00  0.00    -0.359 OA
HETATM   33  H   UNL     1      39.079 -14.948   1.910  1.00  0.00     0.217 HD
ENDBRANCH  11  32
BRANCH   3  34
HETATM   34  C   UNL     1      45.133 -19.391   5.244  1.00  0.00     0.156 C 
BRANCH  34  35
HETATM   35  C   UNL     1      44.578 -20.730   5.691  1.00  0.00     0.262 C 
HETATM   36  O   UNL     1      43.596 -20.874   6.409  1.00  0.00    -0.265 OA
BRANCH  35  37
HETATM   37  O   UNL     1      45.307 -21.731   5.128  1.00  0.00    -0.326 OA
HETATM   38  C   UNL     1      44.540 -22.693   4.401  1.00  0.00     0.213 C 
ENDBRANCH  35  37
ENDBRANCH  34  35
ENDBRANCH   3  34
TORSDOF 9
ENDMDL
MODEL 8
REMARK VINA RESULT:      -8.4      1.878      3.005
REMARK  9 active torsions:
REMARK  status: ('A' for Active; 'I' for Inactive)
REMARK    1  A    between atoms: C_3  and  C_4 
REMARK    2  A    between atoms: C_4  and  C_5 
REMARK    3  A    between atoms: C_5  and  O_6 
REMARK    4  A    between atoms: C_16  and  O_17 
REMARK    5  A    between atoms: C_18  and  C_19 
REMARK    6  A    between atoms: C_19  and  N_20 
REMARK    7  A    between atoms: N_20  and  C_23 
REMARK    8  A    between atoms: N_26  and  C_28 
REMARK    9  A    between atoms: C_28  and  C_29 
ROOT
HETATM    1  C   UNL     1      43.855 -15.359   7.121  1.00  0.00     0.050 C 
HETATM    2  C   UNL     1      43.316 -16.005   5.869  1.00  0.00    -0.036 C 
HETATM    3  C   UNL     1      43.794 -17.160   5.357  1.00  0.00     0.034 C 
HETATM    4  C   UNL     1      43.302 -17.690   4.056  1.00  0.00     0.295 C 
HETATM    5  O   UNL     1      43.606 -18.806   3.656  1.00  0.00    -0.259 OA
HETATM    6  O   UNL     1      42.494 -16.855   3.308  1.00  0.00    -0.274 OA
HETATM    7  C   UNL     1      41.862 -15.735   3.876  1.00  0.00     0.099 A 
HETATM    8  C   UNL     1      42.211 -15.322   5.164  1.00  0.00     0.006 A 
HETATM    9  C   UNL     1      40.837 -15.131   3.122  1.00  0.00     0.007 A 
HETATM   10  C   UNL     1      40.524 -15.609   1.729  1.00  0.00     0.054 C 
HETATM   11  C   UNL     1      40.098 -14.119   3.742  1.00  0.00     0.082 A 
HETATM   12  C   UNL     1      40.383 -13.707   5.055  1.00  0.00     0.002 A 
HETATM   13  C   UNL     1      41.455 -14.294   5.744  1.00  0.00     0.026 A 
ENDROOT
BRANCH  12  14
HETATM   14  C   UNL     1      39.490 -12.717   5.747  1.00  0.00     0.274 C 
BRANCH  14  15
HETATM   15  N   UNL     1      40.180 -12.240   6.995  1.00  0.00    -0.067 N 
HETATM   16  H   UNL     1      40.220 -13.056   7.620  1.00  0.00     0.277 HD
HETATM   17  H   UNL     1      41.170 -12.122   6.718  1.00  0.00     0.277 HD
BRANCH  15  18
HETATM   18  C   UNL     1      39.752 -10.981   7.696  1.00  0.00     0.189 C 
HETATM   19  C   UNL     1      39.377 -11.151   9.166  1.00  0.00     0.060 C 
HETATM   20  C   UNL     1      40.524 -11.029  10.165  1.00  0.00     0.237 C 
HETATM   21  N   UNL     1      41.858 -11.206   9.492  1.00  0.00    -0.067 N 
HETATM   22  H   UNL     1      41.893 -12.152   9.084  1.00  0.00     0.280 HD
HETATM   23  C   UNL     1      42.105 -10.186   8.409  1.00  0.00     0.237 C 
HETATM   24  C   UNL     1      40.862  -9.939   7.549  1.00  0.00     0.060 C 
BRANCH  21  25
HETATM   25  C   UNL     1      43.032 -11.271  10.495  1.00  0.00     0.273 C 
BRANCH  25  26
HETATM   26  C   UNL     1      42.853 -10.508  11.776  1.00  0.00    -0.033 A 
HETATM   27  C   UNL     1      43.000  -9.109  11.785  1.00  0.00     0.009 A 
HETATM   28  C   UNL     1      42.881  -8.391  12.973  1.00  0.00     0.001 A 
HETATM   29  C   UNL     1      42.610  -9.056  14.164  1.00  0.00     0.000 A 
HETATM   30  C   UNL     1      42.447 -10.440  14.169  1.00  0.00     0.001 A 
HETATM   31  C   UNL     1      42.562 -11.164  12.981  1.00  0.00     0.009 A 
ENDBRANCH  25  26
ENDBRANCH  21  25
ENDBRANCH  15  18
ENDBRANCH  14  15
ENDBRANCH  12  14
BRANCH  11  32
HETATM   32  O   UNL     1      39.014 -13.534   3.118  1.00  0.00    -0.359 OA
HETATM   33  H   UNL     1      38.382 -14.273   2.965  1.00  0.00     0.217 HD
ENDBRANCH  11  32
BRANCH   3  34
HETATM   34  C   UNL     1      44.837 -18.056   5.988  1.00  0.00     0.156 C 
BRANCH  34  35
HETATM   35  C   UNL     1      44.219 -18.936   7.059  1.00  0.00     0.262 C 
HETATM   36  O   UNL     1      44.061 -18.607   8.227  1.00  0.00    -0.265 OA
BRANCH  35  37
HETATM   37  O   UNL     1      43.826 -20.114   6.502  1.00  0.00    -0.326 OA
HETATM   38  C   UNL     1      43.545 -21.153   7.442  1.00  0.00     0.213 C 
ENDBRANCH  35  37
ENDBRANCH  34  35
ENDBRANCH   3  34
TORSDOF 9
ENDMDL
MODEL 9
REMARK VINA RESULT:      -8.3      4.014      8.817
REMARK  9 active torsions:
REMARK  status: ('A' for Active; 'I' for Inactive)
REMARK    1  A    between atoms: C_3  and  C_4 
REMARK    2  A    between atoms: C_4  and  C_5 
REMARK    3  A    between atoms: C_5  and  O_6 
REMARK    4  A    between atoms: C_16  and  O_17 
REMARK    5  A    between atoms: C_18  and  C_19 
REMARK    6  A    between atoms: C_19  and  N_20 
REMARK    7  A    between atoms: N_20  and  C_23 
REMARK    8  A    between atoms: N_26  and  C_28 
REMARK    9  A    between atoms: C_28  and  C_29 
ROOT
HETATM    1  C   UNL     1      37.742 -13.367  -0.477  1.00  0.00     0.050 C 
HETATM    2  C   UNL     1      39.021 -14.017  -0.942  1.00  0.00    -0.036 C 
HETATM    3  C   UNL     1      39.397 -14.088  -2.237  1.00  0.00     0.034 C 
HETATM    4  C   UNL     1      40.612 -14.842  -2.649  1.00  0.00     0.295 C 
HETATM    5  O   UNL     1      41.052 -14.787  -3.790  1.00  0.00    -0.259 OA
HETATM    6  O   UNL     1      41.216 -15.625  -1.684  1.00  0.00    -0.274 OA
HETATM    7  C   UNL     1      40.949 -15.448  -0.315  1.00  0.00     0.099 A 
HETATM    8  C   UNL     1      39.901 -14.615   0.084  1.00  0.00     0.006 A 
HETATM    9  C   UNL     1      41.824 -16.077   0.591  1.00  0.00     0.007 A 
HETATM   10  C   UNL     1      42.922 -16.983   0.098  1.00  0.00     0.054 C 
HETATM   11  C   UNL     1      41.662 -15.780   1.948  1.00  0.00     0.082 A 
HETATM   12  C   UNL     1      40.653 -14.908   2.389  1.00  0.00     0.002 A 
HETATM   13  C   UNL     1      39.764 -14.355   1.454  1.00  0.00     0.026 A 
ENDROOT
BRANCH  12  14
HETATM   14  C   UNL     1      40.586 -14.497   3.832  1.00  0.00     0.274 C 
BRANCH  14  15
HETATM   15  N   UNL     1      40.608 -15.736   4.684  1.00  0.00    -0.067 N 
HETATM   16  H   UNL     1      39.691 -16.182   4.551  1.00  0.00     0.277 HD
HETATM   17  H   UNL     1      41.246 -16.382   4.189  1.00  0.00     0.277 HD
BRANCH  15  18
HETATM   18  C   UNL     1      41.037 -15.690   6.124  1.00  0.00     0.189 C 
HETATM   19  C   UNL     1      41.084 -17.042   6.832  1.00  0.00     0.060 C 
HETATM   20  C   UNL     1      42.398 -17.809   6.717  1.00  0.00     0.237 C 
HETATM   21  N   UNL     1      43.232 -17.299   5.573  1.00  0.00    -0.067 N 
HETATM   22  H   UNL     1      42.705 -17.440   4.699  1.00  0.00     0.280 HD
HETATM   23  C   UNL     1      43.584 -15.839   5.713  1.00  0.00     0.237 C 
HETATM   24  C   UNL     1      42.400 -15.001   6.206  1.00  0.00     0.060 C 
BRANCH  21  25
HETATM   25  C   UNL     1      44.485 -18.166   5.310  1.00  0.00     0.273 C 
BRANCH  25  26
HETATM   26  C   UNL     1      44.337 -19.249   4.280  1.00  0.00    -0.033 A 
HETATM   27  C   UNL     1      43.688 -18.974   3.063  1.00  0.00     0.009 A 
HETATM   28  C   UNL     1      43.504 -19.978   2.115  1.00  0.00     0.001 A 
HETATM   29  C   UNL     1      43.967 -21.266   2.365  1.00  0.00     0.000 A 
HETATM   30  C   UNL     1      44.625 -21.549   3.560  1.00  0.00     0.001 A 
HETATM   31  C   UNL     1      44.816 -20.546   4.513  1.00  0.00     0.009 A 
ENDBRANCH  25  26
ENDBRANCH  21  25
ENDBRANCH  15  18
ENDBRANCH  14  15
ENDBRANCH  12  14
BRANCH  11  32
HETATM   32  O   UNL     1      42.531 -16.273   2.901  1.00  0.00    -0.359 OA
HETATM   33  H   UNL     1      42.012 -16.951   3.390  1.00  0.00     0.217 HD
ENDBRANCH  11  32
BRANCH   3  34
HETATM   34  C   UNL     1      38.693 -13.443  -3.411  1.00  0.00     0.156 C 
BRANCH  34  35
HETATM   35  C   UNL     1      37.572 -14.328  -3.922  1.00  0.00     0.262 C 
HETATM   36  O   UNL     1      37.683 -15.521  -4.175  1.00  0.00    -0.265 OA
BRANCH  35  37
HETATM   37  O   UNL     1      36.425 -13.601  -4.002  1.00  0.00    -0.326 OA
HETATM   38  C   UNL     1      35.525 -14.016  -5.033  1.00  0.00     0.213 C 
ENDBRANCH  35  37
ENDBRANCH  34  35
ENDBRANCH   3  34
TORSDOF 9
ENDMDL
MODEL 10
REMARK VINA RESULT:      -8.3      4.875      9.787
REMARK  9 active torsions:
REMARK  status: ('A' for Active; 'I' for Inactive)
REMARK    1  A    between atoms: C_3  and  C_4 
REMARK    2  A    between atoms: C_4  and  C_5 
REMARK    3  A    between atoms: C_5  and  O_6 
REMARK    4  A    between atoms: C_16  and  O_17 
REMARK    5  A    between atoms: C_18  and  C_19 
REMARK    6  A    between atoms: C_19  and  N_20 
REMARK    7  A    between atoms: N_20  and  C_23 
REMARK    8  A    between atoms: N_26  and  C_28 
REMARK    9  A    between atoms: C_28  and  C_29 
ROOT
HETATM    1  C   UNL     1      42.856 -12.750  -2.049  1.00  0.00     0.050 C 
HETATM    2  C   UNL     1      41.355 -12.884  -1.985  1.00  0.00    -0.036 C 
HETATM    3  C   UNL     1      40.519 -12.391  -2.924  1.00  0.00     0.034 C 
HETATM    4  C   UNL     1      39.042 -12.451  -2.752  1.00  0.00     0.295 C 
HETATM    5  O   UNL     1      38.272 -12.154  -3.656  1.00  0.00    -0.259 OA
HETATM    6  O   UNL     1      38.574 -12.844  -1.513  1.00  0.00    -0.274 OA
HETATM    7  C   UNL     1      39.401 -13.505  -0.586  1.00  0.00     0.099 A 
HETATM    8  C   UNL     1      40.776 -13.586  -0.820  1.00  0.00     0.006 A 
HETATM    9  C   UNL     1      38.765 -14.123   0.507  1.00  0.00     0.007 A 
HETATM   10  C   UNL     1      37.281 -13.979   0.717  1.00  0.00     0.054 C 
HETATM   11  C   UNL     1      39.559 -14.914   1.345  1.00  0.00     0.082 A 
HETATM   12  C   UNL     1      40.937 -15.064   1.117  1.00  0.00     0.002 A 
HETATM   13  C   UNL     1      41.538 -14.376   0.051  1.00  0.00     0.026 A 
ENDROOT
BRANCH  12  14
HETATM   14  C   UNL     1      41.740 -16.024   1.946  1.00  0.00     0.274 C 
BRANCH  14  15
HETATM   15  N   UNL     1      42.197 -15.316   3.192  1.00  0.00    -0.067 N 
HETATM   16  H   UNL     1      43.225 -15.322   3.155  1.00  0.00     0.277 HD
HETATM   17  H   UNL     1      41.973 -14.320   3.024  1.00  0.00     0.277 HD
BRANCH  15  18
HETATM   18  C   UNL     1      41.654 -15.681   4.546  1.00  0.00     0.189 C 
HETATM   19  C   UNL     1      41.086 -17.094   4.659  1.00  0.00     0.060 C 
HETATM   20  C   UNL     1      42.085 -18.185   5.033  1.00  0.00     0.237 C 
HETATM   21  N   UNL     1      43.501 -17.741   4.786  1.00  0.00    -0.067 N 
HETATM   22  H   UNL     1      43.608 -17.545   3.780  1.00  0.00     0.280 HD
HETATM   23  C   UNL     1      43.874 -16.512   5.576  1.00  0.00     0.237 C 
HETATM   24  C   UNL     1      42.754 -15.466   5.587  1.00  0.00     0.060 C 
BRANCH  21  25
HETATM   25  C   UNL     1      44.529 -18.879   4.979  1.00  0.00     0.273 C 
BRANCH  25  26
HETATM   26  C   UNL     1      44.455 -20.014   3.998  1.00  0.00    -0.033 A 
HETATM   27  C   UNL     1      44.022 -19.774   2.681  1.00  0.00     0.009 A 
HETATM   28  C   UNL     1      43.905 -20.823   1.772  1.00  0.00     0.001 A 
HETATM   29  C   UNL     1      44.223 -22.120   2.160  1.00  0.00     0.000 A 
HETATM   30  C   UNL     1      44.668 -22.371   3.455  1.00  0.00     0.001 A 
HETATM   31  C   UNL     1      44.789 -21.323   4.371  1.00  0.00     0.009 A 
ENDBRANCH  25  26
ENDBRANCH  21  25
ENDBRANCH  15  18
ENDBRANCH  14  15
ENDBRANCH  12  14
BRANCH  11  32
HETATM   32  O   UNL     1      39.009 -15.635   2.386  1.00  0.00    -0.359 OA
HETATM   33  H   UNL     1      39.067 -15.038   3.166  1.00  0.00     0.217 HD
ENDBRANCH  11  32
BRANCH   3  34
HETATM   34  C   UNL     1      40.921 -11.745  -4.232  1.00  0.00     0.156 C 
BRANCH  34  35
HETATM   35  C   UNL     1      41.344 -10.304  -4.017  1.00  0.00     0.262 C 
HETATM   36  O   UNL     1      40.819  -9.534  -3.224  1.00  0.00    -0.265 OA
BRANCH  35  37
HETATM   37  O   UNL     1      42.422 -10.030  -4.800  1.00  0.00    -0.326 OA
HETATM   38  C   UNL     1      42.104  -9.512  -6.094  1.00  0.00     0.213 C 
ENDBRANCH  35  37
ENDBRANCH  34  35
ENDBRANCH   3  34
TORSDOF 9
ENDMDL
