MODEL 1
REMARK VINA RESULT:      -8.6      0.000      0.000
REMARK  8 active torsions:
REMARK  status: ('A' for Active; 'I' for Inactive)
REMARK    1  A    between atoms: C_5  and  C_6 
REMARK    2  A    between atoms: C_6  and  N_7 
REMARK       I    between atoms: N_7  and  C_8 
REMARK    3  A    between atoms: C_8  and  C_9 
REMARK    4  A    between atoms: N_12  and  C_13 
REMARK    5  A    between atoms: C_13  and  C_14 
REMARK       I    between atoms: C_14  and  N_15 
REMARK    6  A    between atoms: N_15  and  C_16 
REMARK    7  A    between atoms: C_20  and  O_21 
REMARK    8  A    between atoms: C_26  and  N_27 
ROOT
HETATM    1  C   UNL     1      42.319 -15.209   6.016  1.00  0.00     0.186 A 
HETATM    2  N   UNL     1      43.217 -14.167   5.902  1.00  0.00    -0.150 NA
HETATM    3  N   UNL     1      42.538 -13.051   5.687  1.00  0.00     0.007 NA
HETATM    4  N   UNL     1      41.226 -13.374   5.671  1.00  0.00    -0.248 N 
HETATM    5  C   UNL     1      41.032 -14.718   5.858  1.00  0.00     0.151 A 
ENDROOT
BRANCH   4   6
HETATM    6  C   UNL     1      40.246 -12.314   5.656  1.00  0.00     0.251 C 
BRANCH   6   7
HETATM    7  C   UNL     1      40.148 -11.673   7.026  1.00  0.00     0.241 C 
HETATM    8  N   UNL     1      41.276 -10.944   7.378  1.00  0.00    -0.326 N 
HETATM    9  H   UNL     1      42.044 -10.951   6.708  1.00  0.00     0.169 HD
HETATM   10  O   UNL     1      39.123 -11.789   7.692  1.00  0.00    -0.271 OA
BRANCH   8  11
HETATM   11  C   UNL     1      41.537 -10.278   8.591  1.00  0.00     0.036 A 
HETATM   12  C   UNL     1      42.486 -10.685   9.525  1.00  0.00     0.056 A 
HETATM   13  C   UNL     1      42.682  -9.944  10.698  1.00  0.00     0.069 A 
HETATM   14 CL   UNL     1      43.887 -10.498  11.812  1.00  0.00    -0.081 Cl
HETATM   15  C   UNL     1      41.926  -8.792  10.964  1.00  0.00     0.090 A 
HETATM   16  C   UNL     1      40.981  -8.384  10.021  1.00  0.00     0.041 A 
HETATM   17  C   UNL     1      40.790  -9.121   8.847  1.00  0.00     0.032 A 
BRANCH  15  18
HETATM   18  O   UNL     1      42.183  -8.130  12.135  1.00  0.00    -0.354 OA
HETATM   19  C   UNL     1      41.312  -8.374  13.233  1.00  0.00     0.210 C 
ENDBRANCH  15  18
ENDBRANCH   8  11
ENDBRANCH   6   7
ENDBRANCH   4   6
BRANCH   5  20
HETATM   20  N   UNL     1      39.818 -15.310   5.900  1.00  0.00    -0.382 N 
HETATM   21  H   UNL     1      38.990 -14.960   5.422  1.00  0.00     0.157 HD
HETATM   22  H   UNL     1      39.589 -15.905   6.702  1.00  0.00     0.157 HD
ENDBRANCH   5  20
BRANCH   1  23
HETATM   23  C   UNL     1      42.720 -16.574   6.330  1.00  0.00     0.275 C 
HETATM   24  N   UNL     1      43.820 -17.002   5.621  1.00  0.00    -0.351 N 
HETATM   25  H   UNL     1      44.273 -16.331   5.011  1.00  0.00     0.163 HD
HETATM   26  O   UNL     1      42.153 -17.257   7.178  1.00  0.00    -0.266 OA
BRANCH  24  27
HETATM   27  C   UNL     1      44.496 -18.241   5.914  1.00  0.00     0.161 C 
BRANCH  27  28
HETATM   28  C   UNL     1      44.386 -19.209   4.761  1.00  0.00    -0.041 A 
HETATM   29  C   UNL     1      43.892 -18.788   3.518  1.00  0.00     0.009 A 
HETATM   30  C   UNL     1      43.803 -19.679   2.446  1.00  0.00     0.007 A 
HETATM   31  C   UNL     1      44.206 -21.010   2.595  1.00  0.00    -0.062 A 
HETATM   32  C   UNL     1      44.149 -21.964   1.440  1.00  0.00     0.048 C 
HETATM   33  C   UNL     1      44.715 -21.430   3.829  1.00  0.00     0.007 A 
HETATM   34  C   UNL     1      44.801 -20.539   4.903  1.00  0.00     0.009 A 
ENDBRANCH  27  28
ENDBRANCH  24  27
ENDBRANCH   1  23
TORSDOF 8
ENDMDL
MODEL 2
REMARK VINA RESULT:      -8.6      2.040      2.992
REMARK  8 active torsions:
REMARK  status: ('A' for Active; 'I' for Inactive)
REMARK    1  A    between atoms: C_5  and  C_6 
REMARK    2  A    between atoms: C_6  and  N_7 
REMARK       I    between atoms: N_7  and  C_8 
REMARK    3  A    between atoms: C_8  and  C_9 
REMARK    4  A    between atoms: N_12  and  C_13 
REMARK    5  A    between atoms: C_13  and  C_14 
REMARK       I    between atoms: C_14  and  N_15 
REMARK    6  A    between atoms: N_15  and  C_16 
REMARK    7  A    between atoms: C_20  and  O_21 
REMARK    8  A    between atoms: C_26  and  N_27 
ROOT
HETATM    1  C   UNL     1      42.971 -14.565   5.838  1.00  0.00     0.186 A 
HETATM    2  N   UNL     1      42.601 -13.238   5.930  1.00  0.00    -0.150 NA
HETATM    3  N   UNL     1      43.393 -12.643   6.808  1.00  0.00     0.007 NA
HETATM    4  N   UNL     1      44.261 -13.573   7.265  1.00  0.00    -0.248 N 
HETATM    5  C   UNL     1      44.031 -14.800   6.700  1.00  0.00     0.151 A 
ENDROOT
BRANCH   4   6
HETATM    6  C   UNL     1      45.369 -13.149   8.087  1.00  0.00     0.251 C 
BRANCH   6   7
HETATM    7  C   UNL     1      44.989 -11.918   8.884  1.00  0.00     0.241 C 
HETATM    8  N   UNL     1      43.821 -12.074   9.619  1.00  0.00    -0.326 N 
HETATM    9  H   UNL     1      43.339 -12.966   9.515  1.00  0.00     0.169 HD
HETATM   10  O   UNL     1      45.710 -10.925   8.873  1.00  0.00    -0.271 OA
BRANCH   8  11
HETATM   11  C   UNL     1      43.161 -11.117  10.415  1.00  0.00     0.036 A 
HETATM   12  C   UNL     1      43.576 -10.727  11.685  1.00  0.00     0.056 A 
HETATM   13  C   UNL     1      42.859  -9.753  12.392  1.00  0.00     0.069 A 
HETATM   14 CL   UNL     1      43.436  -9.304  13.962  1.00  0.00    -0.081 Cl
HETATM   15  C   UNL     1      41.707  -9.162  11.848  1.00  0.00     0.090 A 
HETATM   16  C   UNL     1      41.299  -9.553  10.571  1.00  0.00     0.041 A 
HETATM   17  C   UNL     1      42.020 -10.520   9.863  1.00  0.00     0.032 A 
BRANCH  15  18
HETATM   18  O   UNL     1      41.067  -8.221  12.609  1.00  0.00    -0.354 OA
HETATM   19  C   UNL     1      39.753  -8.523  13.060  1.00  0.00     0.210 C 
ENDBRANCH  15  18
ENDBRANCH   8  11
ENDBRANCH   6   7
ENDBRANCH   4   6
BRANCH   5  20
HETATM   20  N   UNL     1      44.761 -15.907   6.969  1.00  0.00    -0.382 N 
HETATM   21  H   UNL     1      44.799 -16.363   7.877  1.00  0.00     0.157 HD
HETATM   22  H   UNL     1      45.584 -16.103   6.391  1.00  0.00     0.157 HD
ENDBRANCH   5  20
BRANCH   1  23
HETATM   23  C   UNL     1      42.356 -15.500   4.907  1.00  0.00     0.275 C 
HETATM   24  N   UNL     1      43.257 -16.117   4.069  1.00  0.00    -0.351 N 
HETATM   25  H   UNL     1      44.241 -15.918   4.212  1.00  0.00     0.163 HD
HETATM   26  O   UNL     1      41.152 -15.742   4.902  1.00  0.00    -0.266 OA
BRANCH  24  27
HETATM   27  C   UNL     1      42.889 -17.212   3.206  1.00  0.00     0.161 C 
BRANCH  27  28
HETATM   28  C   UNL     1      43.513 -18.506   3.668  1.00  0.00    -0.041 A 
HETATM   29  C   UNL     1      43.656 -18.783   5.035  1.00  0.00     0.009 A 
HETATM   30  C   UNL     1      44.221 -19.986   5.464  1.00  0.00     0.007 A 
HETATM   31  C   UNL     1      44.653 -20.938   4.535  1.00  0.00    -0.062 A 
HETATM   32  C   UNL     1      45.226 -22.248   4.987  1.00  0.00     0.048 C 
HETATM   33  C   UNL     1      44.496 -20.673   3.170  1.00  0.00     0.007 A 
HETATM   34  C   UNL     1      43.935 -19.466   2.740  1.00  0.00     0.009 A 
ENDBRANCH  27  28
ENDBRANCH  24  27
ENDBRANCH   1  23
TORSDOF 8
ENDMDL
MODEL 3
REMARK VINA RESULT:      -8.5      1.636      2.017
REMARK  8 active torsions:
REMARK  status: ('A' for Active; 'I' for Inactive)
REMARK    1  A    between atoms: C_5  and  C_6 
REMARK    2  A    between atoms: C_6  and  N_7 
REMARK       I    between atoms: N_7  and  C_8 
REMARK    3  A    between atoms: C_8  and  C_9 
REMARK    4  A    between atoms: N_12  and  C_13 
REMARK    5  A    between atoms: C_13  and  C_14 
REMARK       I    between atoms: C_14  and  N_15 
REMARK    6  A    between atoms: N_15  and  C_16 
REMARK    7  A    between atoms: C_20  and  O_21 
REMARK    8  A    between atoms: C_26  and  N_27 
ROOT
HETATM    1  C   UNL     1      42.442 -14.843   5.981  1.00  0.00     0.186 A 
HETATM    2  N   UNL     1      42.881 -13.579   5.639  1.00  0.00    -0.150 NA
HETATM    3  N   UNL     1      41.825 -12.837   5.341  1.00  0.00     0.007 NA
HETATM    4  N   UNL     1      40.729 -13.613   5.496  1.00  0.00    -0.248 N 
HETATM    5  C   UNL     1      41.061 -14.885   5.883  1.00  0.00     0.151 A 
ENDROOT
BRANCH   4   6
HETATM    6  C   UNL     1      39.424 -12.999   5.431  1.00  0.00     0.251 C 
BRANCH   6   7
HETATM    7  C   UNL     1      39.400 -11.734   6.265  1.00  0.00     0.241 C 
HETATM    8  N   UNL     1      39.918 -11.903   7.542  1.00  0.00    -0.326 N 
HETATM    9  H   UNL     1      40.217 -12.846   7.786  1.00  0.00     0.169 HD
HETATM   10  O   UNL     1      38.988 -10.682   5.783  1.00  0.00    -0.271 OA
BRANCH   8  11
HETATM   11  C   UNL     1      39.990 -10.956   8.583  1.00  0.00     0.036 A 
HETATM   12  C   UNL     1      38.897 -10.517   9.325  1.00  0.00     0.056 A 
HETATM   13  C   UNL     1      39.074  -9.583  10.353  1.00  0.00     0.069 A 
HETATM   14 CL   UNL     1      37.675  -9.088  11.246  1.00  0.00    -0.081 Cl
HETATM   15  C   UNL     1      40.343  -9.061  10.650  1.00  0.00     0.090 A 
HETATM   16  C   UNL     1      41.437  -9.510   9.907  1.00  0.00     0.041 A 
HETATM   17  C   UNL     1      41.260 -10.448   8.885  1.00  0.00     0.032 A 
BRANCH  15  18
HETATM   18  O   UNL     1      40.424  -8.151  11.670  1.00  0.00    -0.354 OA
HETATM   19  C   UNL     1      40.759  -8.639  12.962  1.00  0.00     0.210 C 
ENDBRANCH  15  18
ENDBRANCH   8  11
ENDBRANCH   6   7
ENDBRANCH   4   6
BRANCH   5  20
HETATM   20  N   UNL     1      40.158 -15.864   6.123  1.00  0.00    -0.382 N 
HETATM   21  H   UNL     1      39.517 -16.237   5.426  1.00  0.00     0.157 HD
HETATM   22  H   UNL     1      39.825 -15.999   7.082  1.00  0.00     0.157 HD
ENDBRANCH   5  20
BRANCH   1  23
HETATM   23  C   UNL     1      43.337 -15.898   6.438  1.00  0.00     0.275 C 
HETATM   24  N   UNL     1      43.460 -16.940   5.547  1.00  0.00    -0.351 N 
HETATM   25  H   UNL     1      42.982 -16.854   4.658  1.00  0.00     0.163 HD
HETATM   26  O   UNL     1      43.953 -15.837   7.498  1.00  0.00    -0.266 OA
BRANCH  24  27
HETATM   27  C   UNL     1      44.435 -17.989   5.712  1.00  0.00     0.161 C 
BRANCH  27  28
HETATM   28  C   UNL     1      44.350 -18.997   4.592  1.00  0.00    -0.041 A 
HETATM   29  C   UNL     1      44.860 -20.292   4.756  1.00  0.00     0.009 A 
HETATM   30  C   UNL     1      44.770 -21.231   3.725  1.00  0.00     0.007 A 
HETATM   31  C   UNL     1      44.166 -20.893   2.510  1.00  0.00    -0.062 A 
HETATM   32  C   UNL     1      44.031 -21.905   1.412  1.00  0.00     0.048 C 
HETATM   33  C   UNL     1      43.640 -19.606   2.349  1.00  0.00     0.007 A 
HETATM   34  C   UNL     1      43.734 -18.666   3.379  1.00  0.00     0.009 A 
ENDBRANCH  27  28
ENDBRANCH  24  27
ENDBRANCH   1  23
TORSDOF 8
ENDMDL
MODEL 4
REMARK VINA RESULT:      -8.3      3.704     10.200
REMARK  8 active torsions:
REMARK  status: ('A' for Active; 'I' for Inactive)
REMARK    1  A    between atoms: C_5  and  C_6 
REMARK    2  A    between atoms: C_6  and  N_7 
REMARK       I    between atoms: N_7  and  C_8 
REMARK    3  A    between atoms: C_8  and  C_9 
REMARK    4  A    between atoms: N_12  and  C_13 
REMARK    5  A    between atoms: C_13  and  C_14 
REMARK       I    between atoms: C_14  and  N_15 
REMARK    6  A    between atoms: N_15  and  C_16 
REMARK    7  A    between atoms: C_20  and  O_21 
REMARK    8  A    between atoms: C_26  and  N_27 
ROOT
HETATM    1  C   UNL     1      39.835 -13.223   5.300  1.00  0.00     0.186 A 
HETATM    2  N   UNL     1      40.552 -14.282   5.822  1.00  0.00    -0.150 NA
HETATM    3  N   UNL     1      40.983 -15.031   4.819  1.00  0.00     0.007 NA
HETATM    4  N   UNL     1      40.554 -14.456   3.673  1.00  0.00    -0.248 N 
HETATM    5  C   UNL     1      39.817 -13.326   3.918  1.00  0.00     0.151 A 
ENDROOT
BRANCH   4   6
HETATM    6  C   UNL     1      41.053 -14.954   2.413  1.00  0.00     0.251 C 
BRANCH   6   7
HETATM    7  C   UNL     1      42.257 -15.846   2.643  1.00  0.00     0.241 C 
HETATM    8  N   UNL     1      41.923 -17.167   2.910  1.00  0.00    -0.326 N 
HETATM    9  H   UNL     1      40.928 -17.380   2.959  1.00  0.00     0.169 HD
HETATM   10  O   UNL     1      43.392 -15.391   2.545  1.00  0.00    -0.271 OA
BRANCH   8  11
HETATM   11  C   UNL     1      42.787 -18.235   3.225  1.00  0.00     0.036 A 
HETATM   12  C   UNL     1      43.059 -19.304   2.375  1.00  0.00     0.056 A 
HETATM   13  C   UNL     1      43.948 -20.311   2.775  1.00  0.00     0.069 A 
HETATM   14 CL   UNL     1      44.252 -21.606   1.666  1.00  0.00    -0.081 Cl
HETATM   15  C   UNL     1      44.569 -20.274   4.033  1.00  0.00     0.090 A 
HETATM   16  C   UNL     1      44.297 -19.197   4.878  1.00  0.00     0.041 A 
HETATM   17  C   UNL     1      43.415 -18.188   4.476  1.00  0.00     0.032 A 
BRANCH  15  18
HETATM   18  O   UNL     1      45.421 -21.301   4.341  1.00  0.00    -0.354 OA
HETATM   19  C   UNL     1      44.967 -22.276   5.272  1.00  0.00     0.210 C 
ENDBRANCH  15  18
ENDBRANCH   8  11
ENDBRANCH   6   7
ENDBRANCH   4   6
BRANCH   5  20
HETATM   20  N   UNL     1      39.279 -12.549   2.952  1.00  0.00    -0.382 N 
HETATM   21  H   UNL     1      39.311 -11.531   2.949  1.00  0.00     0.157 HD
HETATM   22  H   UNL     1      38.503 -12.922   2.397  1.00  0.00     0.157 HD
ENDBRANCH   5  20
BRANCH   1  23
HETATM   23  C   UNL     1      39.278 -12.158   6.122  1.00  0.00     0.275 C 
HETATM   24  N   UNL     1      39.608 -12.261   7.456  1.00  0.00    -0.351 N 
HETATM   25  H   UNL     1      40.237 -13.009   7.725  1.00  0.00     0.163 HD
HETATM   26  O   UNL     1      38.615 -11.235   5.658  1.00  0.00    -0.266 OA
BRANCH  24  27
HETATM   27  C   UNL     1      39.323 -11.216   8.406  1.00  0.00     0.161 C 
BRANCH  27  28
HETATM   28  C   UNL     1      40.499 -10.974   9.321  1.00  0.00    -0.041 A 
HETATM   29  C   UNL     1      41.740 -10.580   8.800  1.00  0.00     0.009 A 
HETATM   30  C   UNL     1      42.826 -10.342   9.646  1.00  0.00     0.007 A 
HETATM   31  C   UNL     1      42.693 -10.492  11.030  1.00  0.00    -0.062 A 
HETATM   32  C   UNL     1      43.842 -10.203  11.949  1.00  0.00     0.048 C 
HETATM   33  C   UNL     1      41.451 -10.869  11.555  1.00  0.00     0.007 A 
HETATM   34  C   UNL     1      40.365 -11.111  10.708  1.00  0.00     0.009 A 
ENDBRANCH  27  28
ENDBRANCH  24  27
ENDBRANCH   1  23
TORSDOF 8
ENDMDL
MODEL 5
REMARK VINA RESULT:      -8.2      2.649     10.031
REMARK  8 active torsions:
REMARK  status: ('A' for Active; 'I' for Inactive)
REMARK    1  A    between atoms: C_5  and  C_6 
REMARK    2  A    between atoms: C_6  and  N_7 
REMARK       I    between atoms: N_7  and  C_8 
REMARK    3  A    between atoms: C_8  and  C_9 
REMARK    4  A    between atoms: N_12  and  C_13 
REMARK    5  A    between atoms: C_13  and  C_14 
REMARK       I    between atoms: C_14  and  N_15 
REMARK    6  A    between atoms: N_15  and  C_16 
REMARK    7  A    between atoms: C_20  and  O_21 
REMARK    8  A    between atoms: C_26  and  N_27 
ROOT
HETATM    1  C   UNL     1      40.913 -11.442   7.162  1.00  0.00     0.186 A 
HETATM    2  N   UNL     1      39.604 -11.671   7.536  1.00  0.00    -0.150 NA
HETATM    3  N   UNL     1      39.059 -12.503   6.662  1.00  0.00     0.007 NA
HETATM    4  N   UNL     1      40.008 -12.807   5.748  1.00  0.00    -0.248 N 
HETATM    5  C   UNL     1      41.186 -12.157   6.007  1.00  0.00     0.151 A 
ENDROOT
BRANCH   4   6
HETATM    6  C   UNL     1      39.745 -13.855   4.791  1.00  0.00     0.251 C 
BRANCH   6   7
HETATM    7  C   UNL     1      40.515 -15.107   5.162  1.00  0.00     0.241 C 
HETATM    8  N   UNL     1      41.486 -15.454   4.232  1.00  0.00    -0.326 N 
HETATM    9  H   UNL     1      41.548 -14.865   3.403  1.00  0.00     0.169 HD
HETATM   10  O   UNL     1      40.283 -15.686   6.219  1.00  0.00    -0.271 OA
BRANCH   8  11
HETATM   11  C   UNL     1      42.332 -16.581   4.239  1.00  0.00     0.036 A 
HETATM   12  C   UNL     1      43.344 -16.800   5.170  1.00  0.00     0.056 A 
HETATM   13  C   UNL     1      44.122 -17.962   5.102  1.00  0.00     0.069 A 
HETATM   14 CL   UNL     1      45.357 -18.179   6.297  1.00  0.00    -0.081 Cl
HETATM   15  C   UNL     1      43.913 -18.919   4.096  1.00  0.00     0.090 A 
HETATM   16  C   UNL     1      42.892 -18.698   3.170  1.00  0.00     0.041 A 
HETATM   17  C   UNL     1      42.110 -17.539   3.243  1.00  0.00     0.032 A 
BRANCH  15  18
HETATM   18  O   UNL     1      44.722 -20.024   4.104  1.00  0.00    -0.354 OA
HETATM   19  C   UNL     1      44.735 -20.838   2.938  1.00  0.00     0.210 C 
ENDBRANCH  15  18
ENDBRANCH   8  11
ENDBRANCH   6   7
ENDBRANCH   4   6
BRANCH   5  20
HETATM   20  N   UNL     1      42.305 -12.290   5.259  1.00  0.00    -0.382 N 
HETATM   21  H   UNL     1      42.310 -12.522   4.268  1.00  0.00     0.157 HD
HETATM   22  H   UNL     1      43.182 -12.536   5.728  1.00  0.00     0.157 HD
ENDBRANCH   5  20
BRANCH   1  23
HETATM   23  C   UNL     1      41.833 -10.629   7.946  1.00  0.00     0.275 C 
HETATM   24  N   UNL     1      42.353 -11.284   9.040  1.00  0.00    -0.351 N 
HETATM   25  H   UNL     1      42.105 -12.259   9.162  1.00  0.00     0.163 HD
HETATM   26  O   UNL     1      42.144  -9.483   7.632  1.00  0.00    -0.266 OA
BRANCH  24  27
HETATM   27  C   UNL     1      43.421 -10.733   9.836  1.00  0.00     0.161 C 
BRANCH  27  28
HETATM   28  C   UNL     1      42.988 -10.530  11.267  1.00  0.00    -0.041 A 
HETATM   29  C   UNL     1      43.775  -9.780  12.153  1.00  0.00     0.009 A 
HETATM   30  C   UNL     1      43.368  -9.580  13.474  1.00  0.00     0.007 A 
HETATM   31  C   UNL     1      42.166 -10.125  13.937  1.00  0.00    -0.062 A 
HETATM   32  C   UNL     1      41.704  -9.884  15.343  1.00  0.00     0.048 C 
HETATM   33  C   UNL     1      41.370 -10.860  13.052  1.00  0.00     0.007 A 
HETATM   34  C   UNL     1      41.779 -11.064  11.730  1.00  0.00     0.009 A 
ENDBRANCH  27  28
ENDBRANCH  24  27
ENDBRANCH   1  23
TORSDOF 8
ENDMDL
MODEL 6
REMARK VINA RESULT:      -8.2      3.235     10.817
REMARK  8 active torsions:
REMARK  status: ('A' for Active; 'I' for Inactive)
REMARK    1  A    between atoms: C_5  and  C_6 
REMARK    2  A    between atoms: C_6  and  N_7 
REMARK       I    between atoms: N_7  and  C_8 
REMARK    3  A    between atoms: C_8  and  C_9 
REMARK    4  A    between atoms: N_12  and  C_13 
REMARK    5  A    between atoms: C_13  and  C_14 
REMARK       I    between atoms: C_14  and  N_15 
REMARK    6  A    between atoms: N_15  and  C_16 
REMARK    7  A    between atoms: C_20  and  O_21 
REMARK    8  A    between atoms: C_26  and  N_27 
ROOT
HETATM    1  C   UNL     1      44.425 -12.722   8.067  1.00  0.00     0.186 A 
HETATM    2  N   UNL     1      45.157 -13.845   7.736  1.00  0.00    -0.150 NA
HETATM    3  N   UNL     1      44.508 -14.502   6.787  1.00  0.00     0.007 NA
HETATM    4  N   UNL     1      43.383 -13.807   6.511  1.00  0.00    -0.248 N 
HETATM    5  C   UNL     1      43.274 -12.688   7.296  1.00  0.00     0.151 A 
ENDROOT
BRANCH   4   6
HETATM    6  C   UNL     1      42.587 -14.191   5.369  1.00  0.00     0.251 C 
BRANCH   6   7
HETATM    7  C   UNL     1      42.551 -15.701   5.242  1.00  0.00     0.241 C 
HETATM    8  N   UNL     1      43.584 -16.215   4.470  1.00  0.00    -0.326 N 
HETATM    9  H   UNL     1      44.217 -15.535   4.053  1.00  0.00     0.169 HD
HETATM   10  O   UNL     1      41.689 -16.351   5.826  1.00  0.00    -0.271 OA
BRANCH   8  11
HETATM   11  C   UNL     1      43.811 -17.557   4.105  1.00  0.00     0.036 A 
HETATM   12  C   UNL     1      44.046 -18.590   5.009  1.00  0.00     0.056 A 
HETATM   13  C   UNL     1      44.245 -19.897   4.546  1.00  0.00     0.069 A 
HETATM   14 CL   UNL     1      44.521 -21.138   5.723  1.00  0.00    -0.081 Cl
HETATM   15  C   UNL     1      44.224 -20.194   3.174  1.00  0.00     0.090 A 
HETATM   16  C   UNL     1      43.981 -19.155   2.273  1.00  0.00     0.041 A 
HETATM   17  C   UNL     1      43.776 -17.851   2.737  1.00  0.00     0.032 A 
BRANCH  15  18
HETATM   18  O   UNL     1      44.430 -21.498   2.812  1.00  0.00    -0.354 OA
HETATM   19  C   UNL     1      44.047 -21.884   1.498  1.00  0.00     0.210 C 
ENDBRANCH  15  18
ENDBRANCH   8  11
ENDBRANCH   6   7
ENDBRANCH   4   6
BRANCH   5  20
HETATM   20  N   UNL     1      42.252 -11.806   7.219  1.00  0.00    -0.382 N 
HETATM   21  H   UNL     1      42.331 -10.868   6.831  1.00  0.00     0.157 HD
HETATM   22  H   UNL     1      41.474 -11.897   7.879  1.00  0.00     0.157 HD
ENDBRANCH   5  20
BRANCH   1  23
HETATM   23  C   UNL     1      44.883 -11.729   9.029  1.00  0.00     0.275 C 
HETATM   24  N   UNL     1      44.166 -11.728  10.204  1.00  0.00    -0.351 N 
HETATM   25  H   UNL     1      43.448 -12.435  10.314  1.00  0.00     0.163 HD
HETATM   26  O   UNL     1      45.846 -10.996   8.822  1.00  0.00    -0.266 OA
BRANCH  24  27
HETATM   27  C   UNL     1      44.570 -10.963  11.357  1.00  0.00     0.161 C 
BRANCH  27  28
HETATM   28  C   UNL     1      43.396 -10.244  11.975  1.00  0.00    -0.041 A 
HETATM   29  C   UNL     1      43.515  -9.628  13.229  1.00  0.00     0.009 A 
HETATM   30  C   UNL     1      42.433  -8.949  13.796  1.00  0.00     0.007 A 
HETATM   31  C   UNL     1      41.211  -8.873  13.121  1.00  0.00    -0.062 A 
HETATM   32  C   UNL     1      40.056  -8.116  13.705  1.00  0.00     0.048 C 
HETATM   33  C   UNL     1      41.093  -9.473  11.862  1.00  0.00     0.007 A 
HETATM   34  C   UNL     1      42.175 -10.155  11.296  1.00  0.00     0.009 A 
ENDBRANCH  27  28
ENDBRANCH  24  27
ENDBRANCH   1  23
TORSDOF 8
ENDMDL
MODEL 7
REMARK VINA RESULT:      -8.1      5.559      8.441
REMARK  8 active torsions:
REMARK  status: ('A' for Active; 'I' for Inactive)
REMARK    1  A    between atoms: C_5  and  C_6 
REMARK    2  A    between atoms: C_6  and  N_7 
REMARK       I    between atoms: N_7  and  C_8 
REMARK    3  A    between atoms: C_8  and  C_9 
REMARK    4  A    between atoms: N_12  and  C_13 
REMARK    5  A    between atoms: C_13  and  C_14 
REMARK       I    between atoms: C_14  and  N_15 
REMARK    6  A    between atoms: N_15  and  C_16 
REMARK    7  A    between atoms: C_20  and  O_21 
REMARK    8  A    between atoms: C_26  and  N_27 
ROOT
HETATM    1  C   UNL     1      41.466 -14.880   4.815  1.00  0.00     0.186 A 
HETATM    2  N   UNL     1      40.120 -14.678   4.582  1.00  0.00    -0.150 NA
HETATM    3  N   UNL     1      39.971 -13.511   3.974  1.00  0.00     0.007 NA
HETATM    4  N   UNL     1      41.203 -12.979   3.815  1.00  0.00    -0.248 N 
HETATM    5  C   UNL     1      42.177 -13.790   4.337  1.00  0.00     0.151 A 
ENDROOT
BRANCH   4   6
HETATM    6  C   UNL     1      41.353 -11.798   2.998  1.00  0.00     0.251 C 
BRANCH   6   7
HETATM    7  C   UNL     1      41.526 -12.187   1.544  1.00  0.00     0.241 C 
HETATM    8  N   UNL     1      40.454 -12.907   1.033  1.00  0.00    -0.326 N 
HETATM    9  H   UNL     1      39.703 -13.123   1.687  1.00  0.00     0.169 HD
HETATM   10  O   UNL     1      42.521 -11.830   0.921  1.00  0.00    -0.271 OA
BRANCH   8  11
HETATM   11  C   UNL     1      40.318 -13.468  -0.253  1.00  0.00     0.036 A 
HETATM   12  C   UNL     1      39.644 -12.860  -1.309  1.00  0.00     0.056 A 
HETATM   13  C   UNL     1      39.577 -13.493  -2.557  1.00  0.00     0.069 A 
HETATM   14 CL   UNL     1      38.734 -12.679  -3.832  1.00  0.00    -0.081 Cl
HETATM   15  C   UNL     1      40.171 -14.747  -2.768  1.00  0.00     0.090 A 
HETATM   16  C   UNL     1      40.851 -15.348  -1.707  1.00  0.00     0.041 A 
HETATM   17  C   UNL     1      40.923 -14.712  -0.463  1.00  0.00     0.032 A 
BRANCH  15  18
HETATM   18  O   UNL     1      40.055 -15.293  -4.019  1.00  0.00    -0.354 OA
HETATM   19  C   UNL     1      38.975 -16.189  -4.248  1.00  0.00     0.210 C 
ENDBRANCH  15  18
ENDBRANCH   8  11
ENDBRANCH   6   7
ENDBRANCH   4   6
BRANCH   5  20
HETATM   20  N   UNL     1      43.498 -13.507   4.302  1.00  0.00    -0.382 N 
HETATM   21  H   UNL     1      44.001 -13.215   3.467  1.00  0.00     0.157 HD
HETATM   22  H   UNL     1      44.110 -13.934   5.004  1.00  0.00     0.157 HD
ENDBRANCH   5  20
BRANCH   1  23
HETATM   23  C   UNL     1      41.996 -16.102   5.403  1.00  0.00     0.275 C 
HETATM   24  N   UNL     1      43.124 -16.575   4.769  1.00  0.00    -0.351 N 
HETATM   25  H   UNL     1      43.505 -16.016   4.015  1.00  0.00     0.163 HD
HETATM   26  O   UNL     1      41.506 -16.632   6.396  1.00  0.00    -0.266 OA
BRANCH  24  27
HETATM   27  C   UNL     1      43.916 -17.655   5.302  1.00  0.00     0.161 C 
BRANCH  27  28
HETATM   28  C   UNL     1      44.020 -18.794   4.317  1.00  0.00    -0.041 A 
HETATM   29  C   UNL     1      44.690 -19.977   4.659  1.00  0.00     0.009 A 
HETATM   30  C   UNL     1      44.775 -21.037   3.754  1.00  0.00     0.007 A 
HETATM   31  C   UNL     1      44.192 -20.936   2.487  1.00  0.00    -0.062 A 
HETATM   32  C   UNL     1      44.246 -22.083   1.523  1.00  0.00     0.048 C 
HETATM   33  C   UNL     1      43.507 -19.764   2.147  1.00  0.00     0.007 A 
HETATM   34  C   UNL     1      43.425 -18.701   3.052  1.00  0.00     0.009 A 
ENDBRANCH  27  28
ENDBRANCH  24  27
ENDBRANCH   1  23
TORSDOF 8
ENDMDL
MODEL 8
REMARK VINA RESULT:      -8.1      4.796      7.432
REMARK  8 active torsions:
REMARK  status: ('A' for Active; 'I' for Inactive)
REMARK    1  A    between atoms: C_5  and  C_6 
REMARK    2  A    between atoms: C_6  and  N_7 
REMARK       I    between atoms: N_7  and  C_8 
REMARK    3  A    between atoms: C_8  and  C_9 
REMARK    4  A    between atoms: N_12  and  C_13 
REMARK    5  A    between atoms: C_13  and  C_14 
REMARK       I    between atoms: C_14  and  N_15 
REMARK    6  A    between atoms: N_15  and  C_16 
REMARK    7  A    between atoms: C_20  and  O_21 
REMARK    8  A    between atoms: C_26  and  N_27 
ROOT
HETATM    1  C   UNL     1      42.676 -14.517   5.450  1.00  0.00     0.186 A 
HETATM    2  N   UNL     1      43.096 -13.452   4.679  1.00  0.00    -0.150 NA
HETATM    3  N   UNL     1      42.043 -12.699   4.397  1.00  0.00     0.007 NA
HETATM    4  N   UNL     1      40.969 -13.271   4.986  1.00  0.00    -0.248 N 
HETATM    5  C   UNL     1      41.308 -14.423   5.648  1.00  0.00     0.151 A 
ENDROOT
BRANCH   4   6
HETATM    6  C   UNL     1      39.720 -12.549   5.010  1.00  0.00     0.251 C 
BRANCH   6   7
HETATM    7  C   UNL     1      39.247 -12.274   3.596  1.00  0.00     0.241 C 
HETATM    8  N   UNL     1      39.482 -13.326   2.721  1.00  0.00    -0.326 N 
HETATM    9  H   UNL     1      39.969 -14.134   3.106  1.00  0.00     0.169 HD
HETATM   10  O   UNL     1      38.679 -11.220   3.327  1.00  0.00    -0.271 OA
BRANCH   8  11
HETATM   11  C   UNL     1      39.224 -13.378   1.336  1.00  0.00     0.036 A 
HETATM   12  C   UNL     1      40.150 -13.050   0.350  1.00  0.00     0.056 A 
HETATM   13  C   UNL     1      39.802 -13.150  -1.003  1.00  0.00     0.069 A 
HETATM   14 CL   UNL     1      41.004 -12.739  -2.180  1.00  0.00    -0.081 Cl
HETATM   15  C   UNL     1      38.519 -13.567  -1.394  1.00  0.00     0.090 A 
HETATM   16  C   UNL     1      37.597 -13.901  -0.401  1.00  0.00     0.041 A 
HETATM   17  C   UNL     1      37.948 -13.807   0.950  1.00  0.00     0.032 A 
BRANCH  15  18
HETATM   18  O   UNL     1      38.265 -13.634  -2.738  1.00  0.00    -0.354 OA
HETATM   19  C   UNL     1      38.124 -14.925  -3.317  1.00  0.00     0.210 C 
ENDBRANCH  15  18
ENDBRANCH   8  11
ENDBRANCH   6   7
ENDBRANCH   4   6
BRANCH   5  20
HETATM   20  N   UNL     1      40.430 -15.188   6.335  1.00  0.00    -0.382 N 
HETATM   21  H   UNL     1      40.190 -15.049   7.314  1.00  0.00     0.157 HD
HETATM   22  H   UNL     1      40.264 -16.148   6.018  1.00  0.00     0.157 HD
ENDBRANCH   5  20
BRANCH   1  23
HETATM   23  C   UNL     1      43.591 -15.507   6.003  1.00  0.00     0.275 C 
HETATM   24  N   UNL     1      43.461 -16.755   5.434  1.00  0.00    -0.351 N 
HETATM   25  H   UNL     1      42.806 -16.853   4.667  1.00  0.00     0.163 HD
HETATM   26  O   UNL     1      44.425 -15.239   6.863  1.00  0.00    -0.266 OA
BRANCH  24  27
HETATM   27  C   UNL     1      44.391 -17.825   5.695  1.00  0.00     0.161 C 
BRANCH  27  28
HETATM   28  C   UNL     1      44.334 -18.875   4.613  1.00  0.00    -0.041 A 
HETATM   29  C   UNL     1      44.855 -20.158   4.833  1.00  0.00     0.009 A 
HETATM   30  C   UNL     1      44.791 -21.136   3.838  1.00  0.00     0.007 A 
HETATM   31  C   UNL     1      44.203 -20.851   2.601  1.00  0.00    -0.062 A 
HETATM   32  C   UNL     1      44.096 -21.904   1.540  1.00  0.00     0.048 C 
HETATM   33  C   UNL     1      43.667 -19.576   2.383  1.00  0.00     0.007 A 
HETATM   34  C   UNL     1      43.735 -18.597   3.378  1.00  0.00     0.009 A 
ENDBRANCH  27  28
ENDBRANCH  24  27
ENDBRANCH   1  23
TORSDOF 8
ENDMDL
MODEL 9
REMARK VINA RESULT:      -8.1      4.756      7.476
REMARK  8 active torsions:
REMARK  status: ('A' for Active; 'I' for Inactive)
REMARK    1  A    between atoms: C_5  and  C_6 
REMARK    2  A    between atoms: C_6  and  N_7 
REMARK       I    between atoms: N_7  and  C_8 
REMARK    3  A    between atoms: C_8  and  C_9 
REMARK    4  A    between atoms: N_12  and  C_13 
REMARK    5  A    between atoms: C_13  and  C_14 
REMARK       I    between atoms: C_14  and  N_15 
REMARK    6  A    between atoms: N_15  and  C_16 
REMARK    7  A    between atoms: C_20  and  O_21 
REMARK    8  A    between atoms: C_26  and  N_27 
ROOT
HETATM    1  C   UNL     1      42.348 -15.818   6.217  1.00  0.00     0.186 A 
HETATM    2  N   UNL     1      41.074 -16.341   6.111  1.00  0.00    -0.150 NA
HETATM    3  N   UNL     1      40.239 -15.353   5.829  1.00  0.00     0.007 NA
HETATM    4  N   UNL     1      40.968 -14.218   5.749  1.00  0.00    -0.248 N 
HETATM    5  C   UNL     1      42.296 -14.450   5.999  1.00  0.00     0.151 A 
ENDROOT
BRANCH   4   6
HETATM    6  C   UNL     1      40.338 -13.017   5.255  1.00  0.00     0.251 C 
BRANCH   6   7
HETATM    7  C   UNL     1      40.525 -12.909   3.754  1.00  0.00     0.241 C 
HETATM    8  N   UNL     1      40.127 -14.046   3.064  1.00  0.00    -0.326 N 
HETATM    9  H   UNL     1      39.797 -14.825   3.632  1.00  0.00     0.169 HD
HETATM   10  O   UNL     1      40.950 -11.870   3.256  1.00  0.00    -0.271 OA
BRANCH   8  11
HETATM   11  C   UNL     1      40.219 -14.300   1.682  1.00  0.00     0.036 A 
HETATM   12  C   UNL     1      39.266 -13.908   0.745  1.00  0.00     0.056 A 
HETATM   13  C   UNL     1      39.457 -14.194  -0.614  1.00  0.00     0.069 A 
HETATM   14 CL   UNL     1      38.240 -13.668  -1.729  1.00  0.00    -0.081 Cl
HETATM   15  C   UNL     1      40.594 -14.887  -1.058  1.00  0.00     0.090 A 
HETATM   16  C   UNL     1      41.549 -15.271  -0.114  1.00  0.00     0.041 A 
HETATM   17  C   UNL     1      41.361 -14.979   1.241  1.00  0.00     0.032 A 
BRANCH  15  18
HETATM   18  O   UNL     1      40.697 -15.125  -2.402  1.00  0.00    -0.354 OA
HETATM   19  C   UNL     1      41.534 -14.261  -3.161  1.00  0.00     0.210 C 
ENDBRANCH  15  18
ENDBRANCH   8  11
ENDBRANCH   6   7
ENDBRANCH   4   6
BRANCH   5  20
HETATM   20  N   UNL     1      43.251 -13.493   5.972  1.00  0.00    -0.382 N 
HETATM   21  H   UNL     1      44.151 -13.593   5.507  1.00  0.00     0.157 HD
HETATM   22  H   UNL     1      43.266 -12.794   6.720  1.00  0.00     0.157 HD
ENDBRANCH   5  20
BRANCH   1  23
HETATM   23  C   UNL     1      43.528 -16.640   6.448  1.00  0.00     0.275 C 
HETATM   24  N   UNL     1      43.284 -17.992   6.358  1.00  0.00    -0.351 N 
HETATM   25  H   UNL     1      42.351 -18.282   6.088  1.00  0.00     0.163 HD
HETATM   26  O   UNL     1      44.640 -16.165   6.659  1.00  0.00    -0.266 OA
BRANCH  24  27
HETATM   27  C   UNL     1      44.341 -18.971   6.361  1.00  0.00     0.161 C 
BRANCH  27  28
HETATM   28  C   UNL     1      44.353 -19.769   5.080  1.00  0.00    -0.041 A 
HETATM   29  C   UNL     1      44.690 -21.130   5.088  1.00  0.00     0.009 A 
HETATM   30  C   UNL     1      44.688 -21.872   3.905  1.00  0.00     0.007 A 
HETATM   31  C   UNL     1      44.347 -21.270   2.690  1.00  0.00    -0.062 A 
HETATM   32  C   UNL     1      44.306 -22.067   1.421  1.00  0.00     0.048 C 
HETATM   33  C   UNL     1      43.994 -19.915   2.680  1.00  0.00     0.007 A 
HETATM   34  C   UNL     1      44.000 -19.171   3.864  1.00  0.00     0.009 A 
ENDBRANCH  27  28
ENDBRANCH  24  27
ENDBRANCH   1  23
TORSDOF 8
ENDMDL
MODEL 10
REMARK VINA RESULT:      -8.0      4.739      9.306
REMARK  8 active torsions:
REMARK  status: ('A' for Active; 'I' for Inactive)
REMARK    1  A    between atoms: C_5  and  C_6 
REMARK    2  A    between atoms: C_6  and  N_7 
REMARK       I    between atoms: N_7  and  C_8 
REMARK    3  A    between atoms: C_8  and  C_9 
REMARK    4  A    between atoms: N_12  and  C_13 
REMARK    5  A    between atoms: C_13  and  C_14 
REMARK       I    between atoms: C_14  and  N_15 
REMARK    6  A    between atoms: N_15  and  C_16 
REMARK    7  A    between atoms: C_20  and  O_21 
REMARK    8  A    between atoms: C_26  and  N_27 
ROOT
HETATM    1  C   UNL     1      42.188 -13.361   4.451  1.00  0.00     0.186 A 
HETATM    2  N   UNL     1      43.548 -13.417   4.220  1.00  0.00    -0.150 NA
HETATM    3  N   UNL     1      44.107 -14.132   5.185  1.00  0.00     0.007 NA
HETATM    4  N   UNL     1      43.118 -14.532   6.015  1.00  0.00    -0.248 N 
HETATM    5  C   UNL     1      41.896 -14.064   5.609  1.00  0.00     0.151 A 
ENDROOT
BRANCH   4   6
HETATM    6  C   UNL     1      43.420 -15.497   7.045  1.00  0.00     0.251 C 
BRANCH   6   7
HETATM    7  C   UNL     1      43.246 -16.904   6.510  1.00  0.00     0.241 C 
HETATM    8  N   UNL     1      44.224 -17.273   5.597  1.00  0.00    -0.326 N 
HETATM    9  H   UNL     1      44.915 -16.561   5.363  1.00  0.00     0.169 HD
HETATM   10  O   UNL     1      42.332 -17.614   6.919  1.00  0.00    -0.271 OA
BRANCH   8  11
HETATM   11  C   UNL     1      44.326 -18.477   4.872  1.00  0.00     0.036 A 
HETATM   12  C   UNL     1      44.698 -19.700   5.425  1.00  0.00     0.056 A 
HETATM   13  C   UNL     1      44.755 -20.847   4.622  1.00  0.00     0.069 A 
HETATM   14 CL   UNL     1      45.213 -22.338   5.374  1.00  0.00    -0.081 Cl
HETATM   15  C   UNL     1      44.454 -20.790   3.252  1.00  0.00     0.090 A 
HETATM   16  C   UNL     1      44.076 -19.562   2.705  1.00  0.00     0.041 A 
HETATM   17  C   UNL     1      44.013 -18.419   3.509  1.00  0.00     0.032 A 
BRANCH  15  18
HETATM   18  O   UNL     1      44.538 -21.958   2.543  1.00  0.00    -0.354 OA
HETATM   19  C   UNL     1      43.939 -21.990   1.254  1.00  0.00     0.210 C 
ENDBRANCH  15  18
ENDBRANCH   8  11
ENDBRANCH   6   7
ENDBRANCH   4   6
BRANCH   5  20
HETATM   20  N   UNL     1      40.733 -14.325   6.249  1.00  0.00    -0.382 N 
HETATM   21  H   UNL     1      40.554 -14.107   7.227  1.00  0.00     0.157 HD
HETATM   22  H   UNL     1      40.138 -15.079   5.895  1.00  0.00     0.157 HD
ENDBRANCH   5  20
BRANCH   1  23
HETATM   23  C   UNL     1      41.253 -12.714   3.540  1.00  0.00     0.275 C 
HETATM   24  N   UNL     1      41.868 -11.998   2.536  1.00  0.00    -0.351 N 
HETATM   25  H   UNL     1      42.879 -12.035   2.488  1.00  0.00     0.163 HD
HETATM   26  O   UNL     1      40.035 -12.834   3.638  1.00  0.00    -0.266 OA
BRANCH  24  27
HETATM   27  C   UNL     1      41.139 -11.443   1.424  1.00  0.00     0.161 C 
BRANCH  27  28
HETATM   28  C   UNL     1      41.164 -12.372   0.235  1.00  0.00    -0.041 A 
HETATM   29  C   UNL     1      40.134 -13.302   0.032  1.00  0.00     0.009 A 
HETATM   30  C   UNL     1      40.149 -14.154  -1.075  1.00  0.00     0.007 A 
HETATM   31  C   UNL     1      41.193 -14.092  -2.003  1.00  0.00    -0.062 A 
HETATM   32  C   UNL     1      41.198 -14.976  -3.214  1.00  0.00     0.048 C 
HETATM   33  C   UNL     1      42.214 -13.153  -1.814  1.00  0.00     0.007 A 
HETATM   34  C   UNL     1      42.202 -12.304  -0.703  1.00  0.00     0.009 A 
ENDBRANCH  27  28
ENDBRANCH  24  27
ENDBRANCH   1  23
TORSDOF 8
ENDMDL
