MODEL 1
REMARK VINA RESULT:      -9.6      0.000      0.000
REMARK  6 active torsions:
REMARK  status: ('A' for Active; 'I' for Inactive)
REMARK    1  A    between atoms: C_5  and  O_6 
REMARK    2  A    between atoms: O_6  and  C_7 
REMARK    3  A    between atoms: C_7  and  C_8 
REMARK       I    between atoms: C_8  and  N_9 
REMARK    4  A    between atoms: N_9  and  C_10 
REMARK    5  A    between atoms: C_10  and  C_11 
REMARK       I    between atoms: C_11  and  N_12 
REMARK    6  A    between atoms: N_12  and  N_13 
ROOT
HETATM    1  C   UNL     1      43.814 -13.932   6.235  1.00  0.00     0.255 C 
HETATM    2  N   UNL     1      43.567 -15.199   6.740  1.00  0.00    -0.245 N 
HETATM    3  O   UNL     1      44.205 -13.683   5.095  1.00  0.00    -0.270 OA
HETATM    4  H   UNL     1      43.160 -15.324   7.670  1.00  0.00     0.192 HD
ENDROOT
BRANCH   1   5
HETATM    5  C   UNL     1      43.627 -12.828   7.278  1.00  0.00     0.227 C 
BRANCH   5   6
HETATM    6  N   UNL     1      44.372 -13.147   8.486  1.00  0.00    -0.350 N 
HETATM    7  C   UNL     1      44.606 -12.350   9.571  1.00  0.00     0.242 C 
HETATM    8  O   UNL     1      45.381 -12.735  10.446  1.00  0.00    -0.271 OA
HETATM    9  H   UNL     1      44.972 -13.966   8.440  1.00  0.00     0.163 HD
BRANCH   7  10
HETATM   10  C   UNL     1      43.837 -11.038   9.699  1.00  0.00     0.278 C 
BRANCH  10  11
HETATM   11  O   UNL     1      42.571 -11.294  10.303  1.00  0.00    -0.342 OA
BRANCH  11  12
HETATM   12  C   UNL     1      42.479 -10.868  11.600  1.00  0.00     0.069 A 
HETATM   13  C   UNL     1      43.492 -10.020  12.042  1.00  0.00     0.037 A 
HETATM   14  C   UNL     1      43.467  -9.510  13.343  1.00  0.00     0.009 A 
HETATM   15  C   UNL     1      42.419  -9.837  14.210  1.00  0.00    -0.062 A 
HETATM   16  C   UNL     1      42.365  -9.264  15.595  1.00  0.00     0.048 C 
HETATM   17  C   UNL     1      41.384 -10.658  13.746  1.00  0.00     0.009 A 
HETATM   18  C   UNL     1      41.412 -11.171  12.446  1.00  0.00     0.037 A 
ENDBRANCH  11  12
ENDBRANCH  10  11
ENDBRANCH   7  10
ENDBRANCH   5   6
ENDBRANCH   1   5
BRANCH   2  19
HETATM   19  N   UNL     1      43.758 -16.300   5.952  1.00  0.00    -0.166 NA
HETATM   20  C   UNL     1      43.798 -17.444   6.556  1.00  0.00     0.157 A 
HETATM   21  C   UNL     1      43.652 -17.735   8.053  1.00  0.00     0.277 A 
HETATM   22  C   UNL     1      43.992 -18.738   5.914  1.00  0.00     0.028 A 
HETATM   23  O   UNL     1      43.501 -16.887   8.907  1.00  0.00    -0.266 OA
HETATM   24  N   UNL     1      43.740 -19.104   8.174  1.00  0.00    -0.321 N 
HETATM   25  C   UNL     1      43.944 -19.694   6.929  1.00  0.00     0.048 A 
HETATM   26  H   UNL     1      43.677 -19.587   9.058  1.00  0.00     0.169 HD
HETATM   27  C   UNL     1      44.097 -21.036   6.654  1.00  0.00     0.032 A 
HETATM   28  C   UNL     1      44.305 -21.397   5.316  1.00  0.00     0.021 A 
HETATM   29  C   UNL     1      44.354 -20.418   4.301  1.00  0.00     0.012 A 
HETATM   30 BR   UNL     1      44.647 -20.958   2.511  1.00  0.00    -0.051 Br
HETATM   31  C   UNL     1      44.195 -19.063   4.590  1.00  0.00     0.035 A 
ENDBRANCH   2  19
TORSDOF 6
ENDMDL
MODEL 2
REMARK VINA RESULT:      -9.3      5.932      9.953
REMARK  6 active torsions:
REMARK  status: ('A' for Active; 'I' for Inactive)
REMARK    1  A    between atoms: C_5  and  O_6 
REMARK    2  A    between atoms: O_6  and  C_7 
REMARK    3  A    between atoms: C_7  and  C_8 
REMARK       I    between atoms: C_8  and  N_9 
REMARK    4  A    between atoms: N_9  and  C_10 
REMARK    5  A    between atoms: C_10  and  C_11 
REMARK       I    between atoms: C_11  and  N_12 
REMARK    6  A    between atoms: N_12  and  N_13 
ROOT
HETATM    1  C   UNL     1      42.917 -13.837   3.934  1.00  0.00     0.255 C 
HETATM    2  N   UNL     1      41.771 -13.731   3.161  1.00  0.00    -0.245 N 
HETATM    3  O   UNL     1      44.064 -13.629   3.540  1.00  0.00    -0.270 OA
HETATM    4  H   UNL     1      40.843 -13.834   3.580  1.00  0.00     0.192 HD
ENDROOT
BRANCH   1   5
HETATM    5  C   UNL     1      42.635 -14.331   5.354  1.00  0.00     0.227 C 
BRANCH   5   6
HETATM    6  N   UNL     1      41.650 -15.401   5.327  1.00  0.00    -0.350 N 
HETATM    7  C   UNL     1      41.861 -16.748   5.420  1.00  0.00     0.242 C 
HETATM    8  O   UNL     1      40.920 -17.520   5.234  1.00  0.00    -0.271 OA
HETATM    9  H   UNL     1      40.726 -15.151   4.985  1.00  0.00     0.163 HD
BRANCH   7  10
HETATM   10  C   UNL     1      43.243 -17.249   5.828  1.00  0.00     0.278 C 
BRANCH  10  11
HETATM   11  O   UNL     1      44.096 -17.254   4.685  1.00  0.00    -0.342 OA
BRANCH  11  12
HETATM   12  C   UNL     1      44.107 -18.440   4.004  1.00  0.00     0.069 A 
HETATM   13  C   UNL     1      43.622 -18.403   2.699  1.00  0.00     0.037 A 
HETATM   14  C   UNL     1      43.620 -19.560   1.915  1.00  0.00     0.009 A 
HETATM   15  C   UNL     1      44.115 -20.763   2.429  1.00  0.00    -0.062 A 
HETATM   16  C   UNL     1      44.152 -22.000   1.582  1.00  0.00     0.048 C 
HETATM   17  C   UNL     1      44.638 -20.782   3.728  1.00  0.00     0.009 A 
HETATM   18  C   UNL     1      44.636 -19.626   4.513  1.00  0.00     0.037 A 
ENDBRANCH  11  12
ENDBRANCH  10  11
ENDBRANCH   7  10
ENDBRANCH   5   6
ENDBRANCH   1   5
BRANCH   2  19
HETATM   19  N   UNL     1      41.863 -13.369   1.846  1.00  0.00    -0.166 NA
HETATM   20  C   UNL     1      41.521 -14.263   0.975  1.00  0.00     0.157 A 
HETATM   21  C   UNL     1      41.016 -15.687   1.222  1.00  0.00     0.277 A 
HETATM   22  C   UNL     1      41.543 -14.092  -0.472  1.00  0.00     0.028 A 
HETATM   23  O   UNL     1      40.893 -16.193   2.318  1.00  0.00    -0.266 OA
HETATM   24  N   UNL     1      40.767 -16.214  -0.026  1.00  0.00    -0.321 N 
HETATM   25  C   UNL     1      41.078 -15.288  -1.019  1.00  0.00     0.048 A 
HETATM   26  H   UNL     1      40.420 -17.150  -0.174  1.00  0.00     0.169 HD
HETATM   27  C   UNL     1      40.976 -15.458  -2.383  1.00  0.00     0.032 A 
HETATM   28  C   UNL     1      41.362 -14.382  -3.194  1.00  0.00     0.021 A 
HETATM   29  C   UNL     1      41.833 -13.180  -2.627  1.00  0.00     0.012 A 
HETATM   30 BR   UNL     1      42.349 -11.761  -3.767  1.00  0.00    -0.051 Br
HETATM   31  C   UNL     1      41.929 -13.017  -1.244  1.00  0.00     0.035 A 
ENDBRANCH   2  19
TORSDOF 6
ENDMDL
MODEL 3
REMARK VINA RESULT:      -9.1      5.692      9.775
REMARK  6 active torsions:
REMARK  status: ('A' for Active; 'I' for Inactive)
REMARK    1  A    between atoms: C_5  and  O_6 
REMARK    2  A    between atoms: O_6  and  C_7 
REMARK    3  A    between atoms: C_7  and  C_8 
REMARK       I    between atoms: C_8  and  N_9 
REMARK    4  A    between atoms: N_9  and  C_10 
REMARK    5  A    between atoms: C_10  and  C_11 
REMARK       I    between atoms: C_11  and  N_12 
REMARK    6  A    between atoms: N_12  and  N_13 
ROOT
HETATM    1  C   UNL     1      42.158 -15.399   4.704  1.00  0.00     0.255 C 
HETATM    2  N   UNL     1      41.171 -14.911   3.862  1.00  0.00    -0.245 N 
HETATM    3  O   UNL     1      43.363 -15.169   4.597  1.00  0.00    -0.270 OA
HETATM    4  H   UNL     1      40.181 -15.073   4.063  1.00  0.00     0.192 HD
ENDROOT
BRANCH   1   5
HETATM    5  C   UNL     1      41.615 -16.349   5.772  1.00  0.00     0.227 C 
BRANCH   5   6
HETATM    6  N   UNL     1      42.373 -16.204   7.006  1.00  0.00    -0.350 N 
HETATM    7  C   UNL     1      43.099 -17.152   7.668  1.00  0.00     0.242 C 
HETATM    8  O   UNL     1      43.561 -16.890   8.779  1.00  0.00    -0.271 OA
HETATM    9  H   UNL     1      42.172 -15.376   7.560  1.00  0.00     0.163 HD
BRANCH   7  10
HETATM   10  C   UNL     1      43.379 -18.482   6.975  1.00  0.00     0.278 C 
BRANCH  10  11
HETATM   11  O   UNL     1      44.382 -18.290   5.979  1.00  0.00    -0.342 OA
BRANCH  11  12
HETATM   12  C   UNL     1      44.334 -19.200   4.959  1.00  0.00     0.069 A 
HETATM   13  C   UNL     1      43.894 -18.720   3.727  1.00  0.00     0.037 A 
HETATM   14  C   UNL     1      43.839 -19.569   2.619  1.00  0.00     0.009 A 
HETATM   15  C   UNL     1      44.236 -20.905   2.732  1.00  0.00    -0.062 A 
HETATM   16  C   UNL     1      44.216 -21.813   1.538  1.00  0.00     0.048 C 
HETATM   17  C   UNL     1      44.715 -21.370   3.963  1.00  0.00     0.009 A 
HETATM   18  C   UNL     1      44.765 -20.521   5.073  1.00  0.00     0.037 A 
ENDBRANCH  11  12
ENDBRANCH  10  11
ENDBRANCH   7  10
ENDBRANCH   5   6
ENDBRANCH   1   5
BRANCH   2  19
HETATM   19  N   UNL     1      41.504 -14.103   2.811  1.00  0.00    -0.166 NA
HETATM   20  C   UNL     1      41.299 -14.582   1.626  1.00  0.00     0.157 A 
HETATM   21  C   UNL     1      40.721 -15.946   1.239  1.00  0.00     0.277 A 
HETATM   22  C   UNL     1      41.583 -13.897   0.371  1.00  0.00     0.028 A 
HETATM   23  O   UNL     1      40.392 -16.804   2.031  1.00  0.00    -0.266 OA
HETATM   24  N   UNL     1      40.684 -15.956  -0.138  1.00  0.00    -0.321 N 
HETATM   25  C   UNL     1      41.191 -14.763  -0.650  1.00  0.00     0.048 A 
HETATM   26  H   UNL     1      40.344 -16.738  -0.679  1.00  0.00     0.169 HD
HETATM   27  C   UNL     1      41.329 -14.414  -1.976  1.00  0.00     0.032 A 
HETATM   28  C   UNL     1      41.881 -13.156  -2.253  1.00  0.00     0.021 A 
HETATM   29  C   UNL     1      42.275 -12.292  -1.211  1.00  0.00     0.012 A 
HETATM   30 BR   UNL     1      43.023 -10.608  -1.640  1.00  0.00    -0.051 Br
HETATM   31  C   UNL     1      42.129 -12.655   0.129  1.00  0.00     0.035 A 
ENDBRANCH   2  19
TORSDOF 6
ENDMDL
MODEL 4
REMARK VINA RESULT:      -8.7      6.144     10.257
REMARK  6 active torsions:
REMARK  status: ('A' for Active; 'I' for Inactive)
REMARK    1  A    between atoms: C_5  and  O_6 
REMARK    2  A    between atoms: O_6  and  C_7 
REMARK    3  A    between atoms: C_7  and  C_8 
REMARK       I    between atoms: C_8  and  N_9 
REMARK    4  A    between atoms: N_9  and  C_10 
REMARK    5  A    between atoms: C_10  and  C_11 
REMARK       I    between atoms: C_11  and  N_12 
REMARK    6  A    between atoms: N_12  and  N_13 
ROOT
HETATM    1  C   UNL     1      39.803 -14.183   3.956  1.00  0.00     0.255 C 
HETATM    2  N   UNL     1      39.615 -15.088   2.922  1.00  0.00    -0.245 N 
HETATM    3  O   UNL     1      39.597 -12.971   3.887  1.00  0.00    -0.270 OA
HETATM    4  H   UNL     1      39.724 -16.093   3.078  1.00  0.00     0.192 HD
ENDROOT
BRANCH   1   5
HETATM    5  C   UNL     1      40.385 -14.828   5.215  1.00  0.00     0.227 C 
BRANCH   5   6
HETATM    6  N   UNL     1      41.797 -14.501   5.340  1.00  0.00    -0.350 N 
HETATM    7  C   UNL     1      42.860 -15.357   5.415  1.00  0.00     0.242 C 
HETATM    8  O   UNL     1      43.979 -14.907   5.663  1.00  0.00    -0.271 OA
HETATM    9  H   UNL     1      42.013 -13.549   5.622  1.00  0.00     0.163 HD
BRANCH   7  10
HETATM   10  C   UNL     1      42.636 -16.835   5.111  1.00  0.00     0.278 C 
BRANCH  10  11
HETATM   11  O   UNL     1      43.895 -17.504   5.086  1.00  0.00    -0.342 OA
BRANCH  11  12
HETATM   12  C   UNL     1      43.964 -18.525   4.179  1.00  0.00     0.069 A 
HETATM   13  C   UNL     1      44.616 -19.681   4.602  1.00  0.00     0.037 A 
HETATM   14  C   UNL     1      44.711 -20.787   3.754  1.00  0.00     0.009 A 
HETATM   15  C   UNL     1      44.144 -20.750   2.477  1.00  0.00    -0.062 A 
HETATM   16  C   UNL     1      44.209 -21.946   1.575  1.00  0.00     0.048 C 
HETATM   17  C   UNL     1      43.456 -19.599   2.073  1.00  0.00     0.009 A 
HETATM   18  C   UNL     1      43.364 -18.491   2.920  1.00  0.00     0.037 A 
ENDBRANCH  11  12
ENDBRANCH  10  11
ENDBRANCH   7  10
ENDBRANCH   5   6
ENDBRANCH   1   5
BRANCH   2  19
HETATM   19  N   UNL     1      39.167 -14.655   1.706  1.00  0.00    -0.166 NA
HETATM   20  C   UNL     1      40.016 -14.695   0.729  1.00  0.00     0.157 A 
HETATM   21  C   UNL     1      41.471 -15.172   0.752  1.00  0.00     0.277 A 
HETATM   22  C   UNL     1      39.752 -14.282  -0.643  1.00  0.00     0.028 A 
HETATM   23  O   UNL     1      42.050 -15.566   1.743  1.00  0.00    -0.266 OA
HETATM   24  N   UNL     1      41.926 -15.037  -0.541  1.00  0.00    -0.321 N 
HETATM   25  C   UNL     1      40.927 -14.513  -1.359  1.00  0.00     0.048 A 
HETATM   26  H   UNL     1      42.863 -15.280  -0.827  1.00  0.00     0.169 HD
HETATM   27  C   UNL     1      41.014 -14.225  -2.704  1.00  0.00     0.032 A 
HETATM   28  C   UNL     1      39.875 -13.687  -3.319  1.00  0.00     0.021 A 
HETATM   29  C   UNL     1      38.695 -13.456  -2.582  1.00  0.00     0.012 A 
HETATM   30 BR   UNL     1      37.188 -12.721  -3.459  1.00  0.00    -0.051 Br
HETATM   31  C   UNL     1      38.617 -13.755  -1.221  1.00  0.00     0.035 A 
ENDBRANCH   2  19
TORSDOF 6
ENDMDL
MODEL 5
REMARK VINA RESULT:      -8.4      5.789      9.941
REMARK  6 active torsions:
REMARK  status: ('A' for Active; 'I' for Inactive)
REMARK    1  A    between atoms: C_5  and  O_6 
REMARK    2  A    between atoms: O_6  and  C_7 
REMARK    3  A    between atoms: C_7  and  C_8 
REMARK       I    between atoms: C_8  and  N_9 
REMARK    4  A    between atoms: N_9  and  C_10 
REMARK    5  A    between atoms: C_10  and  C_11 
REMARK       I    between atoms: C_11  and  N_12 
REMARK    6  A    between atoms: N_12  and  N_13 
ROOT
HETATM    1  C   UNL     1      42.935 -14.485   4.970  1.00  0.00     0.255 C 
HETATM    2  N   UNL     1      41.654 -14.840   4.576  1.00  0.00    -0.245 N 
HETATM    3  O   UNL     1      43.410 -13.350   4.911  1.00  0.00    -0.270 OA
HETATM    4  H   UNL     1      41.299 -15.785   4.735  1.00  0.00     0.192 HD
ENDROOT
BRANCH   1   5
HETATM    5  C   UNL     1      43.771 -15.681   5.430  1.00  0.00     0.227 C 
BRANCH   5   6
HETATM    6  N   UNL     1      43.542 -15.939   6.843  1.00  0.00    -0.350 N 
HETATM    7  C   UNL     1      43.901 -17.039   7.570  1.00  0.00     0.242 C 
HETATM    8  O   UNL     1      43.499 -17.153   8.728  1.00  0.00    -0.271 OA
HETATM    9  H   UNL     1      42.853 -15.349   7.301  1.00  0.00     0.163 HD
BRANCH   7  10
HETATM   10  C   UNL     1      44.854 -18.054   6.946  1.00  0.00     0.278 C 
BRANCH  10  11
HETATM   11  O   UNL     1      44.186 -19.306   6.816  1.00  0.00    -0.342 OA
BRANCH  11  12
HETATM   12  C   UNL     1      44.289 -19.865   5.571  1.00  0.00     0.069 A 
HETATM   13  C   UNL     1      44.573 -21.228   5.531  1.00  0.00     0.037 A 
HETATM   14  C   UNL     1      44.669 -21.892   4.306  1.00  0.00     0.009 A 
HETATM   15  C   UNL     1      44.469 -21.198   3.108  1.00  0.00    -0.062 A 
HETATM   16  C   UNL     1      44.533 -21.912   1.790  1.00  0.00     0.048 C 
HETATM   17  C   UNL     1      44.145 -19.837   3.158  1.00  0.00     0.009 A 
HETATM   18  C   UNL     1      44.054 -19.172   4.384  1.00  0.00     0.037 A 
ENDBRANCH  11  12
ENDBRANCH  10  11
ENDBRANCH   7  10
ENDBRANCH   5   6
ENDBRANCH   1   5
BRANCH   2  19
HETATM   19  N   UNL     1      40.805 -13.894   4.072  1.00  0.00    -0.166 NA
HETATM   20  C   UNL     1      40.060 -14.256   3.078  1.00  0.00     0.157 A 
HETATM   21  C   UNL     1      39.997 -15.620   2.384  1.00  0.00     0.277 A 
HETATM   22  C   UNL     1      39.091 -13.413   2.390  1.00  0.00     0.028 A 
HETATM   23  O   UNL     1      40.691 -16.572   2.674  1.00  0.00    -0.266 OA
HETATM   24  N   UNL     1      39.032 -15.496   1.410  1.00  0.00    -0.321 N 
HETATM   25  C   UNL     1      38.503 -14.207   1.406  1.00  0.00     0.048 A 
HETATM   26  H   UNL     1      38.771 -16.247   0.788  1.00  0.00     0.169 HD
HETATM   27  C   UNL     1      37.532 -13.704   0.567  1.00  0.00     0.032 A 
HETATM   28  C   UNL     1      37.165 -12.363   0.742  1.00  0.00     0.021 A 
HETATM   29  C   UNL     1      37.771 -11.571   1.740  1.00  0.00     0.012 A 
HETATM   30 BR   UNL     1      37.246  -9.762   1.929  1.00  0.00    -0.051 Br
HETATM   31  C   UNL     1      38.751 -12.091   2.586  1.00  0.00     0.035 A 
ENDBRANCH   2  19
TORSDOF 6
ENDMDL
MODEL 6
REMARK VINA RESULT:      -8.4      4.015     10.485
REMARK  6 active torsions:
REMARK  status: ('A' for Active; 'I' for Inactive)
REMARK    1  A    between atoms: C_5  and  O_6 
REMARK    2  A    between atoms: O_6  and  C_7 
REMARK    3  A    between atoms: C_7  and  C_8 
REMARK       I    between atoms: C_8  and  N_9 
REMARK    4  A    between atoms: N_9  and  C_10 
REMARK    5  A    between atoms: C_10  and  C_11 
REMARK       I    between atoms: C_11  and  N_12 
REMARK    6  A    between atoms: N_12  and  N_13 
ROOT
HETATM    1  C   UNL     1      41.372 -11.901   6.788  1.00  0.00     0.255 C 
HETATM    2  N   UNL     1      42.308 -11.453   7.708  1.00  0.00    -0.245 N 
HETATM    3  O   UNL     1      40.169 -11.642   6.813  1.00  0.00    -0.270 OA
HETATM    4  H   UNL     1      43.306 -11.637   7.575  1.00  0.00     0.192 HD
ENDROOT
BRANCH   1   5
HETATM    5  C   UNL     1      41.969 -12.843   5.742  1.00  0.00     0.227 C 
BRANCH   5   6
HETATM    6  N   UNL     1      43.079 -13.589   6.312  1.00  0.00    -0.350 N 
HETATM    7  C   UNL     1      43.497 -14.853   6.003  1.00  0.00     0.242 C 
HETATM    8  O   UNL     1      44.371 -15.384   6.689  1.00  0.00    -0.271 OA
HETATM    9  H   UNL     1      43.457 -13.232   7.186  1.00  0.00     0.163 HD
BRANCH   7  10
HETATM   10  C   UNL     1      42.921 -15.535   4.766  1.00  0.00     0.278 C 
BRANCH  10  11
HETATM   11  O   UNL     1      42.364 -16.793   5.141  1.00  0.00    -0.342 OA
BRANCH  11  12
HETATM   12  C   UNL     1      42.906 -17.861   4.480  1.00  0.00     0.069 A 
HETATM   13  C   UNL     1      42.563 -17.989   3.136  1.00  0.00     0.037 A 
HETATM   14  C   UNL     1      43.091 -19.033   2.371  1.00  0.00     0.009 A 
HETATM   15  C   UNL     1      43.977 -19.951   2.943  1.00  0.00    -0.062 A 
HETATM   16  C   UNL     1      44.577 -21.052   2.120  1.00  0.00     0.048 C 
HETATM   17  C   UNL     1      44.347 -19.792   4.285  1.00  0.00     0.009 A 
HETATM   18  C   UNL     1      43.815 -18.751   5.051  1.00  0.00     0.037 A 
ENDBRANCH  11  12
ENDBRANCH  10  11
ENDBRANCH   7  10
ENDBRANCH   5   6
ENDBRANCH   1   5
BRANCH   2  19
HETATM   19  N   UNL     1      41.919 -10.658   8.750  1.00  0.00    -0.166 NA
HETATM   20  C   UNL     1      42.674 -10.672   9.802  1.00  0.00     0.157 A 
HETATM   21  C   UNL     1      43.963 -11.464  10.036  1.00  0.00     0.277 A 
HETATM   22  C   UNL     1      42.447  -9.906  11.021  1.00  0.00     0.028 A 
HETATM   23  O   UNL     1      44.450 -12.238   9.239  1.00  0.00    -0.266 OA
HETATM   24  N   UNL     1      44.392 -11.108  11.296  1.00  0.00    -0.321 N 
HETATM   25  C   UNL     1      43.508 -10.203  11.877  1.00  0.00     0.048 A 
HETATM   26  H   UNL     1      45.229 -11.478  11.722  1.00  0.00     0.169 HD
HETATM   27  C   UNL     1      43.594  -9.636  13.131  1.00  0.00     0.032 A 
HETATM   28  C   UNL     1      42.572  -8.755  13.507  1.00  0.00     0.021 A 
HETATM   29  C   UNL     1      41.504  -8.467  12.632  1.00  0.00     0.012 A 
HETATM   30 BR   UNL     1      40.145  -7.276  13.194  1.00  0.00    -0.051 Br
HETATM   31  C   UNL     1      41.428  -9.043  11.364  1.00  0.00     0.035 A 
ENDBRANCH   2  19
TORSDOF 6
ENDMDL
MODEL 7
REMARK VINA RESULT:      -8.0      6.036     10.388
REMARK  6 active torsions:
REMARK  status: ('A' for Active; 'I' for Inactive)
REMARK    1  A    between atoms: C_5  and  O_6 
REMARK    2  A    between atoms: O_6  and  C_7 
REMARK    3  A    between atoms: C_7  and  C_8 
REMARK       I    between atoms: C_8  and  N_9 
REMARK    4  A    between atoms: N_9  and  C_10 
REMARK    5  A    between atoms: C_10  and  C_11 
REMARK       I    between atoms: C_11  and  N_12 
REMARK    6  A    between atoms: N_12  and  N_13 
ROOT
HETATM    1  C   UNL     1      40.862 -13.752   3.743  1.00  0.00     0.255 C 
HETATM    2  N   UNL     1      41.042 -14.543   2.619  1.00  0.00    -0.245 N 
HETATM    3  O   UNL     1      40.873 -12.521   3.757  1.00  0.00    -0.270 OA
HETATM    4  H   UNL     1      40.932 -15.559   2.668  1.00  0.00     0.192 HD
ENDROOT
BRANCH   1   5
HETATM    5  C   UNL     1      40.720 -14.567   5.030  1.00  0.00     0.227 C 
BRANCH   5   6
HETATM    6  N   UNL     1      41.954 -14.513   5.797  1.00  0.00    -0.350 N 
HETATM    7  C   UNL     1      42.954 -15.442   5.858  1.00  0.00     0.242 C 
HETATM    8  O   UNL     1      43.864 -15.295   6.674  1.00  0.00    -0.271 OA
HETATM    9  H   UNL     1      41.990 -13.819   6.540  1.00  0.00     0.163 HD
BRANCH   7  10
HETATM   10  C   UNL     1      42.950 -16.592   4.856  1.00  0.00     0.278 C 
BRANCH  10  11
HETATM   11  O   UNL     1      43.965 -17.528   5.212  1.00  0.00    -0.342 OA
BRANCH  11  12
HETATM   12  C   UNL     1      44.023 -18.623   4.394  1.00  0.00     0.069 A 
HETATM   13  C   UNL     1      43.354 -18.518   3.177  1.00  0.00     0.037 A 
HETATM   14  C   UNL     1      43.381 -19.575   2.264  1.00  0.00     0.009 A 
HETATM   15  C   UNL     1      44.090 -20.744   2.557  1.00  0.00    -0.062 A 
HETATM   16  C   UNL     1      44.155 -21.869   1.567  1.00  0.00     0.048 C 
HETATM   17  C   UNL     1      44.793 -20.827   3.765  1.00  0.00     0.009 A 
HETATM   18  C   UNL     1      44.762 -19.771   4.681  1.00  0.00     0.037 A 
ENDBRANCH  11  12
ENDBRANCH  10  11
ENDBRANCH   7  10
ENDBRANCH   5   6
ENDBRANCH   1   5
BRANCH   2  19
HETATM   19  N   UNL     1      41.254 -13.963   1.399  1.00  0.00    -0.166 NA
HETATM   20  C   UNL     1      40.251 -13.952   0.581  1.00  0.00     0.157 A 
HETATM   21  C   UNL     1      38.839 -14.503   0.801  1.00  0.00     0.277 A 
HETATM   22  C   UNL     1      40.256 -13.390  -0.763  1.00  0.00     0.028 A 
HETATM   23  O   UNL     1      38.471 -15.073   1.807  1.00  0.00    -0.266 OA
HETATM   24  N   UNL     1      38.147 -14.219  -0.356  1.00  0.00    -0.321 N 
HETATM   25  C   UNL     1      38.971 -13.574  -1.274  1.00  0.00     0.048 A 
HETATM   26  H   UNL     1      37.179 -14.468  -0.498  1.00  0.00     0.169 HD
HETATM   27  C   UNL     1      38.639 -13.149  -2.543  1.00  0.00     0.032 A 
HETATM   28  C   UNL     1      39.646 -12.531  -3.296  1.00  0.00     0.021 A 
HETATM   29  C   UNL     1      40.942 -12.354  -2.767  1.00  0.00     0.012 A 
HETATM   30 BR   UNL     1      42.267 -11.520  -3.829  1.00  0.00    -0.051 Br
HETATM   31  C   UNL     1      41.267 -12.785  -1.480  1.00  0.00     0.035 A 
ENDBRANCH   2  19
TORSDOF 6
ENDMDL
MODEL 8
REMARK VINA RESULT:      -8.0      6.780     10.871
REMARK  6 active torsions:
REMARK  status: ('A' for Active; 'I' for Inactive)
REMARK    1  A    between atoms: C_5  and  O_6 
REMARK    2  A    between atoms: O_6  and  C_7 
REMARK    3  A    between atoms: C_7  and  C_8 
REMARK       I    between atoms: C_8  and  N_9 
REMARK    4  A    between atoms: N_9  and  C_10 
REMARK    5  A    between atoms: C_10  and  C_11 
REMARK       I    between atoms: C_11  and  N_12 
REMARK    6  A    between atoms: N_12  and  N_13 
ROOT
HETATM    1  C   UNL     1      42.120 -13.118   1.975  1.00  0.00     0.255 C 
HETATM    2  N   UNL     1      40.924 -13.798   1.804  1.00  0.00    -0.245 N 
HETATM    3  O   UNL     1      42.470 -12.121   1.344  1.00  0.00    -0.270 OA
HETATM    4  H   UNL     1      40.663 -14.568   2.425  1.00  0.00     0.192 HD
ENDROOT
BRANCH   1   5
HETATM    5  C   UNL     1      43.042 -13.783   2.999  1.00  0.00     0.227 C 
BRANCH   5   6
HETATM    6  N   UNL     1      42.261 -14.324   4.101  1.00  0.00    -0.350 N 
HETATM    7  C   UNL     1      42.373 -15.549   4.696  1.00  0.00     0.242 C 
HETATM    8  O   UNL     1      41.531 -15.896   5.524  1.00  0.00    -0.271 OA
HETATM    9  H   UNL     1      41.395 -13.839   4.317  1.00  0.00     0.163 HD
BRANCH   7  10
HETATM   10  C   UNL     1      43.585 -16.416   4.369  1.00  0.00     0.278 C 
BRANCH  10  11
HETATM   11  O   UNL     1      43.464 -17.665   5.046  1.00  0.00    -0.342 OA
BRANCH  11  12
HETATM   12  C   UNL     1      43.672 -18.754   4.246  1.00  0.00     0.069 A 
HETATM   13  C   UNL     1      43.044 -18.732   3.002  1.00  0.00     0.037 A 
HETATM   14  C   UNL     1      43.220 -19.787   2.104  1.00  0.00     0.009 A 
HETATM   15  C   UNL     1      44.038 -20.871   2.439  1.00  0.00    -0.062 A 
HETATM   16  C   UNL     1      44.263 -21.990   1.466  1.00  0.00     0.048 C 
HETATM   17  C   UNL     1      44.698 -20.868   3.674  1.00  0.00     0.009 A 
HETATM   18  C   UNL     1      44.517 -19.814   4.575  1.00  0.00     0.037 A 
ENDBRANCH  11  12
ENDBRANCH  10  11
ENDBRANCH   7  10
ENDBRANCH   5   6
ENDBRANCH   1   5
BRANCH   2  19
HETATM   19  N   UNL     1      40.020 -13.370   0.871  1.00  0.00    -0.166 NA
HETATM   20  C   UNL     1      39.993 -14.018  -0.248  1.00  0.00     0.157 A 
HETATM   21  C   UNL     1      40.844 -15.219  -0.673  1.00  0.00     0.277 A 
HETATM   22  C   UNL     1      39.115 -13.733  -1.375  1.00  0.00     0.028 A 
HETATM   23  O   UNL     1      41.712 -15.722   0.009  1.00  0.00    -0.266 OA
HETATM   24  N   UNL     1      40.411 -15.551  -1.937  1.00  0.00    -0.321 N 
HETATM   25  C   UNL     1      39.405 -14.683  -2.355  1.00  0.00     0.048 A 
HETATM   26  H   UNL     1      40.797 -16.315  -2.473  1.00  0.00     0.169 HD
HETATM   27  C   UNL     1      38.741 -14.690  -3.563  1.00  0.00     0.032 A 
HETATM   28  C   UNL     1      37.768 -13.703  -3.765  1.00  0.00     0.021 A 
HETATM   29  C   UNL     1      37.487 -12.747  -2.767  1.00  0.00     0.012 A 
HETATM   30 BR   UNL     1      36.169 -11.429  -3.095  1.00  0.00    -0.051 Br
HETATM   31  C   UNL     1      38.163 -12.750  -1.546  1.00  0.00     0.035 A 
ENDBRANCH   2  19
TORSDOF 6
ENDMDL
MODEL 9
REMARK VINA RESULT:      -7.9      5.426      8.145
REMARK  6 active torsions:
REMARK  status: ('A' for Active; 'I' for Inactive)
REMARK    1  A    between atoms: C_5  and  O_6 
REMARK    2  A    between atoms: O_6  and  C_7 
REMARK    3  A    between atoms: C_7  and  C_8 
REMARK       I    between atoms: C_8  and  N_9 
REMARK    4  A    between atoms: N_9  and  C_10 
REMARK    5  A    between atoms: C_10  and  C_11 
REMARK       I    between atoms: C_11  and  N_12 
REMARK    6  A    between atoms: N_12  and  N_13 
ROOT
HETATM    1  C   UNL     1      41.438 -17.356   5.053  1.00  0.00     0.255 C 
HETATM    2  N   UNL     1      41.589 -17.095   3.699  1.00  0.00    -0.245 N 
HETATM    3  O   UNL     1      40.561 -16.884   5.775  1.00  0.00    -0.270 OA
HETATM    4  H   UNL     1      42.290 -17.592   3.143  1.00  0.00     0.192 HD
ENDROOT
BRANCH   1   5
HETATM    5  C   UNL     1      42.543 -18.253   5.614  1.00  0.00     0.227 C 
BRANCH   5   6
HETATM    6  N   UNL     1      42.714 -18.009   7.038  1.00  0.00    -0.350 N 
HETATM    7  C   UNL     1      43.499 -17.071   7.646  1.00  0.00     0.242 C 
HETATM    8  O   UNL     1      43.634 -17.100   8.870  1.00  0.00    -0.271 OA
HETATM    9  H   UNL     1      42.393 -18.745   7.660  1.00  0.00     0.163 HD
BRANCH   7  10
HETATM   10  C   UNL     1      44.123 -15.970   6.795  1.00  0.00     0.278 C 
BRANCH  10  11
HETATM   11  O   UNL     1      43.380 -14.766   6.967  1.00  0.00    -0.342 OA
BRANCH  11  12
HETATM   12  C   UNL     1      43.041 -14.149   5.794  1.00  0.00     0.069 A 
HETATM   13  C   UNL     1      43.822 -14.465   4.685  1.00  0.00     0.037 A 
HETATM   14  C   UNL     1      43.534 -13.907   3.437  1.00  0.00     0.009 A 
HETATM   15  C   UNL     1      42.451 -13.035   3.286  1.00  0.00    -0.062 A 
HETATM   16  C   UNL     1      42.112 -12.461   1.942  1.00  0.00     0.048 C 
HETATM   17  C   UNL     1      41.647 -12.753   4.397  1.00  0.00     0.009 A 
HETATM   18  C   UNL     1      41.938 -13.308   5.646  1.00  0.00     0.037 A 
ENDBRANCH  11  12
ENDBRANCH  10  11
ENDBRANCH   7  10
ENDBRANCH   5   6
ENDBRANCH   1   5
BRANCH   2  19
HETATM   19  N   UNL     1      40.722 -16.251   3.063  1.00  0.00    -0.166 NA
HETATM   20  C   UNL     1      40.960 -16.011   1.814  1.00  0.00     0.157 A 
HETATM   21  C   UNL     1      42.093 -16.557   0.940  1.00  0.00     0.277 A 
HETATM   22  C   UNL     1      40.169 -15.145   0.949  1.00  0.00     0.028 A 
HETATM   23  O   UNL     1      42.970 -17.297   1.334  1.00  0.00    -0.266 OA
HETATM   24  N   UNL     1      41.885 -16.023  -0.312  1.00  0.00    -0.321 N 
HETATM   25  C   UNL     1      40.765 -15.193  -0.311  1.00  0.00     0.048 A 
HETATM   26  H   UNL     1      42.484 -16.211  -1.102  1.00  0.00     0.169 HD
HETATM   27  C   UNL     1      40.256 -14.474  -1.371  1.00  0.00     0.032 A 
HETATM   28  C   UNL     1      39.119 -13.693  -1.128  1.00  0.00     0.021 A 
HETATM   29  C   UNL     1      38.529 -13.651   0.153  1.00  0.00     0.012 A 
HETATM   30 BR   UNL     1      36.999 -12.572   0.430  1.00  0.00    -0.051 Br
HETATM   31  C   UNL     1      39.051 -14.385   1.218  1.00  0.00     0.035 A 
ENDBRANCH   2  19
TORSDOF 6
ENDMDL
MODEL 10
REMARK VINA RESULT:      -7.9      4.027      4.555
REMARK  6 active torsions:
REMARK  status: ('A' for Active; 'I' for Inactive)
REMARK    1  A    between atoms: C_5  and  O_6 
REMARK    2  A    between atoms: O_6  and  C_7 
REMARK    3  A    between atoms: C_7  and  C_8 
REMARK       I    between atoms: C_8  and  N_9 
REMARK    4  A    between atoms: N_9  and  C_10 
REMARK    5  A    between atoms: C_10  and  C_11 
REMARK       I    between atoms: C_11  and  N_12 
REMARK    6  A    between atoms: N_12  and  N_13 
ROOT
HETATM    1  C   UNL     1      44.260 -13.660   6.437  1.00  0.00     0.255 C 
HETATM    2  N   UNL     1      43.088 -13.117   5.932  1.00  0.00    -0.245 N 
HETATM    3  O   UNL     1      45.119 -14.241   5.774  1.00  0.00    -0.270 OA
HETATM    4  H   UNL     1      42.462 -12.571   6.529  1.00  0.00     0.192 HD
ENDROOT
BRANCH   1   5
HETATM    5  C   UNL     1      44.366 -13.540   7.958  1.00  0.00     0.227 C 
BRANCH   5   6
HETATM    6  N   UNL     1      45.184 -12.392   8.316  1.00  0.00    -0.350 N 
HETATM    7  C   UNL     1      45.140 -11.645   9.459  1.00  0.00     0.242 C 
HETATM    8  O   UNL     1      45.812 -10.617   9.533  1.00  0.00    -0.271 OA
HETATM    9  H   UNL     1      45.697 -11.953   7.556  1.00  0.00     0.163 HD
BRANCH   7  10
HETATM   10  C   UNL     1      44.315 -12.154  10.638  1.00  0.00     0.278 C 
BRANCH  10  11
HETATM   11  O   UNL     1      43.088 -11.431  10.699  1.00  0.00    -0.342 OA
BRANCH  11  12
HETATM   12  C   UNL     1      42.798 -10.930  11.938  1.00  0.00     0.069 A 
HETATM   13  C   UNL     1      43.701 -10.001  12.452  1.00  0.00     0.037 A 
HETATM   14  C   UNL     1      43.474  -9.413  13.699  1.00  0.00     0.009 A 
HETATM   15  C   UNL     1      42.333  -9.742  14.438  1.00  0.00    -0.062 A 
HETATM   16  C   UNL     1      42.064  -9.087  15.760  1.00  0.00     0.048 C 
HETATM   17  C   UNL     1      41.411 -10.647  13.898  1.00  0.00     0.009 A 
HETATM   18  C   UNL     1      41.641 -11.239  12.653  1.00  0.00     0.037 A 
ENDBRANCH  11  12
ENDBRANCH  10  11
ENDBRANCH   7  10
ENDBRANCH   5   6
ENDBRANCH   1   5
BRANCH   2  19
HETATM   19  N   UNL     1      42.811 -13.207   4.597  1.00  0.00    -0.166 NA
HETATM   20  C   UNL     1      41.758 -13.884   4.268  1.00  0.00     0.157 A 
HETATM   21  C   UNL     1      40.766 -14.604   5.187  1.00  0.00     0.277 A 
HETATM   22  C   UNL     1      41.280 -14.108   2.910  1.00  0.00     0.028 A 
HETATM   23  O   UNL     1      40.860 -14.656   6.395  1.00  0.00    -0.266 OA
HETATM   24  N   UNL     1      39.815 -15.147   4.351  1.00  0.00    -0.321 N 
HETATM   25  C   UNL     1      40.113 -14.864   3.020  1.00  0.00     0.048 A 
HETATM   26  H   UNL     1      39.027 -15.683   4.683  1.00  0.00     0.169 HD
HETATM   27  C   UNL     1      39.405 -15.253   1.903  1.00  0.00     0.032 A 
HETATM   28  C   UNL     1      39.908 -14.859   0.657  1.00  0.00     0.021 A 
HETATM   29  C   UNL     1      41.091 -14.097   0.560  1.00  0.00     0.012 A 
HETATM   30 BR   UNL     1      41.732 -13.598  -1.149  1.00  0.00    -0.051 Br
HETATM   31  C   UNL     1      41.799 -13.706   1.697  1.00  0.00     0.035 A 
ENDBRANCH   2  19
TORSDOF 6
ENDMDL
