MODEL 1
REMARK VINA RESULT:      -9.6      0.000      0.000
REMARK  7 active torsions:
REMARK  status: ('A' for Active; 'I' for Inactive)
REMARK    1  A    between atoms: C_3  and  C_4 
REMARK    2  A    between atoms: C_4  and  S_5 
REMARK    3  A    between atoms: S_5  and  C_6 
REMARK    4  A    between atoms: C_6  and  C_7 
REMARK    5  A    between atoms: C_16  and  C_17 
REMARK       I    between atoms: C_17  and  N_18 
REMARK    6  A    between atoms: N_18  and  C_19 
REMARK    7  A    between atoms: C_19  and  C_20 
ROOT
HETATM    1  C   UNL     1      43.244 -16.781   4.694  1.00  0.00     0.162 C 
HETATM    2  N   UNL     1      42.192 -17.408   3.851  1.00  0.00    -0.277 NA
HETATM    3  C   UNL     1      41.963 -16.726   2.639  1.00  0.00     0.036 A 
HETATM    4  C   UNL     1      42.219 -15.354   2.496  1.00  0.00     0.057 A 
HETATM    5  N   UNL     1      42.752 -14.634   3.572  1.00  0.00    -0.324 N 
HETATM    6  C   UNL     1      43.153 -15.242   4.736  1.00  0.00     0.240 C 
HETATM    7  O   UNL     1      43.520 -14.567   5.697  1.00  0.00    -0.271 OA
HETATM    8  C   UNL     1      41.338 -17.404   1.592  1.00  0.00     0.027 A 
HETATM    9  C   UNL     1      41.050 -16.750   0.388  1.00  0.00     0.019 A 
HETATM   10  C   UNL     1      41.344 -15.388   0.234  1.00  0.00     0.034 A 
HETATM   11  C   UNL     1      41.915 -14.689   1.309  1.00  0.00     0.048 A 
HETATM   12  H   UNL     1      41.313 -17.485   4.364  1.00  0.00     0.128 HD
HETATM   13  H   UNL     1      42.810 -13.624   3.539  1.00  0.00     0.169 HD
ENDROOT
BRANCH  10  14
HETATM   14  C   UNL     1      41.124 -14.634  -1.039  1.00  0.00     0.252 C 
HETATM   15  N   UNL     1      42.229 -14.137  -1.692  1.00  0.00    -0.353 N 
HETATM   16  H   UNL     1      43.159 -14.441  -1.453  1.00  0.00     0.163 HD
HETATM   17  O   UNL     1      39.983 -14.465  -1.455  1.00  0.00    -0.268 OA
BRANCH  15  18
HETATM   18  C   UNL     1      42.089 -13.357  -2.904  1.00  0.00     0.161 C 
BRANCH  18  19
HETATM   19  C   UNL     1      42.424 -11.905  -2.664  1.00  0.00    -0.040 A 
HETATM   20  C   UNL     1      43.045 -11.505  -1.471  1.00  0.00     0.010 A 
HETATM   21  C   UNL     1      43.389 -10.166  -1.265  1.00  0.00     0.024 A 
HETATM   22  C   UNL     1      43.118  -9.220  -2.252  1.00  0.00     0.034 A 
HETATM   23 CL   UNL     1      43.542  -7.573  -1.997  1.00  0.00    -0.084 Cl
HETATM   24  C   UNL     1      42.513  -9.601  -3.447  1.00  0.00     0.024 A 
HETATM   25  C   UNL     1      42.175 -10.940  -3.655  1.00  0.00     0.010 A 
ENDBRANCH  18  19
ENDBRANCH  15  18
ENDBRANCH  10  14
BRANCH   1  26
HETATM   26  C   UNL     1      43.230 -17.338   6.127  1.00  0.00     0.103 C 
BRANCH  26  27
HETATM   27  S   UNL     1      43.500 -19.148   6.282  1.00  0.00    -0.162 SA
BRANCH  27  28
HETATM   28  C   UNL     1      44.932 -19.340   5.175  1.00  0.00     0.112 C 
BRANCH  28  29
HETATM   29  C   UNL     1      44.617 -20.234   3.996  1.00  0.00    -0.043 A 
HETATM   30  C   UNL     1      44.741 -21.639   4.060  1.00  0.00    -0.055 A 
HETATM   31  C   UNL     1      45.190 -22.344   5.313  1.00  0.00     0.049 C 
HETATM   32  C   UNL     1      44.408 -22.409   2.933  1.00  0.00     0.007 A 
HETATM   33  C   UNL     1      43.979 -21.804   1.753  1.00  0.00     0.001 A 
HETATM   34  C   UNL     1      43.878 -20.419   1.679  1.00  0.00     0.001 A 
HETATM   35  C   UNL     1      44.197 -19.640   2.791  1.00  0.00     0.008 A 
ENDBRANCH  28  29
ENDBRANCH  27  28
ENDBRANCH  26  27
ENDBRANCH   1  26
TORSDOF 7
ENDMDL
MODEL 2
REMARK VINA RESULT:      -9.5      5.462      8.173
REMARK  7 active torsions:
REMARK  status: ('A' for Active; 'I' for Inactive)
REMARK    1  A    between atoms: C_3  and  C_4 
REMARK    2  A    between atoms: C_4  and  S_5 
REMARK    3  A    between atoms: S_5  and  C_6 
REMARK    4  A    between atoms: C_6  and  C_7 
REMARK    5  A    between atoms: C_16  and  C_17 
REMARK       I    between atoms: C_17  and  N_18 
REMARK    6  A    between atoms: N_18  and  C_19 
REMARK    7  A    between atoms: C_19  and  C_20 
ROOT
HETATM    1  C   UNL     1      42.009 -15.791   2.483  1.00  0.00     0.162 C 
HETATM    2  N   UNL     1      42.489 -14.399   2.685  1.00  0.00    -0.277 NA
HETATM    3  C   UNL     1      41.826 -13.722   3.728  1.00  0.00     0.036 A 
HETATM    4  C   UNL     1      40.520 -14.053   4.119  1.00  0.00     0.057 A 
HETATM    5  N   UNL     1      39.855 -15.110   3.486  1.00  0.00    -0.324 N 
HETATM    6  C   UNL     1      40.476 -15.925   2.571  1.00  0.00     0.240 C 
HETATM    7  O   UNL     1      39.833 -16.778   1.959  1.00  0.00    -0.271 OA
HETATM    8  C   UNL     1      42.434 -12.603   4.299  1.00  0.00     0.027 A 
HETATM    9  C   UNL     1      41.788 -11.875   5.306  1.00  0.00     0.019 A 
HETATM   10  C   UNL     1      40.498 -12.233   5.722  1.00  0.00     0.034 A 
HETATM   11  C   UNL     1      39.860 -13.320   5.105  1.00  0.00     0.048 A 
HETATM   12  H   UNL     1      42.404 -13.857   1.825  1.00  0.00     0.128 HD
HETATM   13  H   UNL     1      38.870 -15.273   3.651  1.00  0.00     0.169 HD
ENDROOT
BRANCH  10  14
HETATM   14  C   UNL     1      39.767 -11.546   6.832  1.00  0.00     0.252 C 
HETATM   15  N   UNL     1      40.168 -11.802   8.123  1.00  0.00    -0.353 N 
HETATM   16  H   UNL     1      41.044 -12.259   8.319  1.00  0.00     0.163 HD
HETATM   17  O   UNL     1      38.834 -10.795   6.569  1.00  0.00    -0.268 OA
BRANCH  15  18
HETATM   18  C   UNL     1      39.476 -11.209   9.248  1.00  0.00     0.161 C 
BRANCH  18  19
HETATM   19  C   UNL     1      40.444 -10.782  10.325  1.00  0.00    -0.040 A 
HETATM   20  C   UNL     1      40.374 -11.345  11.608  1.00  0.00     0.010 A 
HETATM   21  C   UNL     1      41.294 -10.976  12.595  1.00  0.00     0.024 A 
HETATM   22  C   UNL     1      42.289 -10.046  12.303  1.00  0.00     0.034 A 
HETATM   23 CL   UNL     1      43.420  -9.593  13.518  1.00  0.00    -0.084 Cl
HETATM   24  C   UNL     1      42.380  -9.486  11.031  1.00  0.00     0.024 A 
HETATM   25  C   UNL     1      41.465  -9.859  10.044  1.00  0.00     0.010 A 
ENDBRANCH  18  19
ENDBRANCH  15  18
ENDBRANCH  10  14
BRANCH   1  26
HETATM   26  C   UNL     1      42.502 -16.374   1.147  1.00  0.00     0.103 C 
BRANCH  26  27
HETATM   27  S   UNL     1      43.899 -17.560   1.261  1.00  0.00    -0.162 SA
BRANCH  27  28
HETATM   28  C   UNL     1      43.612 -18.212   2.937  1.00  0.00     0.112 C 
BRANCH  28  29
HETATM   29  C   UNL     1      43.955 -19.681   3.038  1.00  0.00    -0.043 A 
HETATM   30  C   UNL     1      44.558 -20.237   4.187  1.00  0.00    -0.055 A 
HETATM   31  C   UNL     1      44.894 -19.403   5.395  1.00  0.00     0.049 C 
HETATM   32  C   UNL     1      44.828 -21.616   4.221  1.00  0.00     0.007 A 
HETATM   33  C   UNL     1      44.527 -22.431   3.131  1.00  0.00     0.001 A 
HETATM   34  C   UNL     1      43.954 -21.883   1.990  1.00  0.00     0.001 A 
HETATM   35  C   UNL     1      43.672 -20.518   1.943  1.00  0.00     0.008 A 
ENDBRANCH  28  29
ENDBRANCH  27  28
ENDBRANCH  26  27
ENDBRANCH   1  26
TORSDOF 7
ENDMDL
MODEL 3
REMARK VINA RESULT:      -9.3      2.719      3.359
REMARK  7 active torsions:
REMARK  status: ('A' for Active; 'I' for Inactive)
REMARK    1  A    between atoms: C_3  and  C_4 
REMARK    2  A    between atoms: C_4  and  S_5 
REMARK    3  A    between atoms: S_5  and  C_6 
REMARK    4  A    between atoms: C_6  and  C_7 
REMARK    5  A    between atoms: C_16  and  C_17 
REMARK       I    between atoms: C_17  and  N_18 
REMARK    6  A    between atoms: N_18  and  C_19 
REMARK    7  A    between atoms: C_19  and  C_20 
ROOT
HETATM    1  C   UNL     1      43.244 -17.090   5.151  1.00  0.00     0.162 C 
HETATM    2  N   UNL     1      42.197 -17.624   4.241  1.00  0.00    -0.277 NA
HETATM    3  C   UNL     1      41.988 -16.827   3.097  1.00  0.00     0.036 A 
HETATM    4  C   UNL     1      42.256 -15.451   3.089  1.00  0.00     0.057 A 
HETATM    5  N   UNL     1      42.782 -14.842   4.235  1.00  0.00    -0.324 N 
HETATM    6  C   UNL     1      43.165 -15.562   5.340  1.00  0.00     0.240 C 
HETATM    7  O   UNL     1      43.525 -14.986   6.366  1.00  0.00    -0.271 OA
HETATM    8  C   UNL     1      41.369 -17.396   1.983  1.00  0.00     0.027 A 
HETATM    9  C   UNL     1      41.101 -16.627   0.844  1.00  0.00     0.019 A 
HETATM   10  C   UNL     1      41.408 -15.259   0.825  1.00  0.00     0.034 A 
HETATM   11  C   UNL     1      41.971 -14.672   1.968  1.00  0.00     0.048 A 
HETATM   12  H   UNL     1      41.312 -17.743   4.734  1.00  0.00     0.128 HD
HETATM   13  H   UNL     1      42.848 -13.834   4.300  1.00  0.00     0.169 HD
ENDROOT
BRANCH  10  14
HETATM   14  C   UNL     1      41.209 -14.385  -0.372  1.00  0.00     0.252 C 
HETATM   15  N   UNL     1      41.287 -14.968  -1.616  1.00  0.00    -0.353 N 
HETATM   16  H   UNL     1      41.265 -15.969  -1.728  1.00  0.00     0.163 HD
HETATM   17  O   UNL     1      41.001 -13.186  -0.219  1.00  0.00    -0.268 OA
BRANCH  15  18
HETATM   18  C   UNL     1      41.153 -14.174  -2.820  1.00  0.00     0.161 C 
BRANCH  18  19
HETATM   19  C   UNL     1      39.731 -14.179  -3.325  1.00  0.00    -0.040 A 
HETATM   20  C   UNL     1      39.153 -15.360  -3.812  1.00  0.00     0.010 A 
HETATM   21  C   UNL     1      37.823 -15.372  -4.246  1.00  0.00     0.024 A 
HETATM   22  C   UNL     1      37.065 -14.204  -4.191  1.00  0.00     0.034 A 
HETATM   23 CL   UNL     1      35.430 -14.222  -4.725  1.00  0.00    -0.084 Cl
HETATM   24  C   UNL     1      37.620 -13.026  -3.700  1.00  0.00     0.024 A 
HETATM   25  C   UNL     1      38.946 -13.016  -3.261  1.00  0.00     0.010 A 
ENDBRANCH  18  19
ENDBRANCH  15  18
ENDBRANCH  10  14
BRANCH   1  26
HETATM   26  C   UNL     1      43.209 -17.783   6.524  1.00  0.00     0.103 C 
BRANCH  26  27
HETATM   27  S   UNL     1      43.757 -19.535   6.549  1.00  0.00    -0.162 SA
BRANCH  27  28
HETATM   28  C   UNL     1      45.039 -19.473   5.258  1.00  0.00     0.112 C 
BRANCH  28  29
HETATM   29  C   UNL     1      44.674 -20.320   4.059  1.00  0.00    -0.043 A 
HETATM   30  C   UNL     1      44.786 -21.728   4.068  1.00  0.00    -0.055 A 
HETATM   31  C   UNL     1      45.270 -22.482   5.279  1.00  0.00     0.049 C 
HETATM   32  C   UNL     1      44.406 -22.454   2.927  1.00  0.00     0.007 A 
HETATM   33  C   UNL     1      43.943 -21.801   1.785  1.00  0.00     0.001 A 
HETATM   34  C   UNL     1      43.854 -20.414   1.765  1.00  0.00     0.001 A 
HETATM   35  C   UNL     1      44.219 -19.679   2.892  1.00  0.00     0.008 A 
ENDBRANCH  28  29
ENDBRANCH  27  28
ENDBRANCH  26  27
ENDBRANCH   1  26
TORSDOF 7
ENDMDL
MODEL 4
REMARK VINA RESULT:      -9.3      5.067      8.312
REMARK  7 active torsions:
REMARK  status: ('A' for Active; 'I' for Inactive)
REMARK    1  A    between atoms: C_3  and  C_4 
REMARK    2  A    between atoms: C_4  and  S_5 
REMARK    3  A    between atoms: S_5  and  C_6 
REMARK    4  A    between atoms: C_6  and  C_7 
REMARK    5  A    between atoms: C_16  and  C_17 
REMARK       I    between atoms: C_17  and  N_18 
REMARK    6  A    between atoms: N_18  and  C_19 
REMARK    7  A    between atoms: C_19  and  C_20 
ROOT
HETATM    1  C   UNL     1      42.138 -15.512   3.157  1.00  0.00     0.162 C 
HETATM    2  N   UNL     1      42.887 -16.280   4.185  1.00  0.00    -0.277 NA
HETATM    3  C   UNL     1      43.379 -15.479   5.236  1.00  0.00     0.036 A 
HETATM    4  C   UNL     1      43.667 -14.117   5.062  1.00  0.00     0.057 A 
HETATM    5  N   UNL     1      43.429 -13.512   3.822  1.00  0.00    -0.324 N 
HETATM    6  C   UNL     1      42.806 -14.171   2.790  1.00  0.00     0.240 C 
HETATM    7  O   UNL     1      42.706 -13.643   1.684  1.00  0.00    -0.271 OA
HETATM    8  C   UNL     1      43.718 -16.087   6.445  1.00  0.00     0.027 A 
HETATM    9  C   UNL     1      44.254 -15.335   7.498  1.00  0.00     0.019 A 
HETATM   10  C   UNL     1      44.503 -13.965   7.334  1.00  0.00     0.034 A 
HETATM   11  C   UNL     1      44.222 -13.364   6.097  1.00  0.00     0.048 A 
HETATM   12  H   UNL     1      43.662 -16.794   3.763  1.00  0.00     0.128 HD
HETATM   13  H   UNL     1      43.759 -12.575   3.633  1.00  0.00     0.169 HD
ENDROOT
BRANCH  10  14
HETATM   14  C   UNL     1      45.015 -13.082   8.427  1.00  0.00     0.252 C 
HETATM   15  N   UNL     1      44.206 -12.877   9.522  1.00  0.00    -0.353 N 
HETATM   16  H   UNL     1      43.399 -13.455   9.692  1.00  0.00     0.163 HD
HETATM   17  O   UNL     1      46.118 -12.557   8.317  1.00  0.00    -0.268 OA
BRANCH  15  18
HETATM   18  C   UNL     1      44.616 -11.997  10.596  1.00  0.00     0.161 C 
BRANCH  18  19
HETATM   19  C   UNL     1      43.657 -10.842  10.756  1.00  0.00    -0.040 A 
HETATM   20  C   UNL     1      42.660 -10.607   9.799  1.00  0.00     0.010 A 
HETATM   21  C   UNL     1      41.749  -9.559   9.966  1.00  0.00     0.024 A 
HETATM   22  C   UNL     1      41.829  -8.744  11.093  1.00  0.00     0.034 A 
HETATM   23 CL   UNL     1      40.707  -7.456  11.297  1.00  0.00    -0.084 Cl
HETATM   24  C   UNL     1      42.806  -8.970  12.059  1.00  0.00     0.024 A 
HETATM   25  C   UNL     1      43.712 -10.020  11.894  1.00  0.00     0.010 A 
ENDBRANCH  18  19
ENDBRANCH  15  18
ENDBRANCH  10  14
BRANCH   1  26
HETATM   26  C   UNL     1      41.913 -16.342   1.880  1.00  0.00     0.103 C 
BRANCH  26  27
HETATM   27  S   UNL     1      43.360 -17.307   1.291  1.00  0.00    -0.162 SA
BRANCH  27  28
HETATM   28  C   UNL     1      42.764 -18.993   1.633  1.00  0.00     0.112 C 
BRANCH  28  29
HETATM   29  C   UNL     1      43.586 -19.675   2.703  1.00  0.00    -0.043 A 
HETATM   30  C   UNL     1      44.047 -21.003   2.568  1.00  0.00    -0.055 A 
HETATM   31  C   UNL     1      43.755 -21.828   1.342  1.00  0.00     0.049 C 
HETATM   32  C   UNL     1      44.827 -21.566   3.592  1.00  0.00     0.007 A 
HETATM   33  C   UNL     1      45.132 -20.839   4.742  1.00  0.00     0.001 A 
HETATM   34  C   UNL     1      44.660 -19.540   4.888  1.00  0.00     0.001 A 
HETATM   35  C   UNL     1      43.892 -18.963   3.878  1.00  0.00     0.008 A 
ENDBRANCH  28  29
ENDBRANCH  27  28
ENDBRANCH  26  27
ENDBRANCH   1  26
TORSDOF 7
ENDMDL
MODEL 5
REMARK VINA RESULT:      -9.3      6.160      9.308
REMARK  7 active torsions:
REMARK  status: ('A' for Active; 'I' for Inactive)
REMARK    1  A    between atoms: C_3  and  C_4 
REMARK    2  A    between atoms: C_4  and  S_5 
REMARK    3  A    between atoms: S_5  and  C_6 
REMARK    4  A    between atoms: C_6  and  C_7 
REMARK    5  A    between atoms: C_16  and  C_17 
REMARK       I    between atoms: C_17  and  N_18 
REMARK    6  A    between atoms: N_18  and  C_19 
REMARK    7  A    between atoms: C_19  and  C_20 
ROOT
HETATM    1  C   UNL     1      42.069 -15.130   5.047  1.00  0.00     0.162 C 
HETATM    2  N   UNL     1      43.531 -14.894   5.183  1.00  0.00    -0.277 NA
HETATM    3  C   UNL     1      43.864 -14.047   6.259  1.00  0.00     0.036 A 
HETATM    4  C   UNL     1      42.972 -13.085   6.754  1.00  0.00     0.057 A 
HETATM    5  N   UNL     1      41.693 -12.974   6.195  1.00  0.00    -0.324 N 
HETATM    6  C   UNL     1      41.225 -13.857   5.253  1.00  0.00     0.240 C 
HETATM    7  O   UNL     1      40.137 -13.669   4.709  1.00  0.00    -0.271 OA
HETATM    8  C   UNL     1      45.167 -14.074   6.760  1.00  0.00     0.027 A 
HETATM    9  C   UNL     1      45.552 -13.216   7.797  1.00  0.00     0.019 A 
HETATM   10  C   UNL     1      44.645 -12.282   8.316  1.00  0.00     0.034 A 
HETATM   11  C   UNL     1      43.353 -12.210   7.772  1.00  0.00     0.048 A 
HETATM   12  H   UNL     1      43.919 -14.510   4.321  1.00  0.00     0.128 HD
HETATM   13  H   UNL     1      41.089 -12.199   6.437  1.00  0.00     0.169 HD
ENDROOT
BRANCH  10  14
HETATM   14  C   UNL     1      44.959 -11.375   9.463  1.00  0.00     0.252 C 
HETATM   15  N   UNL     1      44.175 -11.466  10.591  1.00  0.00    -0.353 N 
HETATM   16  H   UNL     1      43.554 -12.246  10.735  1.00  0.00     0.163 HD
HETATM   17  O   UNL     1      45.883 -10.573   9.367  1.00  0.00    -0.268 OA
BRANCH  15  18
HETATM   18  C   UNL     1      44.392 -10.587  11.721  1.00  0.00     0.161 C 
BRANCH  18  19
HETATM   19  C   UNL     1      43.095  -9.985  12.205  1.00  0.00    -0.040 A 
HETATM   20  C   UNL     1      42.775  -9.990  13.571  1.00  0.00     0.010 A 
HETATM   21  C   UNL     1      41.590  -9.400  14.023  1.00  0.00     0.024 A 
HETATM   22  C   UNL     1      40.723  -8.800  13.113  1.00  0.00     0.034 A 
HETATM   23 CL   UNL     1      39.267  -8.074  13.672  1.00  0.00    -0.084 Cl
HETATM   24  C   UNL     1      41.031  -8.775  11.756  1.00  0.00     0.024 A 
HETATM   25  C   UNL     1      42.217  -9.360  11.305  1.00  0.00     0.010 A 
ENDBRANCH  18  19
ENDBRANCH  15  18
ENDBRANCH  10  14
BRANCH   1  26
HETATM   26  C   UNL     1      41.721 -15.766   3.690  1.00  0.00     0.103 C 
BRANCH  26  27
HETATM   27  S   UNL     1      41.741 -17.602   3.640  1.00  0.00    -0.162 SA
BRANCH  27  28
HETATM   28  C   UNL     1      43.431 -17.873   3.018  1.00  0.00     0.112 C 
BRANCH  28  29
HETATM   29  C   UNL     1      43.817 -19.334   3.053  1.00  0.00    -0.043 A 
HETATM   30  C   UNL     1      44.496 -19.909   4.150  1.00  0.00    -0.055 A 
HETATM   31  C   UNL     1      44.875 -19.103   5.365  1.00  0.00     0.049 C 
HETATM   32  C   UNL     1      44.802 -21.280   4.126  1.00  0.00     0.007 A 
HETATM   33  C   UNL     1      44.464 -22.070   3.028  1.00  0.00     0.001 A 
HETATM   34  C   UNL     1      43.816 -21.502   1.937  1.00  0.00     0.001 A 
HETATM   35  C   UNL     1      43.497 -20.145   1.949  1.00  0.00     0.008 A 
ENDBRANCH  28  29
ENDBRANCH  27  28
ENDBRANCH  26  27
ENDBRANCH   1  26
TORSDOF 7
ENDMDL
MODEL 6
REMARK VINA RESULT:      -9.2      5.667      9.402
REMARK  7 active torsions:
REMARK  status: ('A' for Active; 'I' for Inactive)
REMARK    1  A    between atoms: C_3  and  C_4 
REMARK    2  A    between atoms: C_4  and  S_5 
REMARK    3  A    between atoms: S_5  and  C_6 
REMARK    4  A    between atoms: C_6  and  C_7 
REMARK    5  A    between atoms: C_16  and  C_17 
REMARK       I    between atoms: C_17  and  N_18 
REMARK    6  A    between atoms: N_18  and  C_19 
REMARK    7  A    between atoms: C_19  and  C_20 
ROOT
HETATM    1  C   UNL     1      39.954 -11.220   6.607  1.00  0.00     0.162 C 
HETATM    2  N   UNL     1      41.274 -11.421   5.954  1.00  0.00    -0.277 NA
HETATM    3  C   UNL     1      41.366 -12.629   5.234  1.00  0.00     0.036 A 
HETATM    4  C   UNL     1      40.594 -13.753   5.563  1.00  0.00     0.057 A 
HETATM    5  N   UNL     1      39.673 -13.676   6.614  1.00  0.00    -0.324 N 
HETATM    6  C   UNL     1      39.401 -12.499   7.268  1.00  0.00     0.240 C 
HETATM    7  O   UNL     1      38.663 -12.489   8.253  1.00  0.00    -0.271 OA
HETATM    8  C   UNL     1      42.350 -12.756   4.253  1.00  0.00     0.027 A 
HETATM    9  C   UNL     1      42.507 -13.955   3.548  1.00  0.00     0.019 A 
HETATM   10  C   UNL     1      41.705 -15.065   3.852  1.00  0.00     0.034 A 
HETATM   11  C   UNL     1      40.758 -14.959   4.882  1.00  0.00     0.048 A 
HETATM   12  H   UNL     1      42.029 -11.379   6.640  1.00  0.00     0.128 HD
HETATM   13  H   UNL     1      39.212 -14.508   6.959  1.00  0.00     0.169 HD
ENDROOT
BRANCH  10  14
HETATM   14  C   UNL     1      41.768 -16.359   3.105  1.00  0.00     0.252 C 
HETATM   15  N   UNL     1      42.989 -16.759   2.611  1.00  0.00    -0.353 N 
HETATM   16  H   UNL     1      43.845 -16.323   2.913  1.00  0.00     0.163 HD
HETATM   17  O   UNL     1      40.744 -17.013   2.938  1.00  0.00    -0.268 OA
BRANCH  15  18
HETATM   18  C   UNL     1      43.115 -17.977   1.837  1.00  0.00     0.161 C 
BRANCH  18  19
HETATM   19  C   UNL     1      43.711 -19.092   2.661  1.00  0.00    -0.040 A 
HETATM   20  C   UNL     1      44.094 -18.867   3.991  1.00  0.00     0.010 A 
HETATM   21  C   UNL     1      44.612 -19.910   4.766  1.00  0.00     0.024 A 
HETATM   22  C   UNL     1      44.746 -21.183   4.215  1.00  0.00     0.034 A 
HETATM   23 CL   UNL     1      45.384 -22.465   5.169  1.00  0.00    -0.084 Cl
HETATM   24  C   UNL     1      44.360 -21.426   2.900  1.00  0.00     0.024 A 
HETATM   25  C   UNL     1      43.837 -20.386   2.129  1.00  0.00     0.010 A 
ENDBRANCH  18  19
ENDBRANCH  15  18
ENDBRANCH  10  14
BRANCH   1  26
HETATM   26  C   UNL     1      39.999 -10.083   7.642  1.00  0.00     0.103 C 
BRANCH  26  27
HETATM   27  S   UNL     1      41.651  -9.341   7.941  1.00  0.00    -0.162 SA
BRANCH  27  28
HETATM   28  C   UNL     1      41.933  -9.901   9.651  1.00  0.00     0.112 C 
BRANCH  28  29
HETATM   29  C   UNL     1      43.215 -10.692   9.782  1.00  0.00    -0.043 A 
HETATM   30  C   UNL     1      44.010 -10.652  10.948  1.00  0.00    -0.055 A 
HETATM   31  C   UNL     1      43.629  -9.822  12.146  1.00  0.00     0.049 C 
HETATM   32  C   UNL     1      45.177 -11.431  11.010  1.00  0.00     0.007 A 
HETATM   33  C   UNL     1      45.568 -12.223   9.931  1.00  0.00     0.001 A 
HETATM   34  C   UNL     1      44.799 -12.247   8.773  1.00  0.00     0.001 A 
HETATM   35  C   UNL     1      43.634 -11.486   8.698  1.00  0.00     0.008 A 
ENDBRANCH  28  29
ENDBRANCH  27  28
ENDBRANCH  26  27
ENDBRANCH   1  26
TORSDOF 7
ENDMDL
MODEL 7
REMARK VINA RESULT:      -9.1      6.635     10.223
REMARK  7 active torsions:
REMARK  status: ('A' for Active; 'I' for Inactive)
REMARK    1  A    between atoms: C_3  and  C_4 
REMARK    2  A    between atoms: C_4  and  S_5 
REMARK    3  A    between atoms: S_5  and  C_6 
REMARK    4  A    between atoms: C_6  and  C_7 
REMARK    5  A    between atoms: C_16  and  C_17 
REMARK       I    between atoms: C_17  and  N_18 
REMARK    6  A    between atoms: N_18  and  C_19 
REMARK    7  A    between atoms: C_19  and  C_20 
ROOT
HETATM    1  C   UNL     1      39.905 -10.920   8.033  1.00  0.00     0.162 C 
HETATM    2  N   UNL     1      39.242 -11.924   7.160  1.00  0.00    -0.277 NA
HETATM    3  C   UNL     1      40.132 -12.585   6.289  1.00  0.00     0.036 A 
HETATM    4  C   UNL     1      41.329 -11.994   5.857  1.00  0.00     0.057 A 
HETATM    5  N   UNL     1      41.681 -10.723   6.326  1.00  0.00    -0.324 N 
HETATM    6  C   UNL     1      40.958 -10.070   7.294  1.00  0.00     0.240 C 
HETATM    7  O   UNL     1      41.237  -8.913   7.606  1.00  0.00    -0.271 OA
HETATM    8  C   UNL     1      39.749 -13.807   5.733  1.00  0.00     0.027 A 
HETATM    9  C   UNL     1      40.583 -14.473   4.828  1.00  0.00     0.019 A 
HETATM   10  C   UNL     1      41.798 -13.898   4.429  1.00  0.00     0.034 A 
HETATM   11  C   UNL     1      42.156 -12.640   4.938  1.00  0.00     0.048 A 
HETATM   12  H   UNL     1      38.495 -11.494   6.613  1.00  0.00     0.128 HD
HETATM   13  H   UNL     1      42.461 -10.221   5.920  1.00  0.00     0.169 HD
ENDROOT
BRANCH  10  14
HETATM   14  C   UNL     1      42.771 -14.573   3.516  1.00  0.00     0.252 C 
HETATM   15  N   UNL     1      42.509 -15.871   3.140  1.00  0.00    -0.353 N 
HETATM   16  H   UNL     1      41.603 -16.286   3.290  1.00  0.00     0.163 HD
HETATM   17  O   UNL     1      43.772 -13.969   3.143  1.00  0.00    -0.268 OA
BRANCH  15  18
HETATM   18  C   UNL     1      43.431 -16.602   2.297  1.00  0.00     0.161 C 
BRANCH  18  19
HETATM   19  C   UNL     1      43.801 -17.931   2.911  1.00  0.00    -0.040 A 
HETATM   20  C   UNL     1      43.975 -19.064   2.103  1.00  0.00     0.010 A 
HETATM   21  C   UNL     1      44.354 -20.286   2.668  1.00  0.00     0.024 A 
HETATM   22  C   UNL     1      44.564 -20.379   4.042  1.00  0.00     0.034 A 
HETATM   23 CL   UNL     1      45.030 -21.883   4.735  1.00  0.00    -0.084 Cl
HETATM   24  C   UNL     1      44.407 -19.262   4.857  1.00  0.00     0.024 A 
HETATM   25  C   UNL     1      44.035 -18.040   4.292  1.00  0.00     0.010 A 
ENDBRANCH  18  19
ENDBRANCH  15  18
ENDBRANCH  10  14
BRANCH   1  26
HETATM   26  C   UNL     1      38.881  -9.996   8.714  1.00  0.00     0.103 C 
BRANCH  26  27
HETATM   27  S   UNL     1      39.244  -9.550  10.458  1.00  0.00    -0.162 SA
BRANCH  27  28
HETATM   28  C   UNL     1      40.360 -10.920  10.898  1.00  0.00     0.112 C 
BRANCH  28  29
HETATM   29  C   UNL     1      41.342 -10.524  11.978  1.00  0.00    -0.043 A 
HETATM   30  C   UNL     1      42.691 -10.219  11.694  1.00  0.00    -0.055 A 
HETATM   31  C   UNL     1      43.242 -10.263  10.294  1.00  0.00     0.049 C 
HETATM   32  C   UNL     1      43.542  -9.834  12.744  1.00  0.00     0.007 A 
HETATM   33  C   UNL     1      43.077  -9.770  14.057  1.00  0.00     0.001 A 
HETATM   34  C   UNL     1      41.755 -10.091  14.341  1.00  0.00     0.001 A 
HETATM   35  C   UNL     1      40.895 -10.467  13.311  1.00  0.00     0.008 A 
ENDBRANCH  28  29
ENDBRANCH  27  28
ENDBRANCH  26  27
ENDBRANCH   1  26
TORSDOF 7
ENDMDL
MODEL 8
REMARK VINA RESULT:      -9.0      5.299      8.101
REMARK  7 active torsions:
REMARK  status: ('A' for Active; 'I' for Inactive)
REMARK    1  A    between atoms: C_3  and  C_4 
REMARK    2  A    between atoms: C_4  and  S_5 
REMARK    3  A    between atoms: S_5  and  C_6 
REMARK    4  A    between atoms: C_6  and  C_7 
REMARK    5  A    between atoms: C_16  and  C_17 
REMARK       I    between atoms: C_17  and  N_18 
REMARK    6  A    between atoms: N_18  and  C_19 
REMARK    7  A    between atoms: C_19  and  C_20 
ROOT
HETATM    1  C   UNL     1      40.357 -16.198   1.813  1.00  0.00     0.162 C 
HETATM    2  N   UNL     1      40.890 -16.332   3.194  1.00  0.00    -0.277 NA
HETATM    3  C   UNL     1      40.516 -15.272   4.045  1.00  0.00     0.036 A 
HETATM    4  C   UNL     1      40.216 -13.993   3.553  1.00  0.00     0.057 A 
HETATM    5  N   UNL     1      40.250 -13.756   2.174  1.00  0.00    -0.324 N 
HETATM    6  C   UNL     1      40.449 -14.762   1.260  1.00  0.00     0.240 C 
HETATM    7  O   UNL     1      40.576 -14.501   0.065  1.00  0.00    -0.271 OA
HETATM    8  C   UNL     1      40.576 -15.463   5.426  1.00  0.00     0.027 A 
HETATM    9  C   UNL     1      40.258 -14.421   6.306  1.00  0.00     0.019 A 
HETATM   10  C   UNL     1      39.920 -13.154   5.810  1.00  0.00     0.034 A 
HETATM   11  C   UNL     1      39.920 -12.943   4.423  1.00  0.00     0.048 A 
HETATM   12  H   UNL     1      41.907 -16.413   3.185  1.00  0.00     0.128 HD
HETATM   13  H   UNL     1      40.178 -12.814   1.810  1.00  0.00     0.169 HD
ENDROOT
BRANCH  10  14
HETATM   14  C   UNL     1      39.508 -12.010   6.680  1.00  0.00     0.252 C 
HETATM   15  N   UNL     1      39.707 -12.128   8.038  1.00  0.00    -0.353 N 
HETATM   16  H   UNL     1      40.295 -12.851   8.419  1.00  0.00     0.163 HD
HETATM   17  O   UNL     1      38.997 -11.016   6.174  1.00  0.00    -0.268 OA
BRANCH  15  18
HETATM   18  C   UNL     1      39.289 -11.079   8.944  1.00  0.00     0.161 C 
BRANCH  18  19
HETATM   19  C   UNL     1      40.356 -10.784   9.971  1.00  0.00    -0.040 A 
HETATM   20  C   UNL     1      41.560 -10.173   9.590  1.00  0.00     0.010 A 
HETATM   21  C   UNL     1      42.532  -9.865  10.547  1.00  0.00     0.024 A 
HETATM   22  C   UNL     1      42.305 -10.164  11.888  1.00  0.00     0.034 A 
HETATM   23 CL   UNL     1      43.502  -9.785  13.064  1.00  0.00    -0.084 Cl
HETATM   24  C   UNL     1      41.111 -10.760  12.285  1.00  0.00     0.024 A 
HETATM   25  C   UNL     1      40.137 -11.061  11.330  1.00  0.00     0.010 A 
ENDBRANCH  18  19
ENDBRANCH  15  18
ENDBRANCH  10  14
BRANCH   1  26
HETATM   26  C   UNL     1      41.049 -17.170   0.841  1.00  0.00     0.103 C 
BRANCH  26  27
HETATM   27  S   UNL     1      42.864 -17.349   1.048  1.00  0.00    -0.162 SA
BRANCH  27  28
HETATM   28  C   UNL     1      42.949 -19.110   1.501  1.00  0.00     0.112 C 
BRANCH  28  29
HETATM   29  C   UNL     1      43.677 -19.322   2.809  1.00  0.00    -0.043 A 
HETATM   30  C   UNL     1      44.355 -20.524   3.109  1.00  0.00    -0.055 A 
HETATM   31  C   UNL     1      44.405 -21.675   2.140  1.00  0.00     0.049 C 
HETATM   32  C   UNL     1      45.032 -20.642   4.335  1.00  0.00     0.007 A 
HETATM   33  C   UNL     1      45.023 -19.600   5.262  1.00  0.00     0.001 A 
HETATM   34  C   UNL     1      44.337 -18.425   4.978  1.00  0.00     0.001 A 
HETATM   35  C   UNL     1      43.668 -18.287   3.763  1.00  0.00     0.008 A 
ENDBRANCH  28  29
ENDBRANCH  27  28
ENDBRANCH  26  27
ENDBRANCH   1  26
TORSDOF 7
ENDMDL
MODEL 9
REMARK VINA RESULT:      -9.0      1.903      2.234
REMARK  7 active torsions:
REMARK  status: ('A' for Active; 'I' for Inactive)
REMARK    1  A    between atoms: C_3  and  C_4 
REMARK    2  A    between atoms: C_4  and  S_5 
REMARK    3  A    between atoms: S_5  and  C_6 
REMARK    4  A    between atoms: C_6  and  C_7 
REMARK    5  A    between atoms: C_16  and  C_17 
REMARK       I    between atoms: C_17  and  N_18 
REMARK    6  A    between atoms: N_18  and  C_19 
REMARK    7  A    between atoms: C_19  and  C_20 
ROOT
HETATM    1  C   UNL     1      43.239 -16.474   5.262  1.00  0.00     0.162 C 
HETATM    2  N   UNL     1      42.101 -17.184   4.622  1.00  0.00    -0.277 NA
HETATM    3  C   UNL     1      41.422 -16.405   3.663  1.00  0.00     0.036 A 
HETATM    4  C   UNL     1      41.403 -15.004   3.719  1.00  0.00     0.057 A 
HETATM    5  N   UNL     1      42.106 -14.343   4.734  1.00  0.00    -0.324 N 
HETATM    6  C   UNL     1      42.922 -15.008   5.616  1.00  0.00     0.240 C 
HETATM    7  O   UNL     1      43.441 -14.409   6.557  1.00  0.00    -0.271 OA
HETATM    8  C   UNL     1      40.634 -17.048   2.707  1.00  0.00     0.027 A 
HETATM    9  C   UNL     1      39.906 -16.310   1.766  1.00  0.00     0.019 A 
HETATM   10  C   UNL     1      39.922 -14.908   1.801  1.00  0.00     0.034 A 
HETATM   11  C   UNL     1      40.664 -14.259   2.800  1.00  0.00     0.048 A 
HETATM   12  H   UNL     1      41.434 -17.509   5.323  1.00  0.00     0.128 HD
HETATM   13  H   UNL     1      41.990 -13.347   4.878  1.00  0.00     0.169 HD
ENDROOT
BRANCH  10  14
HETATM   14  C   UNL     1      39.223 -14.049   0.795  1.00  0.00     0.252 C 
HETATM   15  N   UNL     1      39.008 -14.571  -0.460  1.00  0.00    -0.353 N 
HETATM   16  H   UNL     1      39.118 -15.556  -0.643  1.00  0.00     0.163 HD
HETATM   17  O   UNL     1      38.878 -12.913   1.103  1.00  0.00    -0.268 OA
BRANCH  15  18
HETATM   18  C   UNL     1      38.381 -13.780  -1.497  1.00  0.00     0.161 C 
BRANCH  18  19
HETATM   19  C   UNL     1      39.409 -13.072  -2.346  1.00  0.00    -0.040 A 
HETATM   20  C   UNL     1      40.720 -13.564  -2.434  1.00  0.00     0.010 A 
HETATM   21  C   UNL     1      41.662 -12.930  -3.249  1.00  0.00     0.024 A 
HETATM   22  C   UNL     1      41.298 -11.803  -3.983  1.00  0.00     0.034 A 
HETATM   23 CL   UNL     1      42.458 -11.024  -4.986  1.00  0.00    -0.084 Cl
HETATM   24  C   UNL     1      39.998 -11.308  -3.917  1.00  0.00     0.024 A 
HETATM   25  C   UNL     1      39.056 -11.946  -3.108  1.00  0.00     0.010 A 
ENDBRANCH  18  19
ENDBRANCH  15  18
ENDBRANCH  10  14
BRANCH   1  26
HETATM   26  C   UNL     1      43.734 -17.213   6.518  1.00  0.00     0.103 C 
BRANCH  26  27
HETATM   27  S   UNL     1      43.703 -19.046   6.430  1.00  0.00    -0.162 SA
BRANCH  27  28
HETATM   28  C   UNL     1      45.063 -19.319   5.250  1.00  0.00     0.112 C 
BRANCH  28  29
HETATM   29  C   UNL     1      44.622 -20.145   4.062  1.00  0.00    -0.043 A 
HETATM   30  C   UNL     1      44.703 -21.555   4.052  1.00  0.00    -0.055 A 
HETATM   31  C   UNL     1      45.228 -22.332   5.230  1.00  0.00     0.049 C 
HETATM   32  C   UNL     1      44.252 -22.259   2.923  1.00  0.00     0.007 A 
HETATM   33  C   UNL     1      43.749 -21.585   1.811  1.00  0.00     0.001 A 
HETATM   34  C   UNL     1      43.690 -20.196   1.810  1.00  0.00     0.001 A 
HETATM   35  C   UNL     1      44.125 -19.482   2.925  1.00  0.00     0.008 A 
ENDBRANCH  28  29
ENDBRANCH  27  28
ENDBRANCH  26  27
ENDBRANCH   1  26
TORSDOF 7
ENDMDL
MODEL 10
REMARK VINA RESULT:      -9.0      5.903      8.090
REMARK  7 active torsions:
REMARK  status: ('A' for Active; 'I' for Inactive)
REMARK    1  A    between atoms: C_3  and  C_4 
REMARK    2  A    between atoms: C_4  and  S_5 
REMARK    3  A    between atoms: S_5  and  C_6 
REMARK    4  A    between atoms: C_6  and  C_7 
REMARK    5  A    between atoms: C_16  and  C_17 
REMARK       I    between atoms: C_17  and  N_18 
REMARK    6  A    between atoms: N_18  and  C_19 
REMARK    7  A    between atoms: C_19  and  C_20 
ROOT
HETATM    1  C   UNL     1      41.058 -15.708   4.048  1.00  0.00     0.162 C 
HETATM    2  N   UNL     1      39.989 -14.793   3.570  1.00  0.00    -0.277 NA
HETATM    3  C   UNL     1      39.884 -13.608   4.326  1.00  0.00     0.036 A 
HETATM    4  C   UNL     1      40.280 -13.545   5.670  1.00  0.00     0.057 A 
HETATM    5  N   UNL     1      40.832 -14.676   6.283  1.00  0.00    -0.324 N 
HETATM    6  C   UNL     1      41.119 -15.824   5.584  1.00  0.00     0.240 C 
HETATM    7  O   UNL     1      41.506 -16.832   6.174  1.00  0.00    -0.271 OA
HETATM    8  C   UNL     1      39.243 -12.504   3.763  1.00  0.00     0.027 A 
HETATM    9  C   UNL     1      39.076 -11.324   4.498  1.00  0.00     0.019 A 
HETATM   10  C   UNL     1      39.509 -11.251   5.829  1.00  0.00     0.034 A 
HETATM   11  C   UNL     1      40.098 -12.381   6.417  1.00  0.00     0.048 A 
HETATM   12  H   UNL     1      39.085 -15.266   3.558  1.00  0.00     0.128 HD
HETATM   13  H   UNL     1      40.991 -14.697   7.282  1.00  0.00     0.169 HD
ENDROOT
BRANCH  10  14
HETATM   14  C   UNL     1      39.424 -10.009   6.659  1.00  0.00     0.252 C 
HETATM   15  N   UNL     1      40.455  -9.745   7.532  1.00  0.00    -0.353 N 
HETATM   16  H   UNL     1      41.331 -10.239   7.472  1.00  0.00     0.163 HD
HETATM   17  O   UNL     1      38.445  -9.277   6.556  1.00  0.00    -0.268 OA
BRANCH  15  18
HETATM   18  C   UNL     1      40.416  -8.587   8.400  1.00  0.00     0.161 C 
BRANCH  18  19
HETATM   19  C   UNL     1      41.225  -8.814   9.654  1.00  0.00    -0.040 A 
HETATM   20  C   UNL     1      41.236  -7.854  10.677  1.00  0.00     0.010 A 
HETATM   21  C   UNL     1      41.956  -8.081  11.854  1.00  0.00     0.024 A 
HETATM   22  C   UNL     1      42.664  -9.270  12.016  1.00  0.00     0.034 A 
HETATM   23 CL   UNL     1      43.548  -9.547  13.466  1.00  0.00    -0.084 Cl
HETATM   24  C   UNL     1      42.654 -10.238  11.017  1.00  0.00     0.024 A 
HETATM   25  C   UNL     1      41.930 -10.014   9.843  1.00  0.00     0.010 A 
ENDBRANCH  18  19
ENDBRANCH  15  18
ENDBRANCH  10  14
BRANCH   1  26
HETATM   26  C   UNL     1      40.925 -17.110   3.430  1.00  0.00     0.103 C 
BRANCH  26  27
HETATM   27  S   UNL     1      42.101 -17.499   2.074  1.00  0.00    -0.162 SA
BRANCH  27  28
HETATM   28  C   UNL     1      43.582 -17.894   3.056  1.00  0.00     0.112 C 
BRANCH  28  29
HETATM   29  C   UNL     1      43.893 -19.374   3.038  1.00  0.00    -0.043 A 
HETATM   30  C   UNL     1      44.522 -20.026   4.121  1.00  0.00    -0.055 A 
HETATM   31  C   UNL     1      44.918 -19.291   5.373  1.00  0.00     0.049 C 
HETATM   32  C   UNL     1      44.759 -21.409   4.045  1.00  0.00     0.007 A 
HETATM   33  C   UNL     1      44.402 -22.136   2.910  1.00  0.00     0.001 A 
HETATM   34  C   UNL     1      43.803 -21.492   1.833  1.00  0.00     0.001 A 
HETATM   35  C   UNL     1      43.553 -20.122   1.895  1.00  0.00     0.008 A 
ENDBRANCH  28  29
ENDBRANCH  27  28
ENDBRANCH  26  27
ENDBRANCH   1  26
TORSDOF 7
ENDMDL
