MODEL 1
REMARK VINA RESULT:      -8.9      0.000      0.000
REMARK  6 active torsions:
REMARK  status: ('A' for Active; 'I' for Inactive)
REMARK    1  A    between atoms: C_3  and  C_4 
REMARK    2  A    between atoms: C_4  and  C_5 
REMARK    3  A    between atoms: N_8  and  C_10 
REMARK    4  A    between atoms: C_10  and  C_11 
REMARK    5  A    between atoms: N_24  and  C_25 
REMARK    6  A    between atoms: C_25  and  C_26 
ROOT
HETATM    1  C   UNL     1      41.344 -15.020   4.889  1.00  0.00     0.149 C 
HETATM    2  N   UNL     1      42.752 -14.985   4.514  1.00  0.00    -0.220 NA
HETATM    3  C   UNL     1      42.919 -14.992   3.152  1.00  0.00     0.304 C 
HETATM    4  O   UNL     1      44.007 -14.873   2.617  1.00  0.00    -0.253 OA
HETATM    5  N   UNL     1      41.719 -15.197   2.559  1.00  0.00    -0.270 N 
HETATM    6  C   UNL     1      40.713 -15.162   3.486  1.00  0.00     0.257 C 
HETATM    7  O   UNL     1      39.520 -15.320   3.270  1.00  0.00    -0.270 OA
HETATM    8  H   UNL     1      43.357 -14.321   4.997  1.00  0.00     0.134 HD
ENDROOT
BRANCH   1   9
HETATM    9  C   UNL     1      40.997 -13.716   5.601  1.00  0.00     0.067 A 
HETATM   10  C   UNL     1      39.730 -13.442   6.107  1.00  0.00     0.030 A 
HETATM   11  C   UNL     1      39.529 -12.252   6.806  1.00  0.00     0.003 A 
HETATM   12  C   UNL     1      40.588 -11.372   6.990  1.00  0.00     0.019 A 
HETATM   13  C   UNL     1      41.820 -11.716   6.467  1.00  0.00     0.117 A 
HETATM   14  N   UNL     1      42.052 -12.865   5.792  1.00  0.00    -0.263 NA
ENDBRANCH   1   9
BRANCH   1  15
HETATM   15  C   UNL     1      40.989 -16.266   5.780  1.00  0.00     0.028 C 
HETATM   16  C   UNL     1      41.979 -16.557   6.922  1.00  0.00     0.035 C 
HETATM   17  C   UNL     1      43.328 -17.063   6.438  1.00  0.00     0.235 C 
HETATM   18  N   UNL     1      43.178 -18.272   5.541  1.00  0.00    -0.067 N 
HETATM   19  H   UNL     1      42.957 -19.070   6.153  1.00  0.00     0.280 HD
HETATM   20  C   UNL     1      42.092 -18.203   4.495  1.00  0.00     0.235 C 
HETATM   21  C   UNL     1      40.804 -17.596   5.025  1.00  0.00     0.035 C 
BRANCH  18  22
HETATM   22  C   UNL     1      44.497 -18.621   4.846  1.00  0.00     0.278 C 
BRANCH  22  23
HETATM   23  C   UNL     1      44.457 -19.825   3.956  1.00  0.00     0.028 A 
HETATM   24  C   UNL     1      44.267 -19.760   2.568  1.00  0.00     0.045 A 
HETATM   25 CL   UNL     1      44.121 -18.254   1.738  1.00  0.00    -0.084 Cl
HETATM   26  C   UNL     1      44.215 -20.928   1.802  1.00  0.00     0.024 A 
HETATM   27  C   UNL     1      44.353 -22.176   2.410  1.00  0.00     0.005 A 
HETATM   28  C   UNL     1      44.554 -22.256   3.785  1.00  0.00     0.043 A 
HETATM   29  C   UNL     1      44.605 -21.088   4.538  1.00  0.00     0.126 A 
HETATM   30  F   UNL     1      44.827 -21.168   5.857  1.00  0.00    -0.205 F 
ENDBRANCH  22  23
ENDBRANCH  18  22
ENDBRANCH   1  15
BRANCH   5  31
HETATM   31  C   UNL     1      41.556 -15.351   1.123  1.00  0.00     0.168 C 
BRANCH  31  32
HETATM   32  C   UNL     1      41.063 -14.071   0.445  1.00  0.00     0.140 C 
HETATM   33  O   UNL     1      39.644 -14.157   0.216  1.00  0.00    -0.384 OA
HETATM   34  C   UNL     1      39.392 -13.895  -1.173  1.00  0.00     0.168 C 
HETATM   35  C   UNL     1      40.617 -13.185  -1.699  1.00  0.00     0.029 C 
HETATM   36  C   UNL     1      41.716 -13.856  -0.915  1.00  0.00     0.036 C 
ENDBRANCH  31  32
ENDBRANCH   5  31
TORSDOF 6
ENDMDL
MODEL 2
REMARK VINA RESULT:      -8.8      3.091      6.481
REMARK  6 active torsions:
REMARK  status: ('A' for Active; 'I' for Inactive)
REMARK    1  A    between atoms: C_3  and  C_4 
REMARK    2  A    between atoms: C_4  and  C_5 
REMARK    3  A    between atoms: N_8  and  C_10 
REMARK    4  A    between atoms: C_10  and  C_11 
REMARK    5  A    between atoms: N_24  and  C_25 
REMARK    6  A    between atoms: C_25  and  C_26 
ROOT
HETATM    1  C   UNL     1      42.421 -16.416   3.828  1.00  0.00     0.149 C 
HETATM    2  N   UNL     1      43.176 -15.465   3.022  1.00  0.00    -0.220 NA
HETATM    3  C   UNL     1      42.832 -14.167   3.306  1.00  0.00     0.304 C 
HETATM    4  O   UNL     1      43.403 -13.208   2.818  1.00  0.00    -0.253 OA
HETATM    5  N   UNL     1      41.766 -14.163   4.140  1.00  0.00    -0.270 N 
HETATM    6  C   UNL     1      41.483 -15.433   4.564  1.00  0.00     0.257 C 
HETATM    7  O   UNL     1      40.577 -15.764   5.317  1.00  0.00    -0.270 OA
HETATM    8  H   UNL     1      44.181 -15.610   2.930  1.00  0.00     0.134 HD
ENDROOT
BRANCH   1   9
HETATM    9  C   UNL     1      43.391 -17.157   4.743  1.00  0.00     0.067 A 
HETATM   10  C   UNL     1      43.914 -18.411   4.439  1.00  0.00     0.030 A 
HETATM   11  C   UNL     1      44.850 -18.976   5.304  1.00  0.00     0.003 A 
HETATM   12  C   UNL     1      45.248 -18.281   6.440  1.00  0.00     0.019 A 
HETATM   13  C   UNL     1      44.693 -17.038   6.671  1.00  0.00     0.117 A 
HETATM   14  N   UNL     1      43.790 -16.456   5.850  1.00  0.00    -0.263 NA
ENDBRANCH   1   9
BRANCH   1  15
HETATM   15  C   UNL     1      41.587 -17.420   2.950  1.00  0.00     0.028 C 
HETATM   16  C   UNL     1      42.257 -17.851   1.634  1.00  0.00     0.035 C 
HETATM   17  C   UNL     1      42.336 -16.737   0.603  1.00  0.00     0.235 C 
HETATM   18  N   UNL     1      40.977 -16.131   0.335  1.00  0.00    -0.067 N 
HETATM   19  H   UNL     1      40.460 -16.804  -0.248  1.00  0.00     0.280 HD
HETATM   20  C   UNL     1      40.118 -15.843   1.544  1.00  0.00     0.235 C 
HETATM   21  C   UNL     1      40.166 -16.957   2.576  1.00  0.00     0.035 C 
BRANCH  18  22
HETATM   22  C   UNL     1      41.088 -14.849  -0.493  1.00  0.00     0.278 C 
BRANCH  22  23
HETATM   23  C   UNL     1      40.077 -14.700  -1.589  1.00  0.00     0.028 A 
HETATM   24  C   UNL     1      38.901 -13.946  -1.464  1.00  0.00     0.045 A 
HETATM   25 CL   UNL     1      38.536 -13.058  -0.030  1.00  0.00    -0.084 Cl
HETATM   26  C   UNL     1      37.988 -13.872  -2.521  1.00  0.00     0.024 A 
HETATM   27  C   UNL     1      38.239 -14.547  -3.716  1.00  0.00     0.005 A 
HETATM   28  C   UNL     1      39.407 -15.289  -3.859  1.00  0.00     0.043 A 
HETATM   29  C   UNL     1      40.309 -15.355  -2.802  1.00  0.00     0.126 A 
HETATM   30  F   UNL     1      41.447 -16.046  -2.954  1.00  0.00    -0.205 F 
ENDBRANCH  22  23
ENDBRANCH  18  22
ENDBRANCH   1  15
BRANCH   5  31
HETATM   31  C   UNL     1      41.091 -12.948   4.566  1.00  0.00     0.168 C 
BRANCH  31  32
HETATM   32  C   UNL     1      39.893 -12.600   3.680  1.00  0.00     0.140 C 
HETATM   33  O   UNL     1      40.334 -11.832   2.544  1.00  0.00    -0.384 OA
HETATM   34  C   UNL     1      39.561 -10.624   2.484  1.00  0.00     0.168 C 
HETATM   35  C   UNL     1      38.323 -10.872   3.314  1.00  0.00     0.029 C 
HETATM   36  C   UNL     1      38.867 -11.745   4.416  1.00  0.00     0.036 C 
ENDBRANCH  31  32
ENDBRANCH   5  31
TORSDOF 6
ENDMDL
MODEL 3
REMARK VINA RESULT:      -8.7      2.961      7.436
REMARK  6 active torsions:
REMARK  status: ('A' for Active; 'I' for Inactive)
REMARK    1  A    between atoms: C_3  and  C_4 
REMARK    2  A    between atoms: C_4  and  C_5 
REMARK    3  A    between atoms: N_8  and  C_10 
REMARK    4  A    between atoms: C_10  and  C_11 
REMARK    5  A    between atoms: N_24  and  C_25 
REMARK    6  A    between atoms: C_25  and  C_26 
ROOT
HETATM    1  C   UNL     1      42.268 -16.929   2.941  1.00  0.00     0.149 C 
HETATM    2  N   UNL     1      43.149 -15.879   2.446  1.00  0.00    -0.220 NA
HETATM    3  C   UNL     1      43.309 -14.871   3.364  1.00  0.00     0.304 C 
HETATM    4  O   UNL     1      44.075 -13.939   3.199  1.00  0.00    -0.253 OA
HETATM    5  N   UNL     1      42.462 -15.077   4.401  1.00  0.00    -0.270 N 
HETATM    6  C   UNL     1      41.849 -16.295   4.286  1.00  0.00     0.257 C 
HETATM    7  O   UNL     1      41.026 -16.770   5.055  1.00  0.00    -0.270 OA
HETATM    8  H   UNL     1      44.018 -16.160   1.992  1.00  0.00     0.134 HD
ENDROOT
BRANCH   1   9
HETATM    9  C   UNL     1      43.076 -18.216   3.082  1.00  0.00     0.067 A 
HETATM   10  C   UNL     1      43.180 -19.163   2.068  1.00  0.00     0.030 A 
HETATM   11  C   UNL     1      44.002 -20.272   2.266  1.00  0.00     0.003 A 
HETATM   12  C   UNL     1      44.702 -20.408   3.458  1.00  0.00     0.019 A 
HETATM   13  C   UNL     1      44.556 -19.423   4.416  1.00  0.00     0.117 A 
HETATM   14  N   UNL     1      43.776 -18.331   4.254  1.00  0.00    -0.263 NA
ENDBRANCH   1   9
BRANCH   1  15
HETATM   15  C   UNL     1      41.012 -17.145   2.019  1.00  0.00     0.028 C 
HETATM   16  C   UNL     1      41.294 -17.100   0.507  1.00  0.00     0.035 C 
HETATM   17  C   UNL     1      41.650 -15.712   0.001  1.00  0.00     0.235 C 
HETATM   18  N   UNL     1      40.594 -14.696   0.377  1.00  0.00    -0.067 N 
HETATM   19  H   UNL     1      39.791 -14.856  -0.248  1.00  0.00     0.280 HD
HETATM   20  C   UNL     1      40.071 -14.761   1.792  1.00  0.00     0.235 C 
HETATM   21  C   UNL     1      39.832 -16.186   2.264  1.00  0.00     0.035 C 
BRANCH  18  22
HETATM   22  C   UNL     1      41.068 -13.267   0.104  1.00  0.00     0.278 C 
BRANCH  22  23
HETATM   23  C   UNL     1      41.050 -12.845  -1.333  1.00  0.00     0.028 A 
HETATM   24  C   UNL     1      39.941 -13.008  -2.177  1.00  0.00     0.045 A 
HETATM   25 CL   UNL     1      38.451 -13.666  -1.607  1.00  0.00    -0.084 Cl
HETATM   26  C   UNL     1      40.003 -12.614  -3.517  1.00  0.00     0.024 A 
HETATM   27  C   UNL     1      41.172 -12.051  -4.032  1.00  0.00     0.005 A 
HETATM   28  C   UNL     1      42.276 -11.873  -3.204  1.00  0.00     0.043 A 
HETATM   29  C   UNL     1      42.203 -12.267  -1.872  1.00  0.00     0.126 A 
HETATM   30  F   UNL     1      43.258 -12.066  -1.071  1.00  0.00    -0.205 F 
ENDBRANCH  22  23
ENDBRANCH  18  22
ENDBRANCH   1  15
BRANCH   5  31
HETATM   31  C   UNL     1      42.312 -14.143   5.504  1.00  0.00     0.168 C 
BRANCH  31  32
HETATM   32  C   UNL     1      41.308 -13.028   5.200  1.00  0.00     0.140 C 
HETATM   33  O   UNL     1      41.557 -11.901   6.062  1.00  0.00    -0.384 OA
HETATM   34  C   UNL     1      40.333 -11.563   6.732  1.00  0.00     0.168 C 
HETATM   35  C   UNL     1      39.221 -12.191   5.924  1.00  0.00     0.029 C 
HETATM   36  C   UNL     1      39.871 -13.467   5.454  1.00  0.00     0.036 C 
ENDBRANCH  31  32
ENDBRANCH   5  31
TORSDOF 6
ENDMDL
MODEL 4
REMARK VINA RESULT:      -8.6      2.311      3.254
REMARK  6 active torsions:
REMARK  status: ('A' for Active; 'I' for Inactive)
REMARK    1  A    between atoms: C_3  and  C_4 
REMARK    2  A    between atoms: C_4  and  C_5 
REMARK    3  A    between atoms: N_8  and  C_10 
REMARK    4  A    between atoms: C_10  and  C_11 
REMARK    5  A    between atoms: N_24  and  C_25 
REMARK    6  A    between atoms: C_25  and  C_26 
ROOT
HETATM    1  C   UNL     1      40.105 -12.940   2.464  1.00  0.00     0.149 C 
HETATM    2  N   UNL     1      41.465 -13.049   1.951  1.00  0.00    -0.220 NA
HETATM    3  C   UNL     1      41.549 -12.659   0.638  1.00  0.00     0.304 C 
HETATM    4  O   UNL     1      42.605 -12.581   0.035  1.00  0.00    -0.253 OA
HETATM    5  N   UNL     1      40.301 -12.444   0.159  1.00  0.00    -0.270 N 
HETATM    6  C   UNL     1      39.380 -12.516   1.168  1.00  0.00     0.257 C 
HETATM    7  O   UNL     1      38.170 -12.376   1.059  1.00  0.00    -0.270 OA
HETATM    8  H   UNL     1      42.224 -12.693   2.532  1.00  0.00     0.134 HD
ENDROOT
BRANCH   1   9
HETATM    9  C   UNL     1      40.083 -11.884   3.566  1.00  0.00     0.067 A 
HETATM   10  C   UNL     1      38.907 -11.401   4.131  1.00  0.00     0.030 A 
HETATM   11  C   UNL     1      38.992 -10.490   5.183  1.00  0.00     0.003 A 
HETATM   12  C   UNL     1      40.237 -10.089   5.650  1.00  0.00     0.019 A 
HETATM   13  C   UNL     1      41.361 -10.618   5.045  1.00  0.00     0.117 A 
HETATM   14  N   UNL     1      41.316 -11.510   4.030  1.00  0.00    -0.263 NA
ENDBRANCH   1   9
BRANCH   1  15
HETATM   15  C   UNL     1      39.546 -14.315   2.984  1.00  0.00     0.028 C 
HETATM   16  C   UNL     1      40.100 -14.774   4.344  1.00  0.00     0.035 C 
HETATM   17  C   UNL     1      41.562 -15.185   4.294  1.00  0.00     0.235 C 
HETATM   18  N   UNL     1      41.807 -16.238   3.235  1.00  0.00    -0.067 N 
HETATM   19  H   UNL     1      41.441 -17.125   3.607  1.00  0.00     0.280 HD
HETATM   20  C   UNL     1      41.145 -16.013   1.897  1.00  0.00     0.235 C 
HETATM   21  C   UNL     1      39.717 -15.509   2.026  1.00  0.00     0.035 C 
BRANCH  18  22
HETATM   22  C   UNL     1      43.303 -16.460   3.001  1.00  0.00     0.278 C 
BRANCH  22  23
HETATM   23  C   UNL     1      43.808 -17.834   3.317  1.00  0.00     0.028 A 
HETATM   24  C   UNL     1      44.178 -18.250   4.604  1.00  0.00     0.045 A 
HETATM   25 CL   UNL     1      44.023 -17.213   5.976  1.00  0.00    -0.084 Cl
HETATM   26  C   UNL     1      44.666 -19.542   4.822  1.00  0.00     0.024 A 
HETATM   27  C   UNL     1      44.789 -20.436   3.758  1.00  0.00     0.005 A 
HETATM   28  C   UNL     1      44.416 -20.042   2.477  1.00  0.00     0.043 A 
HETATM   29  C   UNL     1      43.931 -18.755   2.272  1.00  0.00     0.126 A 
HETATM   30  F   UNL     1      43.544 -18.389   1.042  1.00  0.00    -0.205 F 
ENDBRANCH  22  23
ENDBRANCH  18  22
ENDBRANCH   1  15
BRANCH   5  31
HETATM   31  C   UNL     1      40.027 -12.107  -1.229  1.00  0.00     0.168 C 
BRANCH  31  32
HETATM   32  C   UNL     1      39.914 -13.344  -2.123  1.00  0.00     0.140 C 
HETATM   33  O   UNL     1      39.897 -14.533  -1.309  1.00  0.00    -0.384 OA
HETATM   34  C   UNL     1      40.923 -15.420  -1.779  1.00  0.00     0.168 C 
HETATM   35  C   UNL     1      41.260 -14.972  -3.182  1.00  0.00     0.029 C 
HETATM   36  C   UNL     1      41.101 -13.477  -3.069  1.00  0.00     0.036 C 
ENDBRANCH  31  32
ENDBRANCH   5  31
TORSDOF 6
ENDMDL
MODEL 5
REMARK VINA RESULT:      -8.1      2.851      5.139
REMARK  6 active torsions:
REMARK  status: ('A' for Active; 'I' for Inactive)
REMARK    1  A    between atoms: C_3  and  C_4 
REMARK    2  A    between atoms: C_4  and  C_5 
REMARK    3  A    between atoms: N_8  and  C_10 
REMARK    4  A    between atoms: C_10  and  C_11 
REMARK    5  A    between atoms: N_24  and  C_25 
REMARK    6  A    between atoms: C_25  and  C_26 
ROOT
HETATM    1  C   UNL     1      41.135 -12.549   0.509  1.00  0.00     0.149 C 
HETATM    2  N   UNL     1      41.569 -13.829  -0.037  1.00  0.00    -0.220 NA
HETATM    3  C   UNL     1      40.586 -14.424  -0.788  1.00  0.00     0.304 C 
HETATM    4  O   UNL     1      40.761 -15.454  -1.415  1.00  0.00    -0.253 OA
HETATM    5  N   UNL     1      39.440 -13.714  -0.661  1.00  0.00    -0.270 N 
HETATM    6  C   UNL     1      39.667 -12.554   0.027  1.00  0.00     0.257 C 
HETATM    7  O   UNL     1      38.836 -11.703   0.313  1.00  0.00    -0.270 OA
HETATM    8  H   UNL     1      42.494 -13.877  -0.464  1.00  0.00     0.134 HD
ENDROOT
BRANCH   1   9
HETATM    9  C   UNL     1      41.990 -11.444  -0.105  1.00  0.00     0.067 A 
HETATM   10  C   UNL     1      42.769 -11.630  -1.243  1.00  0.00     0.030 A 
HETATM   11  C   UNL     1      43.458 -10.539  -1.771  1.00  0.00     0.003 A 
HETATM   12  C   UNL     1      43.351  -9.294  -1.162  1.00  0.00     0.019 A 
HETATM   13  C   UNL     1      42.551  -9.184  -0.041  1.00  0.00     0.117 A 
HETATM   14  N   UNL     1      41.862 -10.218   0.492  1.00  0.00    -0.263 NA
ENDBRANCH   1   9
BRANCH   1  15
HETATM   15  C   UNL     1      41.199 -12.512   2.079  1.00  0.00     0.028 C 
HETATM   16  C   UNL     1      42.463 -13.136   2.697  1.00  0.00     0.035 C 
HETATM   17  C   UNL     1      42.523 -14.648   2.553  1.00  0.00     0.235 C 
HETATM   18  N   UNL     1      41.278 -15.308   3.103  1.00  0.00    -0.067 N 
HETATM   19  H   UNL     1      41.354 -15.278   4.130  1.00  0.00     0.280 HD
HETATM   20  C   UNL     1      39.960 -14.668   2.739  1.00  0.00     0.235 C 
HETATM   21  C   UNL     1      40.004 -13.151   2.811  1.00  0.00     0.035 C 
BRANCH  18  22
HETATM   22  C   UNL     1      41.215 -16.790   2.725  1.00  0.00     0.278 C 
BRANCH  22  23
HETATM   23  C   UNL     1      42.243 -17.665   3.374  1.00  0.00     0.028 A 
HETATM   24  C   UNL     1      43.368 -18.169   2.705  1.00  0.00     0.045 A 
HETATM   25 CL   UNL     1      43.706 -17.770   1.061  1.00  0.00    -0.084 Cl
HETATM   26  C   UNL     1      44.275 -19.003   3.368  1.00  0.00     0.024 A 
HETATM   27  C   UNL     1      44.071 -19.342   4.706  1.00  0.00     0.005 A 
HETATM   28  C   UNL     1      42.966 -18.840   5.386  1.00  0.00     0.043 A 
HETATM   29  C   UNL     1      42.071 -18.011   4.718  1.00  0.00     0.126 A 
HETATM   30  F   UNL     1      41.024 -17.506   5.385  1.00  0.00    -0.205 F 
ENDBRANCH  22  23
ENDBRANCH  18  22
ENDBRANCH   1  15
BRANCH   5  31
HETATM   31  C   UNL     1      38.178 -14.125  -1.255  1.00  0.00     0.168 C 
BRANCH  31  32
HETATM   32  C   UNL     1      38.148 -13.921  -2.772  1.00  0.00     0.140 C 
HETATM   33  O   UNL     1      37.575 -12.635  -3.079  1.00  0.00    -0.384 OA
HETATM   34  C   UNL     1      36.497 -12.829  -4.007  1.00  0.00     0.168 C 
HETATM   35  C   UNL     1      36.714 -14.188  -4.630  1.00  0.00     0.029 C 
HETATM   36  C   UNL     1      37.286 -14.964  -3.472  1.00  0.00     0.036 C 
ENDBRANCH  31  32
ENDBRANCH   5  31
TORSDOF 6
ENDMDL
MODEL 6
REMARK VINA RESULT:      -8.0      2.929      6.669
REMARK  6 active torsions:
REMARK  status: ('A' for Active; 'I' for Inactive)
REMARK    1  A    between atoms: C_3  and  C_4 
REMARK    2  A    between atoms: C_4  and  C_5 
REMARK    3  A    between atoms: N_8  and  C_10 
REMARK    4  A    between atoms: C_10  and  C_11 
REMARK    5  A    between atoms: N_24  and  C_25 
REMARK    6  A    between atoms: C_25  and  C_26 
ROOT
HETATM    1  C   UNL     1      42.126 -14.282   5.070  1.00  0.00     0.149 C 
HETATM    2  N   UNL     1      41.249 -15.374   4.664  1.00  0.00    -0.220 NA
HETATM    3  C   UNL     1      41.571 -16.550   5.294  1.00  0.00     0.304 C 
HETATM    4  O   UNL     1      40.913 -17.568   5.175  1.00  0.00    -0.253 OA
HETATM    5  N   UNL     1      42.721 -16.381   5.989  1.00  0.00    -0.270 N 
HETATM    6  C   UNL     1      43.099 -15.066   5.980  1.00  0.00     0.257 C 
HETATM    7  O   UNL     1      44.094 -14.591   6.509  1.00  0.00    -0.270 OA
HETATM    8  H   UNL     1      40.247 -15.192   4.626  1.00  0.00     0.134 HD
ENDROOT
BRANCH   1   9
HETATM    9  C   UNL     1      41.292 -13.236   5.804  1.00  0.00     0.067 A 
HETATM   10  C   UNL     1      39.927 -13.379   6.036  1.00  0.00     0.030 A 
HETATM   11  C   UNL     1      39.266 -12.402   6.779  1.00  0.00     0.003 A 
HETATM   12  C   UNL     1      39.975 -11.316   7.278  1.00  0.00     0.019 A 
HETATM   13  C   UNL     1      41.330 -11.246   7.015  1.00  0.00     0.117 A 
HETATM   14  N   UNL     1      42.005 -12.179   6.306  1.00  0.00    -0.263 NA
ENDBRANCH   1   9
BRANCH   1  15
HETATM   15  C   UNL     1      42.898 -13.646   3.857  1.00  0.00     0.028 C 
HETATM   16  C   UNL     1      42.107 -12.596   3.056  1.00  0.00     0.035 C 
HETATM   17  C   UNL     1      40.963 -13.188   2.249  1.00  0.00     0.235 C 
HETATM   18  N   UNL     1      41.441 -14.301   1.343  1.00  0.00    -0.067 N 
HETATM   19  H   UNL     1      41.932 -13.854   0.556  1.00  0.00     0.280 HD
HETATM   20  C   UNL     1      42.398 -15.300   1.950  1.00  0.00     0.235 C 
HETATM   21  C   UNL     1      43.455 -14.644   2.823  1.00  0.00     0.035 C 
BRANCH  18  22
HETATM   22  C   UNL     1      40.267 -15.069   0.731  1.00  0.00     0.278 C 
BRANCH  22  23
HETATM   23  C   UNL     1      39.675 -14.464  -0.505  1.00  0.00     0.028 A 
HETATM   24  C   UNL     1      38.458 -13.768  -0.522  1.00  0.00     0.045 A 
HETATM   25 CL   UNL     1      37.548 -13.487   0.917  1.00  0.00    -0.084 Cl
HETATM   26  C   UNL     1      37.951 -13.251  -1.719  1.00  0.00     0.024 A 
HETATM   27  C   UNL     1      38.653 -13.421  -2.912  1.00  0.00     0.005 A 
HETATM   28  C   UNL     1      39.868 -14.101  -2.909  1.00  0.00     0.043 A 
HETATM   29  C   UNL     1      40.363 -14.610  -1.713  1.00  0.00     0.126 A 
HETATM   30  F   UNL     1      41.547 -15.237  -1.709  1.00  0.00    -0.205 F 
ENDBRANCH  22  23
ENDBRANCH  18  22
ENDBRANCH   1  15
BRANCH   5  31
HETATM   31  C   UNL     1      43.390 -17.459   6.698  1.00  0.00     0.168 C 
BRANCH  31  32
HETATM   32  C   UNL     1      44.403 -18.200   5.822  1.00  0.00     0.140 C 
HETATM   33  O   UNL     1      44.179 -17.874   4.436  1.00  0.00    -0.384 OA
HETATM   34  C   UNL     1      44.030 -19.097   3.701  1.00  0.00     0.168 C 
HETATM   35  C   UNL     1      44.633 -20.184   4.560  1.00  0.00     0.029 C 
HETATM   36  C   UNL     1      44.267 -19.713   5.944  1.00  0.00     0.036 C 
ENDBRANCH  31  32
ENDBRANCH   5  31
TORSDOF 6
ENDMDL
MODEL 7
REMARK VINA RESULT:      -7.9      2.566      5.756
REMARK  6 active torsions:
REMARK  status: ('A' for Active; 'I' for Inactive)
REMARK    1  A    between atoms: C_3  and  C_4 
REMARK    2  A    between atoms: C_4  and  C_5 
REMARK    3  A    between atoms: N_8  and  C_10 
REMARK    4  A    between atoms: C_10  and  C_11 
REMARK    5  A    between atoms: N_24  and  C_25 
REMARK    6  A    between atoms: C_25  and  C_26 
ROOT
HETATM    1  C   UNL     1      40.514 -12.900   2.731  1.00  0.00     0.149 C 
HETATM    2  N   UNL     1      40.027 -13.800   3.770  1.00  0.00    -0.220 NA
HETATM    3  C   UNL     1      39.678 -13.121   4.911  1.00  0.00     0.304 C 
HETATM    4  O   UNL     1      39.160 -13.663   5.872  1.00  0.00    -0.253 OA
HETATM    5  N   UNL     1      40.048 -11.825   4.788  1.00  0.00    -0.270 N 
HETATM    6  C   UNL     1      40.490 -11.570   3.518  1.00  0.00     0.257 C 
HETATM    7  O   UNL     1      40.900 -10.500   3.092  1.00  0.00    -0.270 OA
HETATM    8  H   UNL     1      39.357 -14.520   3.501  1.00  0.00     0.134 HD
ENDROOT
BRANCH   1   9
HETATM    9  C   UNL     1      39.545 -12.946   1.554  1.00  0.00     0.067 A 
HETATM   10  C   UNL     1      39.692 -12.154   0.419  1.00  0.00     0.030 A 
HETATM   11  C   UNL     1      38.795 -12.321  -0.636  1.00  0.00     0.003 A 
HETATM   12  C   UNL     1      37.786 -13.271  -0.542  1.00  0.00     0.019 A 
HETATM   13  C   UNL     1      37.708 -14.026   0.612  1.00  0.00     0.117 A 
HETATM   14  N   UNL     1      38.565 -13.898   1.651  1.00  0.00    -0.263 NA
ENDBRANCH   1   9
BRANCH   1  15
HETATM   15  C   UNL     1      41.980 -13.243   2.276  1.00  0.00     0.028 C 
HETATM   16  C   UNL     1      42.096 -14.389   1.255  1.00  0.00     0.035 C 
HETATM   17  C   UNL     1      41.767 -15.753   1.838  1.00  0.00     0.235 C 
HETATM   18  N   UNL     1      42.599 -16.047   3.066  1.00  0.00    -0.067 N 
HETATM   19  H   UNL     1      43.546 -16.278   2.736  1.00  0.00     0.280 HD
HETATM   20  C   UNL     1      42.740 -14.926   4.068  1.00  0.00     0.235 C 
HETATM   21  C   UNL     1      42.970 -13.576   3.408  1.00  0.00     0.035 C 
BRANCH  18  22
HETATM   22  C   UNL     1      42.091 -17.290   3.803  1.00  0.00     0.278 C 
BRANCH  22  23
HETATM   23  C   UNL     1      43.092 -18.391   3.974  1.00  0.00     0.028 A 
HETATM   24  C   UNL     1      43.781 -18.635   5.171  1.00  0.00     0.045 A 
HETATM   25 CL   UNL     1      43.487 -17.709   6.597  1.00  0.00    -0.084 Cl
HETATM   26  C   UNL     1      44.722 -19.666   5.252  1.00  0.00     0.024 A 
HETATM   27  C   UNL     1      44.986 -20.468   4.141  1.00  0.00     0.005 A 
HETATM   28  C   UNL     1      44.301 -20.245   2.950  1.00  0.00     0.043 A 
HETATM   29  C   UNL     1      43.366 -19.217   2.881  1.00  0.00     0.126 A 
HETATM   30  F   UNL     1      42.689 -19.025   1.741  1.00  0.00    -0.205 F 
ENDBRANCH  22  23
ENDBRANCH  18  22
ENDBRANCH   1  15
BRANCH   5  31
HETATM   31  C   UNL     1      39.905 -10.850   5.857  1.00  0.00     0.168 C 
BRANCH  31  32
HETATM   32  C   UNL     1      40.787 -11.170   7.066  1.00  0.00     0.140 C 
HETATM   33  O   UNL     1      39.961 -11.399   8.224  1.00  0.00    -0.384 OA
HETATM   34  C   UNL     1      40.412 -10.538   9.280  1.00  0.00     0.168 C 
HETATM   35  C   UNL     1      41.817 -10.119   8.914  1.00  0.00     0.029 C 
HETATM   36  C   UNL     1      41.721 -10.017   7.414  1.00  0.00     0.036 C 
ENDBRANCH  31  32
ENDBRANCH   5  31
TORSDOF 6
ENDMDL
MODEL 8
REMARK VINA RESULT:      -7.7      3.152      5.495
REMARK  6 active torsions:
REMARK  status: ('A' for Active; 'I' for Inactive)
REMARK    1  A    between atoms: C_3  and  C_4 
REMARK    2  A    between atoms: C_4  and  C_5 
REMARK    3  A    between atoms: N_8  and  C_10 
REMARK    4  A    between atoms: C_10  and  C_11 
REMARK    5  A    between atoms: N_24  and  C_25 
REMARK    6  A    between atoms: C_25  and  C_26 
ROOT
HETATM    1  C   UNL     1      40.554 -12.773   1.206  1.00  0.00     0.149 C 
HETATM    2  N   UNL     1      39.676 -13.937   1.195  1.00  0.00    -0.220 NA
HETATM    3  C   UNL     1      38.352 -13.578   1.146  1.00  0.00     0.304 C 
HETATM    4  O   UNL     1      37.449 -14.388   1.036  1.00  0.00    -0.253 OA
HETATM    5  N   UNL     1      38.251 -12.235   1.289  1.00  0.00    -0.270 N 
HETATM    6  C   UNL     1      39.490 -11.654   1.265  1.00  0.00     0.257 C 
HETATM    7  O   UNL     1      39.736 -10.462   1.377  1.00  0.00    -0.270 OA
HETATM    8  H   UNL     1      39.914 -14.708   0.572  1.00  0.00     0.134 HD
ENDROOT
BRANCH   1   9
HETATM    9  C   UNL     1      41.383 -12.778  -0.075  1.00  0.00     0.067 A 
HETATM   10  C   UNL     1      41.256 -13.755  -1.058  1.00  0.00     0.030 A 
HETATM   11  C   UNL     1      42.007 -13.633  -2.227  1.00  0.00     0.003 A 
HETATM   12  C   UNL     1      42.854 -12.544  -2.394  1.00  0.00     0.019 A 
HETATM   13  C   UNL     1      42.920 -11.609  -1.379  1.00  0.00     0.117 A 
HETATM   14  N   UNL     1      42.202 -11.691  -0.236  1.00  0.00    -0.263 NA
ENDBRANCH   1   9
BRANCH   1  15
HETATM   15  C   UNL     1      41.475 -12.725   2.479  1.00  0.00     0.028 C 
HETATM   16  C   UNL     1      42.758 -13.570   2.391  1.00  0.00     0.035 C 
HETATM   17  C   UNL     1      42.498 -15.067   2.416  1.00  0.00     0.235 C 
HETATM   18  N   UNL     1      41.677 -15.468   3.622  1.00  0.00    -0.067 N 
HETATM   19  H   UNL     1      42.308 -15.437   4.435  1.00  0.00     0.280 HD
HETATM   20  C   UNL     1      40.491 -14.593   3.950  1.00  0.00     0.235 C 
HETATM   21  C   UNL     1      40.797 -13.111   3.808  1.00  0.00     0.035 C 
BRANCH  18  22
HETATM   22  C   UNL     1      41.193 -16.916   3.515  1.00  0.00     0.278 C 
BRANCH  22  23
HETATM   23  C   UNL     1      42.271 -17.955   3.475  1.00  0.00     0.028 A 
HETATM   24  C   UNL     1      43.020 -18.340   4.596  1.00  0.00     0.045 A 
HETATM   25 CL   UNL     1      42.721 -17.681   6.163  1.00  0.00    -0.084 Cl
HETATM   26  C   UNL     1      44.031 -19.300   4.480  1.00  0.00     0.024 A 
HETATM   27  C   UNL     1      44.304 -19.889   3.245  1.00  0.00     0.005 A 
HETATM   28  C   UNL     1      43.560 -19.525   2.127  1.00  0.00     0.043 A 
HETATM   29  C   UNL     1      42.557 -18.571   2.253  1.00  0.00     0.126 A 
HETATM   30  F   UNL     1      41.824 -18.245   1.179  1.00  0.00    -0.205 F 
ENDBRANCH  22  23
ENDBRANCH  18  22
ENDBRANCH   1  15
BRANCH   5  31
HETATM   31  C   UNL     1      36.979 -11.536   1.373  1.00  0.00     0.168 C 
BRANCH  31  32
HETATM   32  C   UNL     1      36.124 -11.715   0.116  1.00  0.00     0.140 C 
HETATM   33  O   UNL     1      36.813 -11.162  -1.023  1.00  0.00    -0.384 OA
HETATM   34  C   UNL     1      35.937 -10.230  -1.674  1.00  0.00     0.168 C 
HETATM   35  C   UNL     1      34.540 -10.562  -1.203  1.00  0.00     0.029 C 
HETATM   36  C   UNL     1      34.792 -10.982   0.222  1.00  0.00     0.036 C 
ENDBRANCH  31  32
ENDBRANCH   5  31
TORSDOF 6
ENDMDL
MODEL 9
REMARK VINA RESULT:      -7.6      2.590      3.857
REMARK  6 active torsions:
REMARK  status: ('A' for Active; 'I' for Inactive)
REMARK    1  A    between atoms: C_3  and  C_4 
REMARK    2  A    between atoms: C_4  and  C_5 
REMARK    3  A    between atoms: N_8  and  C_10 
REMARK    4  A    between atoms: C_10  and  C_11 
REMARK    5  A    between atoms: N_24  and  C_25 
REMARK    6  A    between atoms: C_25  and  C_26 
ROOT
HETATM    1  C   UNL     1      40.826 -14.481   1.733  1.00  0.00     0.149 C 
HETATM    2  N   UNL     1      42.030 -13.933   1.121  1.00  0.00    -0.220 NA
HETATM    3  C   UNL     1      41.792 -12.722   0.519  1.00  0.00     0.304 C 
HETATM    4  O   UNL     1      42.674 -12.041   0.027  1.00  0.00    -0.253 OA
HETATM    5  N   UNL     1      40.461 -12.474   0.533  1.00  0.00    -0.270 N 
HETATM    6  C   UNL     1      39.805 -13.413   1.281  1.00  0.00     0.257 C 
HETATM    7  O   UNL     1      38.600 -13.471   1.481  1.00  0.00    -0.270 OA
HETATM    8  H   UNL     1      42.894 -13.957   1.662  1.00  0.00     0.134 HD
ENDROOT
BRANCH   1   9
HETATM    9  C   UNL     1      41.034 -14.546   3.243  1.00  0.00     0.067 A 
HETATM   10  C   UNL     1      42.292 -14.509   3.838  1.00  0.00     0.030 A 
HETATM   11  C   UNL     1      42.376 -14.501   5.230  1.00  0.00     0.003 A 
HETATM   12  C   UNL     1      41.214 -14.521   5.992  1.00  0.00     0.019 A 
HETATM   13  C   UNL     1      40.002 -14.548   5.331  1.00  0.00     0.117 A 
HETATM   14  N   UNL     1      39.882 -14.548   3.984  1.00  0.00    -0.263 NA
ENDBRANCH   1   9
BRANCH   1  15
HETATM   15  C   UNL     1      40.443 -15.890   1.150  1.00  0.00     0.028 C 
HETATM   16  C   UNL     1      40.281 -17.008   2.196  1.00  0.00     0.035 C 
HETATM   17  C   UNL     1      41.593 -17.432   2.835  1.00  0.00     0.235 C 
HETATM   18  N   UNL     1      42.619 -17.820   1.794  1.00  0.00    -0.067 N 
HETATM   19  H   UNL     1      42.347 -18.748   1.440  1.00  0.00     0.280 HD
HETATM   20  C   UNL     1      42.740 -16.908   0.596  1.00  0.00     0.235 C 
HETATM   21  C   UNL     1      41.390 -16.447   0.071  1.00  0.00     0.035 C 
BRANCH  18  22
HETATM   22  C   UNL     1      44.009 -17.990   2.412  1.00  0.00     0.278 C 
BRANCH  22  23
HETATM   23  C   UNL     1      44.209 -19.240   3.213  1.00  0.00     0.028 A 
HETATM   24  C   UNL     1      44.399 -19.249   4.602  1.00  0.00     0.045 A 
HETATM   25 CL   UNL     1      44.357 -17.800   5.538  1.00  0.00    -0.084 Cl
HETATM   26  C   UNL     1      44.606 -20.453   5.284  1.00  0.00     0.024 A 
HETATM   27  C   UNL     1      44.624 -21.662   4.587  1.00  0.00     0.005 A 
HETATM   28  C   UNL     1      44.426 -21.669   3.210  1.00  0.00     0.043 A 
HETATM   29  C   UNL     1      44.220 -20.466   2.542  1.00  0.00     0.126 A 
HETATM   30  F   UNL     1      44.000 -20.481   1.221  1.00  0.00    -0.205 F 
ENDBRANCH  22  23
ENDBRANCH  18  22
ENDBRANCH   1  15
BRANCH   5  31
HETATM   31  C   UNL     1      39.860 -11.315  -0.107  1.00  0.00     0.168 C 
BRANCH  31  32
HETATM   32  C   UNL     1      39.700 -10.132   0.850  1.00  0.00     0.140 C 
HETATM   33  O   UNL     1      40.531 -10.328   2.010  1.00  0.00    -0.384 OA
HETATM   34  C   UNL     1      39.712 -10.203   3.182  1.00  0.00     0.168 C 
HETATM   35  C   UNL     1      38.467  -9.464   2.752  1.00  0.00     0.029 C 
HETATM   36  C   UNL     1      38.269  -9.993   1.355  1.00  0.00     0.036 C 
ENDBRANCH  31  32
ENDBRANCH   5  31
TORSDOF 6
ENDMDL
MODEL 10
REMARK VINA RESULT:      -7.5      2.631      5.071
REMARK  6 active torsions:
REMARK  status: ('A' for Active; 'I' for Inactive)
REMARK    1  A    between atoms: C_3  and  C_4 
REMARK    2  A    between atoms: C_4  and  C_5 
REMARK    3  A    between atoms: N_8  and  C_10 
REMARK    4  A    between atoms: C_10  and  C_11 
REMARK    5  A    between atoms: N_24  and  C_25 
REMARK    6  A    between atoms: C_25  and  C_26 
ROOT
HETATM    1  C   UNL     1      40.974 -14.352   1.506  1.00  0.00     0.149 C 
HETATM    2  N   UNL     1      39.562 -14.440   1.857  1.00  0.00    -0.220 NA
HETATM    3  C   UNL     1      38.750 -14.132   0.794  1.00  0.00     0.304 C 
HETATM    4  O   UNL     1      37.537 -14.232   0.835  1.00  0.00    -0.253 OA
HETATM    5  N   UNL     1      39.512 -13.676  -0.228  1.00  0.00    -0.270 N 
HETATM    6  C   UNL     1      40.841 -13.825   0.059  1.00  0.00     0.257 C 
HETATM    7  O   UNL     1      41.781 -13.503  -0.655  1.00  0.00    -0.270 OA
HETATM    8  H   UNL     1      39.252 -15.255   2.385  1.00  0.00     0.134 HD
ENDROOT
BRANCH   1   9
HETATM    9  C   UNL     1      41.589 -15.745   1.609  1.00  0.00     0.067 A 
HETATM   10  C   UNL     1      40.971 -16.800   2.274  1.00  0.00     0.030 A 
HETATM   11  C   UNL     1      41.578 -18.055   2.251  1.00  0.00     0.003 A 
HETATM   12  C   UNL     1      42.773 -18.232   1.565  1.00  0.00     0.019 A 
HETATM   13  C   UNL     1      43.322 -17.140   0.920  1.00  0.00     0.117 A 
HETATM   14  N   UNL     1      42.757 -15.912   0.914  1.00  0.00    -0.263 NA
ENDBRANCH   1   9
BRANCH   1  15
HETATM   15  C   UNL     1      41.753 -13.319   2.399  1.00  0.00     0.028 C 
HETATM   16  C   UNL     1      43.109 -13.810   2.936  1.00  0.00     0.035 C 
HETATM   17  C   UNL     1      42.982 -14.897   3.991  1.00  0.00     0.235 C 
HETATM   18  N   UNL     1      42.083 -14.465   5.128  1.00  0.00    -0.067 N 
HETATM   19  H   UNL     1      42.623 -13.799   5.698  1.00  0.00     0.280 HD
HETATM   20  C   UNL     1      40.796 -13.774   4.743  1.00  0.00     0.235 C 
HETATM   21  C   UNL     1      40.982 -12.773   3.615  1.00  0.00     0.035 C 
BRANCH  18  22
HETATM   22  C   UNL     1      41.743 -15.638   6.051  1.00  0.00     0.278 C 
BRANCH  22  23
HETATM   23  C   UNL     1      42.783 -16.712   6.139  1.00  0.00     0.028 A 
HETATM   24  C   UNL     1      44.080 -16.498   6.628  1.00  0.00     0.045 A 
HETATM   25 CL   UNL     1      44.583 -14.965   7.240  1.00  0.00    -0.084 Cl
HETATM   26  C   UNL     1      45.010 -17.543   6.657  1.00  0.00     0.024 A 
HETATM   27  C   UNL     1      44.656 -18.813   6.201  1.00  0.00     0.005 A 
HETATM   28  C   UNL     1      43.369 -19.042   5.723  1.00  0.00     0.043 A 
HETATM   29  C   UNL     1      42.452 -17.997   5.700  1.00  0.00     0.126 A 
HETATM   30  F   UNL     1      41.206 -18.229   5.267  1.00  0.00    -0.205 F 
ENDBRANCH  22  23
ENDBRANCH  18  22
ENDBRANCH   1  15
BRANCH   5  31
HETATM   31  C   UNL     1      38.956 -13.176  -1.475  1.00  0.00     0.168 C 
BRANCH  31  32
HETATM   32  C   UNL     1      38.068 -14.205  -2.178  1.00  0.00     0.140 C 
HETATM   33  O   UNL     1      38.883 -15.258  -2.726  1.00  0.00    -0.384 OA
HETATM   34  C   UNL     1      38.570 -15.396  -4.120  1.00  0.00     0.168 C 
HETATM   35  C   UNL     1      37.223 -14.741  -4.318  1.00  0.00     0.029 C 
HETATM   36  C   UNL     1      37.298 -13.595  -3.343  1.00  0.00     0.036 C 
ENDBRANCH  31  32
ENDBRANCH   5  31
TORSDOF 6
ENDMDL
