MODEL 1
REMARK VINA RESULT:      -7.4      0.000      0.000
REMARK  4 active torsions:
REMARK  status: ('A' for Active; 'I' for Inactive)
REMARK    1  A    between atoms: C_2  and  N_3 
REMARK    2  A    between atoms: C_2  and  C_4 
REMARK    3  A    between atoms: C_7  and  C_10 
REMARK       I    between atoms: C_10  and  N_12 
REMARK    4  A    between atoms: N_12  and  C_13 
ROOT
HETATM    1  C   UNL     1      42.525 -17.112   1.824  1.00  0.00     0.226 C 
HETATM    2  O   UNL     1      43.609 -16.992   1.255  1.00  0.00    -0.273 OA
HETATM    3  N   UNL     1      42.347 -17.898   2.950  1.00  0.00    -0.326 N 
HETATM    4  H   UNL     1      41.501 -17.758   3.485  1.00  0.00     0.169 HD
ENDROOT
BRANCH   1   5
HETATM    5  C   UNL     1      41.248 -16.465   1.253  1.00  0.00     0.078 C 
HETATM    6  C   UNL     1      41.644 -15.353   0.264  1.00  0.00     0.014 C 
HETATM    7  C   UNL     1      40.436 -14.657  -0.358  1.00  0.00     0.007 C 
HETATM    8  C   UNL     1      39.489 -14.094   0.714  1.00  0.00     0.018 C 
HETATM    9  C   UNL     1      39.064 -15.224   1.667  1.00  0.00     0.007 C 
HETATM   10  C   UNL     1      40.271 -15.917   2.302  1.00  0.00     0.014 C 
BRANCH   8  11
HETATM   11  C   UNL     1      38.299 -13.320   0.084  1.00  0.00     0.218 C 
HETATM   12  C   UNL     1      38.048 -13.622  -1.394  1.00  0.00     0.043 C 
BRANCH  11  13
HETATM   13  N   UNL     1      37.070 -13.596   0.833  1.00  0.00     0.082 N 
HETATM   14  H   UNL     1      37.094 -14.549   1.197  1.00  0.00     0.313 HD
HETATM   15  H   UNL     1      36.269 -13.558   0.205  1.00  0.00     0.313 HD
ENDBRANCH  11  13
ENDBRANCH   8  11
ENDBRANCH   1   5
BRANCH   3  16
HETATM   16  C   UNL     1      43.328 -18.722   3.547  1.00  0.00     0.050 A 
HETATM   17  C   UNL     1      44.008 -18.378   4.727  1.00  0.00     0.047 A 
HETATM   18  C   UNL     1      44.967 -19.221   5.272  1.00  0.00     0.092 A 
HETATM   19  N   UNL     1      45.276 -20.384   4.689  1.00  0.00    -0.351 N 
HETATM   20  H   UNL     1      45.979 -20.994   5.102  1.00  0.00     0.166 HD
HETATM   21  C   UNL     1      44.639 -20.731   3.540  1.00  0.00     0.117 A 
HETATM   22  N   UNL     1      44.816 -21.874   2.807  1.00  0.00    -0.352 N 
HETATM   23  C   UNL     1      43.674 -19.942   2.927  1.00  0.00     0.036 A 
HETATM   24  H   UNL     1      45.450 -22.638   3.009  1.00  0.00     0.166 HD
HETATM   25  C   UNL     1      43.972 -21.842   1.726  1.00  0.00     0.090 A 
HETATM   26  C   UNL     1      43.256 -20.663   1.773  1.00  0.00     0.034 A 
ENDBRANCH   3  16
TORSDOF 4
ENDMDL
MODEL 2
REMARK VINA RESULT:      -7.4      1.609      7.999
REMARK  4 active torsions:
REMARK  status: ('A' for Active; 'I' for Inactive)
REMARK    1  A    between atoms: C_2  and  N_3 
REMARK    2  A    between atoms: C_2  and  C_4 
REMARK    3  A    between atoms: C_7  and  C_10 
REMARK       I    between atoms: C_10  and  N_12 
REMARK    4  A    between atoms: N_12  and  C_13 
ROOT
HETATM    1  C   UNL     1      42.814 -17.369   1.554  1.00  0.00     0.226 C 
HETATM    2  O   UNL     1      43.706 -16.530   1.432  1.00  0.00    -0.273 OA
HETATM    3  N   UNL     1      41.548 -17.209   1.015  1.00  0.00    -0.326 N 
HETATM    4  H   UNL     1      40.962 -18.030   0.956  1.00  0.00     0.169 HD
ENDROOT
BRANCH   1   5
HETATM    5  C   UNL     1      43.018 -18.632   2.413  1.00  0.00     0.078 C 
HETATM    6  C   UNL     1      43.729 -18.242   3.723  1.00  0.00     0.014 C 
HETATM    7  C   UNL     1      43.969 -19.436   4.643  1.00  0.00     0.007 C 
HETATM    8  C   UNL     1      44.750 -20.554   3.935  1.00  0.00     0.018 C 
HETATM    9  C   UNL     1      44.005 -20.966   2.654  1.00  0.00     0.007 C 
HETATM   10  C   UNL     1      43.773 -19.775   1.722  1.00  0.00     0.014 C 
BRANCH   8  11
HETATM   11  C   UNL     1      45.061 -21.736   4.891  1.00  0.00     0.218 C 
HETATM   12  C   UNL     1      44.284 -21.718   6.208  1.00  0.00     0.043 C 
BRANCH  11  13
HETATM   13  N   UNL     1      44.802 -23.010   4.214  1.00  0.00     0.082 N 
HETATM   14  H   UNL     1      44.361 -23.662   4.863  1.00  0.00     0.313 HD
HETATM   15  H   UNL     1      45.684 -23.441   3.942  1.00  0.00     0.313 HD
ENDBRANCH  11  13
ENDBRANCH   8  11
ENDBRANCH   1   5
BRANCH   3  16
HETATM   16  C   UNL     1      41.076 -16.060   0.342  1.00  0.00     0.050 A 
HETATM   17  C   UNL     1      41.244 -15.852  -1.037  1.00  0.00     0.047 A 
HETATM   18  C   UNL     1      40.764 -14.703  -1.651  1.00  0.00     0.092 A 
HETATM   19  N   UNL     1      40.131 -13.757  -0.950  1.00  0.00    -0.351 N 
HETATM   20  H   UNL     1      39.781 -12.921  -1.414  1.00  0.00     0.166 HD
HETATM   21  C   UNL     1      39.968 -13.932   0.388  1.00  0.00     0.117 A 
HETATM   22  N   UNL     1      39.347 -13.084   1.266  1.00  0.00    -0.352 N 
HETATM   23  C   UNL     1      40.423 -15.048   1.079  1.00  0.00     0.036 A 
HETATM   24  H   UNL     1      38.912 -12.194   1.052  1.00  0.00     0.166 HD
HETATM   25  C   UNL     1      39.387 -13.638   2.520  1.00  0.00     0.090 A 
HETATM   26  C   UNL     1      40.045 -14.847   2.437  1.00  0.00     0.034 A 
ENDBRANCH   3  16
TORSDOF 4
ENDMDL
MODEL 3
REMARK VINA RESULT:      -7.3      2.525      7.901
REMARK  4 active torsions:
REMARK  status: ('A' for Active; 'I' for Inactive)
REMARK    1  A    between atoms: C_2  and  N_3 
REMARK    2  A    between atoms: C_2  and  C_4 
REMARK    3  A    between atoms: C_7  and  C_10 
REMARK       I    between atoms: C_10  and  N_12 
REMARK    4  A    between atoms: N_12  and  C_13 
ROOT
HETATM    1  C   UNL     1      41.311 -16.101   1.069  1.00  0.00     0.226 C 
HETATM    2  O   UNL     1      40.186 -15.756   1.430  1.00  0.00    -0.273 OA
HETATM    3  N   UNL     1      42.010 -15.457   0.062  1.00  0.00    -0.326 N 
HETATM    4  H   UNL     1      43.000 -15.648  -0.010  1.00  0.00     0.169 HD
ENDROOT
BRANCH   1   5
HETATM    5  C   UNL     1      41.987 -17.356   1.655  1.00  0.00     0.078 C 
HETATM    6  C   UNL     1      41.960 -17.272   3.192  1.00  0.00     0.014 C 
HETATM    7  C   UNL     1      42.607 -18.482   3.861  1.00  0.00     0.007 C 
HETATM    8  C   UNL     1      44.047 -18.702   3.372  1.00  0.00     0.018 C 
HETATM    9  C   UNL     1      44.053 -18.830   1.839  1.00  0.00     0.007 C 
HETATM   10  C   UNL     1      43.417 -17.614   1.163  1.00  0.00     0.014 C 
BRANCH   8  11
HETATM   11  C   UNL     1      44.733 -19.886   4.106  1.00  0.00     0.218 C 
HETATM   12  C   UNL     1      44.269 -20.102   5.547  1.00  0.00     0.043 C 
BRANCH  11  13
HETATM   13  N   UNL     1      44.525 -21.128   3.357  1.00  0.00     0.082 N 
HETATM   14  H   UNL     1      45.172 -21.843   3.689  1.00  0.00     0.313 HD
HETATM   15  H   UNL     1      44.753 -20.980   2.375  1.00  0.00     0.313 HD
ENDBRANCH  11  13
ENDBRANCH   8  11
ENDBRANCH   1   5
BRANCH   3  16
HETATM   16  C   UNL     1      41.523 -14.399  -0.737  1.00  0.00     0.050 A 
HETATM   17  C   UNL     1      41.665 -13.045  -0.391  1.00  0.00     0.047 A 
HETATM   18  C   UNL     1      41.165 -12.040  -1.209  1.00  0.00     0.092 A 
HETATM   19  N   UNL     1      40.530 -12.330  -2.349  1.00  0.00    -0.351 N 
HETATM   20  H   UNL     1      40.171 -11.583  -2.941  1.00  0.00     0.166 HD
HETATM   21  C   UNL     1      40.371 -13.634  -2.698  1.00  0.00     0.117 A 
HETATM   22  N   UNL     1      39.757 -14.124  -3.820  1.00  0.00    -0.352 N 
HETATM   23  C   UNL     1      40.834 -14.697  -1.933  1.00  0.00     0.036 A 
HETATM   24  H   UNL     1      39.327 -13.588  -4.565  1.00  0.00     0.166 HD
HETATM   25  C   UNL     1      39.822 -15.494  -3.798  1.00  0.00     0.090 A 
HETATM   26  C   UNL     1      40.479 -15.876  -2.647  1.00  0.00     0.034 A 
ENDBRANCH   3  16
TORSDOF 4
ENDMDL
MODEL 4
REMARK VINA RESULT:      -7.3      3.731      7.619
REMARK  4 active torsions:
REMARK  status: ('A' for Active; 'I' for Inactive)
REMARK    1  A    between atoms: C_2  and  N_3 
REMARK    2  A    between atoms: C_2  and  C_4 
REMARK    3  A    between atoms: C_7  and  C_10 
REMARK       I    between atoms: C_10  and  N_12 
REMARK    4  A    between atoms: N_12  and  C_13 
ROOT
HETATM    1  C   UNL     1      42.737 -16.274   3.787  1.00  0.00     0.226 C 
HETATM    2  O   UNL     1      43.204 -15.424   3.029  1.00  0.00    -0.273 OA
HETATM    3  N   UNL     1      42.123 -15.959   4.987  1.00  0.00    -0.326 N 
HETATM    4  H   UNL     1      41.567 -16.680   5.427  1.00  0.00     0.169 HD
ENDROOT
BRANCH   1   5
HETATM    5  C   UNL     1      42.896 -17.779   3.493  1.00  0.00     0.078 C 
HETATM    6  C   UNL     1      44.045 -18.342   4.350  1.00  0.00     0.014 C 
HETATM    7  C   UNL     1      44.271 -19.835   4.127  1.00  0.00     0.007 C 
HETATM    8  C   UNL     1      44.513 -20.160   2.644  1.00  0.00     0.018 C 
HETATM    9  C   UNL     1      43.337 -19.633   1.806  1.00  0.00     0.007 C 
HETATM   10  C   UNL     1      43.113 -18.134   2.016  1.00  0.00     0.014 C 
BRANCH   8  11
HETATM   11  C   UNL     1      44.819 -21.666   2.425  1.00  0.00     0.218 C 
HETATM   12  C   UNL     1      44.574 -22.555   3.645  1.00  0.00     0.043 C 
BRANCH  11  13
HETATM   13  N   UNL     1      44.025 -22.180   1.306  1.00  0.00     0.082 N 
HETATM   14  H   UNL     1      43.819 -23.169   1.455  1.00  0.00     0.313 HD
HETATM   15  H   UNL     1      44.572 -22.137   0.447  1.00  0.00     0.313 HD
ENDBRANCH  11  13
ENDBRANCH   8  11
ENDBRANCH   1   5
BRANCH   3  16
HETATM   16  C   UNL     1      42.020 -14.667   5.549  1.00  0.00     0.050 A 
HETATM   17  C   UNL     1      40.931 -13.811   5.316  1.00  0.00     0.047 A 
HETATM   18  C   UNL     1      40.878 -12.547   5.888  1.00  0.00     0.092 A 
HETATM   19  N   UNL     1      41.862 -12.104   6.676  1.00  0.00    -0.351 N 
HETATM   20  H   UNL     1      41.808 -11.176   7.092  1.00  0.00     0.166 HD
HETATM   21  C   UNL     1      42.931 -12.910   6.906  1.00  0.00     0.117 A 
HETATM   22  N   UNL     1      44.026 -12.636   7.683  1.00  0.00    -0.352 N 
HETATM   23  C   UNL     1      43.065 -14.184   6.367  1.00  0.00     0.036 A 
HETATM   24  H   UNL     1      44.207 -11.788   8.206  1.00  0.00     0.166 HD
HETATM   25  C   UNL     1      44.868 -13.719   7.660  1.00  0.00     0.090 A 
HETATM   26  C   UNL     1      44.302 -14.688   6.857  1.00  0.00     0.034 A 
ENDBRANCH   3  16
TORSDOF 4
ENDMDL
MODEL 5
REMARK VINA RESULT:      -7.3      2.187      2.374
REMARK  4 active torsions:
REMARK  status: ('A' for Active; 'I' for Inactive)
REMARK    1  A    between atoms: C_2  and  N_3 
REMARK    2  A    between atoms: C_2  and  C_4 
REMARK    3  A    between atoms: C_7  and  C_10 
REMARK       I    between atoms: C_10  and  N_12 
REMARK    4  A    between atoms: N_12  and  C_13 
ROOT
HETATM    1  C   UNL     1      41.724 -17.015   2.603  1.00  0.00     0.226 C 
HETATM    2  O   UNL     1      41.040 -17.201   3.610  1.00  0.00    -0.273 OA
HETATM    3  N   UNL     1      42.945 -17.634   2.395  1.00  0.00    -0.326 N 
HETATM    4  H   UNL     1      43.322 -17.612   1.457  1.00  0.00     0.169 HD
ENDROOT
BRANCH   1   5
HETATM    5  C   UNL     1      41.306 -15.985   1.535  1.00  0.00     0.078 C 
HETATM    6  C   UNL     1      41.540 -16.586   0.136  1.00  0.00     0.014 C 
HETATM    7  C   UNL     1      41.147 -15.633  -0.990  1.00  0.00     0.007 C 
HETATM    8  C   UNL     1      41.870 -14.282  -0.871  1.00  0.00     0.018 C 
HETATM    9  C   UNL     1      41.590 -13.672   0.512  1.00  0.00     0.007 C 
HETATM   10  C   UNL     1      41.993 -14.618   1.645  1.00  0.00     0.014 C 
BRANCH   8  11
HETATM   11  C   UNL     1      41.530 -13.340  -2.057  1.00  0.00     0.218 C 
HETATM   12  C   UNL     1      41.507 -11.851  -1.707  1.00  0.00     0.043 C 
BRANCH  11  13
HETATM   13  N   UNL     1      42.482 -13.548  -3.151  1.00  0.00     0.082 N 
HETATM   14  H   UNL     1      41.979 -13.802  -4.002  1.00  0.00     0.313 HD
HETATM   15  H   UNL     1      43.085 -14.340  -2.936  1.00  0.00     0.313 HD
ENDBRANCH  11  13
ENDBRANCH   8  11
ENDBRANCH   1   5
BRANCH   3  16
HETATM   16  C   UNL     1      43.612 -18.477   3.312  1.00  0.00     0.050 A 
HETATM   17  C   UNL     1      44.060 -18.043   4.570  1.00  0.00     0.047 A 
HETATM   18  C   UNL     1      44.715 -18.910   5.435  1.00  0.00     0.092 A 
HETATM   19  N   UNL     1      44.942 -20.183   5.096  1.00  0.00    -0.351 N 
HETATM   20  H   UNL     1      45.421 -20.809   5.742  1.00  0.00     0.166 HD
HETATM   21  C   UNL     1      44.528 -20.621   3.878  1.00  0.00     0.117 A 
HETATM   22  N   UNL     1      44.665 -21.881   3.359  1.00  0.00    -0.352 N 
HETATM   23  C   UNL     1      43.873 -19.817   2.954  1.00  0.00     0.036 A 
HETATM   24  H   UNL     1      45.097 -22.682   3.804  1.00  0.00     0.166 HD
HETATM   25  C   UNL     1      44.101 -21.908   2.109  1.00  0.00     0.090 A 
HETATM   26  C   UNL     1      43.606 -20.651   1.831  1.00  0.00     0.034 A 
ENDBRANCH   3  16
TORSDOF 4
ENDMDL
MODEL 6
REMARK VINA RESULT:      -7.2      2.739      8.146
REMARK  4 active torsions:
REMARK  status: ('A' for Active; 'I' for Inactive)
REMARK    1  A    between atoms: C_2  and  N_3 
REMARK    2  A    between atoms: C_2  and  C_4 
REMARK    3  A    between atoms: C_7  and  C_10 
REMARK       I    between atoms: C_10  and  N_12 
REMARK    4  A    between atoms: N_12  and  C_13 
ROOT
HETATM    1  C   UNL     1      41.212 -16.157   0.572  1.00  0.00     0.226 C 
HETATM    2  O   UNL     1      40.304 -15.454   1.015  1.00  0.00    -0.273 OA
HETATM    3  N   UNL     1      41.673 -16.060  -0.731  1.00  0.00    -0.326 N 
HETATM    4  H   UNL     1      42.561 -16.495  -0.942  1.00  0.00     0.169 HD
ENDROOT
BRANCH   1   5
HETATM    5  C   UNL     1      41.840 -17.280   1.421  1.00  0.00     0.078 C 
HETATM    6  C   UNL     1      41.545 -17.013   2.908  1.00  0.00     0.014 C 
HETATM    7  C   UNL     1      42.127 -18.083   3.828  1.00  0.00     0.007 C 
HETATM    8  C   UNL     1      43.639 -18.256   3.615  1.00  0.00     0.018 C 
HETATM    9  C   UNL     1      43.916 -18.568   2.135  1.00  0.00     0.007 C 
HETATM   10  C   UNL     1      43.345 -17.491   1.209  1.00  0.00     0.014 C 
BRANCH   8  11
HETATM   11  C   UNL     1      44.247 -19.289   4.601  1.00  0.00     0.218 C 
HETATM   12  C   UNL     1      45.027 -20.426   3.939  1.00  0.00     0.043 C 
BRANCH  11  13
HETATM   13  N   UNL     1      45.129 -18.612   5.555  1.00  0.00     0.082 N 
HETATM   14  H   UNL     1      45.170 -19.144   6.425  1.00  0.00     0.313 HD
HETATM   15  H   UNL     1      44.738 -17.704   5.802  1.00  0.00     0.313 HD
ENDBRANCH  11  13
ENDBRANCH   8  11
ENDBRANCH   1   5
BRANCH   3  16
HETATM   16  C   UNL     1      41.134 -15.231  -1.739  1.00  0.00     0.050 A 
HETATM   17  C   UNL     1      40.338 -15.716  -2.790  1.00  0.00     0.047 A 
HETATM   18  C   UNL     1      39.833 -14.861  -3.761  1.00  0.00     0.092 A 
HETATM   19  N   UNL     1      40.093 -13.550  -3.728  1.00  0.00    -0.351 N 
HETATM   20  H   UNL     1      39.714 -12.934  -4.445  1.00  0.00     0.166 HD
HETATM   21  C   UNL     1      40.871 -13.060  -2.727  1.00  0.00     0.117 A 
HETATM   22  N   UNL     1      41.240 -11.757  -2.525  1.00  0.00    -0.352 N 
HETATM   23  C   UNL     1      41.419 -13.848  -1.723  1.00  0.00     0.036 A 
HETATM   24  H   UNL     1      40.988 -10.955  -3.092  1.00  0.00     0.166 HD
HETATM   25  C   UNL     1      42.016 -11.686  -1.397  1.00  0.00     0.090 A 
HETATM   26  C   UNL     1      42.145 -12.959  -0.881  1.00  0.00     0.034 A 
ENDBRANCH   3  16
TORSDOF 4
ENDMDL
MODEL 7
REMARK VINA RESULT:      -7.2      1.599      7.837
REMARK  4 active torsions:
REMARK  status: ('A' for Active; 'I' for Inactive)
REMARK    1  A    between atoms: C_2  and  N_3 
REMARK    2  A    between atoms: C_2  and  C_4 
REMARK    3  A    between atoms: C_7  and  C_10 
REMARK       I    between atoms: C_10  and  N_12 
REMARK    4  A    between atoms: N_12  and  C_13 
ROOT
HETATM    1  C   UNL     1      42.344 -16.981   2.163  1.00  0.00     0.226 C 
HETATM    2  O   UNL     1      43.190 -16.090   2.086  1.00  0.00    -0.273 OA
HETATM    3  N   UNL     1      41.015 -16.791   1.820  1.00  0.00    -0.326 N 
HETATM    4  H   UNL     1      40.448 -17.617   1.688  1.00  0.00     0.169 HD
ENDROOT
BRANCH   1   5
HETATM    5  C   UNL     1      42.691 -18.362   2.752  1.00  0.00     0.078 C 
HETATM    6  C   UNL     1      43.422 -18.170   4.094  1.00  0.00     0.014 C 
HETATM    7  C   UNL     1      43.801 -19.492   4.755  1.00  0.00     0.007 C 
HETATM    8  C   UNL     1      44.642 -20.376   3.821  1.00  0.00     0.018 C 
HETATM    9  C   UNL     1      43.880 -20.599   2.504  1.00  0.00     0.007 C 
HETATM   10  C   UNL     1      43.508 -19.276   1.830  1.00  0.00     0.014 C 
BRANCH   8  11
HETATM   11  C   UNL     1      45.093 -21.688   4.518  1.00  0.00     0.218 C 
HETATM   12  C   UNL     1      44.514 -21.903   5.917  1.00  0.00     0.043 C 
BRANCH  11  13
HETATM   13  N   UNL     1      44.743 -22.843   3.686  1.00  0.00     0.082 N 
HETATM   14  H   UNL     1      44.667 -23.677   4.268  1.00  0.00     0.313 HD
HETATM   15  H   UNL     1      45.496 -23.032   3.026  1.00  0.00     0.313 HD
ENDBRANCH  11  13
ENDBRANCH   8  11
ENDBRANCH   1   5
BRANCH   3  16
HETATM   16  C   UNL     1      40.430 -15.568   1.426  1.00  0.00     0.050 A 
HETATM   17  C   UNL     1      39.702 -14.745   2.302  1.00  0.00     0.047 A 
HETATM   18  C   UNL     1      39.141 -13.552   1.865  1.00  0.00     0.092 A 
HETATM   19  N   UNL     1      39.274 -13.151   0.597  1.00  0.00    -0.351 N 
HETATM   20  H   UNL     1      38.860 -12.272   0.291  1.00  0.00     0.166 HD
HETATM   21  C   UNL     1      39.964 -13.937  -0.271  1.00  0.00     0.117 A 
HETATM   22  N   UNL     1      40.207 -13.693  -1.597  1.00  0.00    -0.352 N 
HETATM   23  C   UNL     1      40.548 -15.146   0.084  1.00  0.00     0.036 A 
HETATM   24  H   UNL     1      39.910 -12.888  -2.135  1.00  0.00     0.166 HD
HETATM   25  C   UNL     1      40.950 -14.728  -2.108  1.00  0.00     0.090 A 
HETATM   26  C   UNL     1      41.174 -15.638  -1.096  1.00  0.00     0.034 A 
ENDBRANCH   3  16
TORSDOF 4
ENDMDL
MODEL 8
REMARK VINA RESULT:      -7.1      1.920      7.903
REMARK  4 active torsions:
REMARK  status: ('A' for Active; 'I' for Inactive)
REMARK    1  A    between atoms: C_2  and  N_3 
REMARK    2  A    between atoms: C_2  and  C_4 
REMARK    3  A    between atoms: C_7  and  C_10 
REMARK       I    between atoms: C_10  and  N_12 
REMARK    4  A    between atoms: N_12  and  C_13 
ROOT
HETATM    1  C   UNL     1      41.738 -16.307   2.667  1.00  0.00     0.226 C 
HETATM    2  O   UNL     1      42.367 -15.584   1.895  1.00  0.00    -0.273 OA
HETATM    3  N   UNL     1      40.635 -15.869   3.381  1.00  0.00    -0.326 N 
HETATM    4  H   UNL     1      40.044 -16.575   3.801  1.00  0.00     0.169 HD
ENDROOT
BRANCH   1   5
HETATM    5  C   UNL     1      42.203 -17.744   2.973  1.00  0.00     0.078 C 
HETATM    6  C   UNL     1      43.190 -17.715   4.155  1.00  0.00     0.014 C 
HETATM    7  C   UNL     1      43.701 -19.103   4.533  1.00  0.00     0.007 C 
HETATM    8  C   UNL     1      44.340 -19.820   3.333  1.00  0.00     0.018 C 
HETATM    9  C   UNL     1      43.329 -19.884   2.177  1.00  0.00     0.007 C 
HETATM   10  C   UNL     1      42.822 -18.495   1.785  1.00  0.00     0.014 C 
BRANCH   8  11
HETATM   11  C   UNL     1      44.929 -21.200   3.733  1.00  0.00     0.218 C 
HETATM   12  C   UNL     1      44.746 -21.574   5.204  1.00  0.00     0.043 C 
BRANCH  11  13
HETATM   13  N   UNL     1      44.338 -22.255   2.905  1.00  0.00     0.082 N 
HETATM   14  H   UNL     1      43.703 -22.821   3.470  1.00  0.00     0.313 HD
HETATM   15  H   UNL     1      45.067 -22.890   2.585  1.00  0.00     0.313 HD
ENDBRANCH  11  13
ENDBRANCH   8  11
ENDBRANCH   1   5
BRANCH   3  16
HETATM   16  C   UNL     1      40.132 -14.549   3.399  1.00  0.00     0.050 A 
HETATM   17  C   UNL     1      40.475 -13.608   4.384  1.00  0.00     0.047 A 
HETATM   18  C   UNL     1      39.951 -12.323   4.360  1.00  0.00     0.092 A 
HETATM   19  N   UNL     1      39.100 -11.942   3.402  1.00  0.00    -0.351 N 
HETATM   20  H   UNL     1      38.727 -10.994   3.395  1.00  0.00     0.166 HD
HETATM   21  C   UNL     1      38.745 -12.839   2.445  1.00  0.00     0.117 A 
HETATM   22  N   UNL     1      37.897 -12.634   1.390  1.00  0.00    -0.352 N 
HETATM   23  C   UNL     1      39.218 -14.144   2.401  1.00  0.00     0.036 A 
HETATM   24  H   UNL     1      37.404 -11.780   1.159  1.00  0.00     0.166 HD
HETATM   25  C   UNL     1      37.818 -13.790   0.654  1.00  0.00     0.090 A 
HETATM   26  C   UNL     1      38.620 -14.738   1.254  1.00  0.00     0.034 A 
ENDBRANCH   3  16
TORSDOF 4
ENDMDL
MODEL 9
REMARK VINA RESULT:      -6.9      1.550      2.078
REMARK  4 active torsions:
REMARK  status: ('A' for Active; 'I' for Inactive)
REMARK    1  A    between atoms: C_2  and  N_3 
REMARK    2  A    between atoms: C_2  and  C_4 
REMARK    3  A    between atoms: C_7  and  C_10 
REMARK       I    between atoms: C_10  and  N_12 
REMARK    4  A    between atoms: N_12  and  C_13 
ROOT
HETATM    1  C   UNL     1      42.478 -15.905   3.695  1.00  0.00     0.226 C 
HETATM    2  O   UNL     1      43.591 -15.447   3.953  1.00  0.00    -0.273 OA
HETATM    3  N   UNL     1      42.048 -17.142   4.146  1.00  0.00    -0.326 N 
HETATM    4  H   UNL     1      41.058 -17.337   4.092  1.00  0.00     0.169 HD
ENDROOT
BRANCH   1   5
HETATM    5  C   UNL     1      41.507 -15.163   2.755  1.00  0.00     0.078 C 
HETATM    6  C   UNL     1      40.278 -14.702   3.560  1.00  0.00     0.014 C 
HETATM    7  C   UNL     1      39.261 -13.949   2.706  1.00  0.00     0.007 C 
HETATM    8  C   UNL     1      38.813 -14.777   1.491  1.00  0.00     0.018 C 
HETATM    9  C   UNL     1      40.047 -15.191   0.671  1.00  0.00     0.007 C 
HETATM   10  C   UNL     1      41.064 -15.957   1.519  1.00  0.00     0.014 C 
BRANCH   8  11
HETATM   11  C   UNL     1      37.723 -14.045   0.663  1.00  0.00     0.218 C 
HETATM   12  C   UNL     1      37.526 -12.572   1.022  1.00  0.00     0.043 C 
BRANCH  11  13
HETATM   13  N   UNL     1      38.031 -14.140  -0.766  1.00  0.00     0.082 N 
HETATM   14  H   UNL     1      37.339 -13.617  -1.304  1.00  0.00     0.313 HD
HETATM   15  H   UNL     1      37.948 -15.108  -1.073  1.00  0.00     0.313 HD
ENDBRANCH  11  13
ENDBRANCH   8  11
ENDBRANCH   1   5
BRANCH   3  16
HETATM   16  C   UNL     1      42.825 -18.073   4.870  1.00  0.00     0.050 A 
HETATM   17  C   UNL     1      42.890 -18.096   6.273  1.00  0.00     0.047 A 
HETATM   18  C   UNL     1      43.672 -19.029   6.939  1.00  0.00     0.092 A 
HETATM   19  N   UNL     1      44.390 -19.934   6.267  1.00  0.00    -0.351 N 
HETATM   20  H   UNL     1      44.957 -20.616   6.769  1.00  0.00     0.166 HD
HETATM   21  C   UNL     1      44.352 -19.924   4.908  1.00  0.00     0.117 A 
HETATM   22  N   UNL     1      45.011 -20.767   4.053  1.00  0.00    -0.352 N 
HETATM   23  C   UNL     1      43.602 -19.020   4.167  1.00  0.00     0.036 A 
HETATM   24  H   UNL     1      45.628 -21.530   4.303  1.00  0.00     0.166 HD
HETATM   25  C   UNL     1      44.693 -20.426   2.763  1.00  0.00     0.090 A 
HETATM   26  C   UNL     1      43.827 -19.353   2.801  1.00  0.00     0.034 A 
ENDBRANCH   3  16
TORSDOF 4
ENDMDL
MODEL 10
REMARK VINA RESULT:      -6.8      3.203      7.767
REMARK  4 active torsions:
REMARK  status: ('A' for Active; 'I' for Inactive)
REMARK    1  A    between atoms: C_2  and  N_3 
REMARK    2  A    between atoms: C_2  and  C_4 
REMARK    3  A    between atoms: C_7  and  C_10 
REMARK       I    between atoms: C_10  and  N_12 
REMARK    4  A    between atoms: N_12  and  C_13 
ROOT
HETATM    1  C   UNL     1      42.530 -16.102   3.904  1.00  0.00     0.226 C 
HETATM    2  O   UNL     1      41.314 -16.221   4.050  1.00  0.00    -0.273 OA
HETATM    3  N   UNL     1      43.181 -14.881   3.966  1.00  0.00    -0.326 N 
HETATM    4  H   UNL     1      44.187 -14.896   4.072  1.00  0.00     0.169 HD
ENDROOT
BRANCH   1   5
HETATM    5  C   UNL     1      43.413 -17.311   3.538  1.00  0.00     0.078 C 
HETATM    6  C   UNL     1      42.829 -18.003   2.292  1.00  0.00     0.014 C 
HETATM    7  C   UNL     1      43.646 -19.215   1.851  1.00  0.00     0.007 C 
HETATM    8  C   UNL     1      43.812 -20.234   2.989  1.00  0.00     0.018 C 
HETATM    9  C   UNL     1      44.439 -19.541   4.210  1.00  0.00     0.007 C 
HETATM   10  C   UNL     1      43.618 -18.333   4.664  1.00  0.00     0.014 C 
BRANCH   8  11
HETATM   11  C   UNL     1      44.577 -21.501   2.522  1.00  0.00     0.218 C 
HETATM   12  C   UNL     1      44.618 -22.640   3.542  1.00  0.00     0.043 C 
BRANCH  11  13
HETATM   13  N   UNL     1      43.992 -22.010   1.278  1.00  0.00     0.082 N 
HETATM   14  H   UNL     1      43.260 -21.375   0.957  1.00  0.00     0.313 HD
HETATM   15  H   UNL     1      43.531 -22.901   1.454  1.00  0.00     0.313 HD
ENDBRANCH  11  13
ENDBRANCH   8  11
ENDBRANCH   1   5
BRANCH   3  16
HETATM   16  C   UNL     1      42.562 -13.620   4.113  1.00  0.00     0.050 A 
HETATM   17  C   UNL     1      42.295 -13.034   5.362  1.00  0.00     0.047 A 
HETATM   18  C   UNL     1      41.680 -11.793   5.454  1.00  0.00     0.092 A 
HETATM   19  N   UNL     1      41.318 -11.118   4.358  1.00  0.00    -0.351 N 
HETATM   20  H   UNL     1      40.871 -10.207   4.440  1.00  0.00     0.166 HD
HETATM   21  C   UNL     1      41.555 -11.671   3.139  1.00  0.00     0.117 A 
HETATM   22  N   UNL     1      41.263 -11.135   1.914  1.00  0.00    -0.352 N 
HETATM   23  C   UNL     1      42.159 -12.910   2.961  1.00  0.00     0.036 A 
HETATM   24  H   UNL     1      40.824 -10.241   1.727  1.00  0.00     0.166 HD
HETATM   25  C   UNL     1      41.676 -12.007   0.939  1.00  0.00     0.090 A 
HETATM   26  C   UNL     1      42.230 -13.110   1.554  1.00  0.00     0.034 A 
ENDBRANCH   3  16
TORSDOF 4
ENDMDL
