MODEL 1
REMARK VINA RESULT:      -8.9      0.000      0.000
REMARK  9 active torsions:
REMARK  status: ('A' for Active; 'I' for Inactive)
REMARK    1  A    between atoms: C_2  and  C_3 
REMARK    2  A    between atoms: C_8  and  O_9 
REMARK    3  A    between atoms: C_10  and  C_11 
REMARK    4  A    between atoms: C_11  and  N_12 
REMARK       I    between atoms: N_12  and  C_13 
REMARK    5  A    between atoms: N_12  and  C_23 
REMARK       I    between atoms: C_13  and  N_14 
REMARK    6  A    between atoms: N_14  and  C_15 
REMARK    7  A    between atoms: C_23  and  C_24 
REMARK    8  A    between atoms: C_24  and  C_25 
REMARK    9  A    between atoms: C_25  and  N_26 
ROOT
HETATM    1  N   UNL     1      42.367 -15.182   2.688  1.00  0.00    -0.330 N 
HETATM    2  C   UNL     1      42.282 -16.563   2.926  1.00  0.00     0.323 C 
HETATM    3  N   UNL     1      43.513 -17.182   3.003  1.00  0.00    -0.309 N 
HETATM    4  O   UNL     1      41.199 -17.134   2.981  1.00  0.00    -0.247 OA
HETATM    5  H   UNL     1      44.295 -16.623   2.725  1.00  0.00     0.170 HD
ENDROOT
BRANCH   1   6
HETATM    6  C   UNL     1      41.181 -14.528   2.110  1.00  0.00     0.170 C 
BRANCH   6   7
HETATM    7  C   UNL     1      41.344 -14.252   0.639  1.00  0.00     0.013 A 
HETATM    8  C   UNL     1      41.072 -15.184  -0.342  1.00  0.00     0.170 A 
HETATM    9  N   UNL     1      41.123 -14.976  -1.669  1.00  0.00    -0.224 NA
HETATM   10  C   UNL     1      41.480 -13.746  -2.088  1.00  0.00     0.070 A 
HETATM   11  C   UNL     1      41.819 -12.716  -1.189  1.00  0.00    -0.006 A 
HETATM   12  C   UNL     1      41.519 -13.459  -3.447  1.00  0.00     0.033 A 
HETATM   13  C   UNL     1      42.199 -11.447  -1.663  1.00  0.00     0.021 A 
HETATM   14  C   UNL     1      41.751 -12.997   0.182  1.00  0.00     0.027 A 
HETATM   15  C   UNL     1      42.232 -11.176  -3.034  1.00  0.00    -0.058 A 
HETATM   16  C   UNL     1      41.885 -12.195  -3.924  1.00  0.00     0.009 A 
BRANCH   8  17
HETATM   17  O   UNL     1      40.724 -16.464  -0.051  1.00  0.00    -0.344 OA
HETATM   18  H   UNL     1      40.553 -16.755  -0.970  1.00  0.00     0.219 HD
ENDBRANCH   8  17
BRANCH  15  19
HETATM   19  C   UNL     1      42.645  -9.816  -3.540  1.00  0.00     0.034 C 
HETATM   20  C   UNL     1      42.517  -9.705  -5.053  1.00  0.00     0.010 C 
ENDBRANCH  15  19
ENDBRANCH   6   7
ENDBRANCH   1   6
BRANCH   1  21
HETATM   21  C   UNL     1      43.421 -14.336   3.246  1.00  0.00     0.129 C 
BRANCH  21  22
HETATM   22  C   UNL     1      42.891 -13.280   4.216  1.00  0.00     0.048 C 
BRANCH  22  23
HETATM   23  C   UNL     1      43.101 -13.649   5.683  1.00  0.00     0.236 C 
BRANCH  23  24
HETATM   24  N   UNL     1      43.060 -15.141   5.943  1.00  0.00    -0.067 N 
HETATM   25  H   UNL     1      43.386 -15.647   5.111  1.00  0.00     0.280 HD
HETATM   26  C   UNL     1      44.018 -15.504   7.090  1.00  0.00     0.261 C 
HETATM   27  C   UNL     1      43.940 -17.002   7.393  1.00  0.00     0.195 C 
HETATM   28  O   UNL     1      42.601 -17.384   7.718  1.00  0.00    -0.388 OA
HETATM   29  C   UNL     1      41.707 -17.147   6.629  1.00  0.00     0.195 C 
HETATM   30  C   UNL     1      41.653 -15.656   6.274  1.00  0.00     0.261 C 
ENDBRANCH  23  24
ENDBRANCH  22  23
ENDBRANCH  21  22
ENDBRANCH   1  21
BRANCH   3  31
HETATM   31  C   UNL     1      43.769 -18.569   3.060  1.00  0.00     0.036 A 
HETATM   32  C   UNL     1      44.282 -19.067   4.267  1.00  0.00     0.031 A 
HETATM   33  C   UNL     1      44.621 -20.418   4.396  1.00  0.00     0.026 A 
HETATM   34  C   UNL     1      44.442 -21.279   3.318  1.00  0.00     0.034 A 
HETATM   35 CL   UNL     1      44.879 -22.935   3.468  1.00  0.00    -0.084 Cl
HETATM   36  C   UNL     1      43.916 -20.802   2.122  1.00  0.00     0.026 A 
HETATM   37  C   UNL     1      43.576 -19.450   1.995  1.00  0.00     0.031 A 
ENDBRANCH   3  31
TORSDOF 9
ENDMDL
MODEL 2
REMARK VINA RESULT:      -8.4      1.867      2.327
REMARK  9 active torsions:
REMARK  status: ('A' for Active; 'I' for Inactive)
REMARK    1  A    between atoms: C_2  and  C_3 
REMARK    2  A    between atoms: C_8  and  O_9 
REMARK    3  A    between atoms: C_10  and  C_11 
REMARK    4  A    between atoms: C_11  and  N_12 
REMARK       I    between atoms: N_12  and  C_13 
REMARK    5  A    between atoms: N_12  and  C_23 
REMARK       I    between atoms: C_13  and  N_14 
REMARK    6  A    between atoms: N_14  and  C_15 
REMARK    7  A    between atoms: C_23  and  C_24 
REMARK    8  A    between atoms: C_24  and  C_25 
REMARK    9  A    between atoms: C_25  and  N_26 
ROOT
HETATM    1  N   UNL     1      42.422 -15.235   3.064  1.00  0.00    -0.330 N 
HETATM    2  C   UNL     1      42.399 -16.580   3.464  1.00  0.00     0.323 C 
HETATM    3  N   UNL     1      43.656 -17.135   3.589  1.00  0.00    -0.309 N 
HETATM    4  O   UNL     1      41.343 -17.183   3.606  1.00  0.00    -0.247 OA
HETATM    5  H   UNL     1      44.410 -16.581   3.234  1.00  0.00     0.170 HD
ENDROOT
BRANCH   1   6
HETATM    6  C   UNL     1      41.202 -14.702   2.436  1.00  0.00     0.170 C 
BRANCH   6   7
HETATM    7  C   UNL     1      41.373 -14.482   0.957  1.00  0.00     0.013 A 
HETATM    8  C   UNL     1      41.120 -15.454   0.010  1.00  0.00     0.170 A 
HETATM    9  N   UNL     1      41.179 -15.298  -1.323  1.00  0.00    -0.224 NA
HETATM   10  C   UNL     1      41.525 -14.081  -1.788  1.00  0.00     0.070 A 
HETATM   11  C   UNL     1      41.845 -13.013  -0.927  1.00  0.00    -0.006 A 
HETATM   12  C   UNL     1      41.572 -13.848  -3.156  1.00  0.00     0.033 A 
HETATM   13  C   UNL     1      42.214 -11.759  -1.448  1.00  0.00     0.021 A 
HETATM   14  C   UNL     1      41.769 -13.240   0.453  1.00  0.00     0.027 A 
HETATM   15  C   UNL     1      42.255 -11.541  -2.828  1.00  0.00    -0.058 A 
HETATM   16  C   UNL     1      41.927 -12.599  -3.680  1.00  0.00     0.009 A 
BRANCH   8  17
HETATM   17  O   UNL     1      40.786 -16.726   0.349  1.00  0.00    -0.344 OA
HETATM   18  H   UNL     1      41.675 -17.010   0.645  1.00  0.00     0.219 HD
ENDBRANCH   8  17
BRANCH  15  19
HETATM   19  C   UNL     1      42.655 -10.198  -3.384  1.00  0.00     0.034 C 
HETATM   20  C   UNL     1      42.993  -9.200  -2.286  1.00  0.00     0.010 C 
ENDBRANCH  15  19
ENDBRANCH   6   7
ENDBRANCH   1   6
BRANCH   1  21
HETATM   21  C   UNL     1      43.447 -14.286   3.499  1.00  0.00     0.129 C 
BRANCH  21  22
HETATM   22  C   UNL     1      42.886 -13.144   4.345  1.00  0.00     0.048 C 
BRANCH  22  23
HETATM   23  C   UNL     1      42.804 -13.477   5.832  1.00  0.00     0.236 C 
BRANCH  23  24
HETATM   24  N   UNL     1      41.533 -12.985   6.494  1.00  0.00    -0.067 N 
HETATM   25  H   UNL     1      41.447 -13.398   7.431  1.00  0.00     0.280 HD
HETATM   26  C   UNL     1      41.591 -11.460   6.682  1.00  0.00     0.261 C 
HETATM   27  C   UNL     1      40.287 -10.952   7.300  1.00  0.00     0.195 C 
HETATM   28  O   UNL     1      39.167 -11.315   6.490  1.00  0.00    -0.388 OA
HETATM   29  C   UNL     1      39.034 -12.734   6.380  1.00  0.00     0.195 C 
HETATM   30  C   UNL     1      40.266 -13.353   5.711  1.00  0.00     0.261 C 
ENDBRANCH  23  24
ENDBRANCH  22  23
ENDBRANCH  21  22
ENDBRANCH   1  21
BRANCH   3  31
HETATM   31  C   UNL     1      43.971 -18.494   3.804  1.00  0.00     0.036 A 
HETATM   32  C   UNL     1      44.096 -18.911   5.138  1.00  0.00     0.031 A 
HETATM   33  C   UNL     1      44.465 -20.224   5.445  1.00  0.00     0.026 A 
HETATM   34  C   UNL     1      44.703 -21.131   4.418  1.00  0.00     0.034 A 
HETATM   35 CL   UNL     1      45.177 -22.740   4.793  1.00  0.00    -0.084 Cl
HETATM   36  C   UNL     1      44.563 -20.736   3.091  1.00  0.00     0.026 A 
HETATM   37  C   UNL     1      44.193 -19.421   2.785  1.00  0.00     0.031 A 
ENDBRANCH   3  31
TORSDOF 9
ENDMDL
MODEL 3
REMARK VINA RESULT:      -8.4      3.280      8.138
REMARK  9 active torsions:
REMARK  status: ('A' for Active; 'I' for Inactive)
REMARK    1  A    between atoms: C_2  and  C_3 
REMARK    2  A    between atoms: C_8  and  O_9 
REMARK    3  A    between atoms: C_10  and  C_11 
REMARK    4  A    between atoms: C_11  and  N_12 
REMARK       I    between atoms: N_12  and  C_13 
REMARK    5  A    between atoms: N_12  and  C_23 
REMARK       I    between atoms: C_13  and  N_14 
REMARK    6  A    between atoms: N_14  and  C_15 
REMARK    7  A    between atoms: C_23  and  C_24 
REMARK    8  A    between atoms: C_24  and  C_25 
REMARK    9  A    between atoms: C_25  and  N_26 
ROOT
HETATM    1  N   UNL     1      42.129 -15.274   5.108  1.00  0.00    -0.330 N 
HETATM    2  C   UNL     1      42.307 -14.996   3.744  1.00  0.00     0.323 C 
HETATM    3  N   UNL     1      41.178 -15.233   2.986  1.00  0.00    -0.309 N 
HETATM    4  O   UNL     1      43.395 -14.650   3.301  1.00  0.00    -0.247 OA
HETATM    5  H   UNL     1      40.437 -15.716   3.454  1.00  0.00     0.170 HD
ENDROOT
BRANCH   1   6
HETATM    6  C   UNL     1      43.342 -15.533   5.902  1.00  0.00     0.170 C 
BRANCH   6   7
HETATM    7  C   UNL     1      43.624 -17.004   6.045  1.00  0.00     0.013 A 
HETATM    8  C   UNL     1      43.562 -17.676   7.250  1.00  0.00     0.170 A 
HETATM    9  N   UNL     1      43.726 -18.997   7.430  1.00  0.00    -0.224 NA
HETATM   10  C   UNL     1      43.983 -19.743   6.337  1.00  0.00     0.070 A 
HETATM   11  C   UNL     1      44.109 -19.175   5.055  1.00  0.00    -0.006 A 
HETATM   12  C   UNL     1      44.130 -21.120   6.455  1.00  0.00     0.033 A 
HETATM   13  C   UNL     1      44.390 -19.983   3.938  1.00  0.00     0.021 A 
HETATM   14  C   UNL     1      43.931 -17.791   4.932  1.00  0.00     0.027 A 
HETATM   15  C   UNL     1      44.534 -21.368   4.074  1.00  0.00    -0.058 A 
HETATM   16  C   UNL     1      44.398 -21.930   5.346  1.00  0.00     0.009 A 
BRANCH   8  17
HETATM   17  O   UNL     1      43.333 -17.036   8.425  1.00  0.00    -0.344 OA
HETATM   18  H   UNL     1      44.258 -17.040   8.747  1.00  0.00     0.219 HD
ENDBRANCH   8  17
BRANCH  15  19
HETATM   19  C   UNL     1      44.840 -22.231   2.876  1.00  0.00     0.034 C 
HETATM   20  C   UNL     1      44.009 -21.843   1.662  1.00  0.00     0.010 C 
ENDBRANCH  15  19
ENDBRANCH   6   7
ENDBRANCH   1   6
BRANCH   1  21
HETATM   21  C   UNL     1      40.875 -15.026   5.820  1.00  0.00     0.129 C 
BRANCH  21  22
HETATM   22  C   UNL     1      40.318 -13.623   5.583  1.00  0.00     0.048 C 
BRANCH  22  23
HETATM   23  C   UNL     1      41.287 -12.513   5.986  1.00  0.00     0.236 C 
BRANCH  23  24
HETATM   24  N   UNL     1      41.014 -11.943   7.362  1.00  0.00    -0.067 N 
HETATM   25  H   UNL     1      41.234 -12.645   8.079  1.00  0.00     0.280 HD
HETATM   26  C   UNL     1      41.930 -10.736   7.626  1.00  0.00     0.261 C 
HETATM   27  C   UNL     1      41.620 -10.123   8.994  1.00  0.00     0.195 C 
HETATM   28  O   UNL     1      40.246  -9.737   9.076  1.00  0.00    -0.388 OA
HETATM   29  C   UNL     1      39.374 -10.861   8.932  1.00  0.00     0.195 C 
HETATM   30  C   UNL     1      39.551 -11.523   7.562  1.00  0.00     0.261 C 
ENDBRANCH  23  24
ENDBRANCH  22  23
ENDBRANCH  21  22
ENDBRANCH   1  21
BRANCH   3  31
HETATM   31  C   UNL     1      41.077 -15.220   1.578  1.00  0.00     0.036 A 
HETATM   32  C   UNL     1      41.412 -16.407   0.909  1.00  0.00     0.031 A 
HETATM   33  C   UNL     1      41.398 -16.468  -0.488  1.00  0.00     0.026 A 
HETATM   34  C   UNL     1      41.042 -15.343  -1.224  1.00  0.00     0.034 A 
HETATM   35 CL   UNL     1      41.046 -15.410  -2.941  1.00  0.00    -0.084 Cl
HETATM   36  C   UNL     1      40.689 -14.165  -0.572  1.00  0.00     0.026 A 
HETATM   37  C   UNL     1      40.701 -14.106   0.826  1.00  0.00     0.031 A 
ENDBRANCH   3  31
TORSDOF 9
ENDMDL
MODEL 4
REMARK VINA RESULT:      -8.4      1.951      2.496
REMARK  9 active torsions:
REMARK  status: ('A' for Active; 'I' for Inactive)
REMARK    1  A    between atoms: C_2  and  C_3 
REMARK    2  A    between atoms: C_8  and  O_9 
REMARK    3  A    between atoms: C_10  and  C_11 
REMARK    4  A    between atoms: C_11  and  N_12 
REMARK       I    between atoms: N_12  and  C_13 
REMARK    5  A    between atoms: N_12  and  C_23 
REMARK       I    between atoms: C_13  and  N_14 
REMARK    6  A    between atoms: N_14  and  C_15 
REMARK    7  A    between atoms: C_23  and  C_24 
REMARK    8  A    between atoms: C_24  and  C_25 
REMARK    9  A    between atoms: C_25  and  N_26 
ROOT
HETATM    1  N   UNL     1      42.305 -14.977   3.446  1.00  0.00    -0.330 N 
HETATM    2  C   UNL     1      42.314 -16.359   3.687  1.00  0.00     0.323 C 
HETATM    3  N   UNL     1      43.582 -16.877   3.856  1.00  0.00    -0.309 N 
HETATM    4  O   UNL     1      41.280 -17.016   3.667  1.00  0.00    -0.247 OA
HETATM    5  H   UNL     1      44.336 -16.257   3.632  1.00  0.00     0.170 HD
ENDROOT
BRANCH   1   6
HETATM    6  C   UNL     1      41.116 -14.421   2.779  1.00  0.00     0.170 C 
BRANCH   6   7
HETATM    7  C   UNL     1      41.333 -14.218   1.304  1.00  0.00     0.013 A 
HETATM    8  C   UNL     1      41.069 -15.187   0.357  1.00  0.00     0.170 A 
HETATM    9  N   UNL     1      41.168 -15.042  -0.975  1.00  0.00    -0.224 NA
HETATM   10  C   UNL     1      41.571 -13.842  -1.438  1.00  0.00     0.070 A 
HETATM   11  C   UNL     1      41.908 -12.781  -0.576  1.00  0.00    -0.006 A 
HETATM   12  C   UNL     1      41.662 -13.620  -2.806  1.00  0.00     0.033 A 
HETATM   13  C   UNL     1      42.336 -11.545  -1.094  1.00  0.00     0.021 A 
HETATM   14  C   UNL     1      41.788 -12.995   0.804  1.00  0.00     0.027 A 
HETATM   15  C   UNL     1      42.421 -11.338  -2.474  1.00  0.00    -0.058 A 
HETATM   16  C   UNL     1      42.076 -12.389  -3.328  1.00  0.00     0.009 A 
BRANCH   8  17
HETATM   17  O   UNL     1      40.679 -16.443   0.695  1.00  0.00    -0.344 OA
HETATM   18  H   UNL     1      41.081 -16.458   1.588  1.00  0.00     0.219 HD
ENDBRANCH   8  17
BRANCH  15  19
HETATM   19  C   UNL     1      42.885 -10.015  -3.028  1.00  0.00     0.034 C 
HETATM   20  C   UNL     1      43.248  -9.029  -1.927  1.00  0.00     0.010 C 
ENDBRANCH  15  19
ENDBRANCH   6   7
ENDBRANCH   1   6
BRANCH   1  21
HETATM   21  C   UNL     1      43.245 -14.048   4.073  1.00  0.00     0.129 C 
BRANCH  21  22
HETATM   22  C   UNL     1      42.913 -13.756   5.536  1.00  0.00     0.048 C 
BRANCH  22  23
HETATM   23  C   UNL     1      44.057 -14.088   6.492  1.00  0.00     0.236 C 
BRANCH  23  24
HETATM   24  N   UNL     1      44.051 -13.252   7.755  1.00  0.00    -0.067 N 
HETATM   25  H   UNL     1      43.675 -13.805   8.535  1.00  0.00     0.280 HD
HETATM   26  C   UNL     1      45.488 -12.862   8.138  1.00  0.00     0.261 C 
HETATM   27  C   UNL     1      45.483 -11.972   9.383  1.00  0.00     0.195 C 
HETATM   28  O   UNL     1      44.687 -10.804   9.168  1.00  0.00    -0.388 OA
HETATM   29  C   UNL     1      43.322 -11.139   8.907  1.00  0.00     0.195 C 
HETATM   30  C   UNL     1      43.196 -11.984   7.634  1.00  0.00     0.261 C 
ENDBRANCH  23  24
ENDBRANCH  22  23
ENDBRANCH  21  22
ENDBRANCH   1  21
BRANCH   3  31
HETATM   31  C   UNL     1      43.944 -18.239   3.941  1.00  0.00     0.036 A 
HETATM   32  C   UNL     1      43.982 -18.959   2.738  1.00  0.00     0.031 A 
HETATM   33  C   UNL     1      44.272 -20.327   2.732  1.00  0.00     0.026 A 
HETATM   34  C   UNL     1      44.534 -20.981   3.931  1.00  0.00     0.034 A 
HETATM   35 CL   UNL     1      44.869 -22.666   3.929  1.00  0.00    -0.084 Cl
HETATM   36  C   UNL     1      44.519 -20.274   5.130  1.00  0.00     0.026 A 
HETATM   37  C   UNL     1      44.230 -18.905   5.134  1.00  0.00     0.031 A 
ENDBRANCH   3  31
TORSDOF 9
ENDMDL
MODEL 5
REMARK VINA RESULT:      -8.4      4.337      9.304
REMARK  9 active torsions:
REMARK  status: ('A' for Active; 'I' for Inactive)
REMARK    1  A    between atoms: C_2  and  C_3 
REMARK    2  A    between atoms: C_8  and  O_9 
REMARK    3  A    between atoms: C_10  and  C_11 
REMARK    4  A    between atoms: C_11  and  N_12 
REMARK       I    between atoms: N_12  and  C_13 
REMARK    5  A    between atoms: N_12  and  C_23 
REMARK       I    between atoms: C_13  and  N_14 
REMARK    6  A    between atoms: N_14  and  C_15 
REMARK    7  A    between atoms: C_23  and  C_24 
REMARK    8  A    between atoms: C_24  and  C_25 
REMARK    9  A    between atoms: C_25  and  N_26 
ROOT
HETATM    1  N   UNL     1      41.320 -13.649   4.807  1.00  0.00    -0.330 N 
HETATM    2  C   UNL     1      41.219 -12.742   5.874  1.00  0.00     0.323 C 
HETATM    3  N   UNL     1      39.948 -12.232   6.040  1.00  0.00    -0.309 N 
HETATM    4  O   UNL     1      42.204 -12.409   6.521  1.00  0.00    -0.247 OA
HETATM    5  H   UNL     1      39.301 -12.434   5.303  1.00  0.00     0.170 HD
ENDROOT
BRANCH   1   6
HETATM    6  C   UNL     1      42.660 -13.865   4.237  1.00  0.00     0.170 C 
BRANCH   6   7
HETATM    7  C   UNL     1      43.159 -15.265   4.473  1.00  0.00     0.013 A 
HETATM    8  C   UNL     1      43.567 -15.727   5.708  1.00  0.00     0.170 A 
HETATM    9  N   UNL     1      43.948 -16.983   5.999  1.00  0.00    -0.224 NA
HETATM   10  C   UNL     1      43.941 -17.879   4.993  1.00  0.00     0.070 A 
HETATM   11  C   UNL     1      43.582 -17.527   3.677  1.00  0.00    -0.006 A 
HETATM   12  C   UNL     1      44.293 -19.201   5.237  1.00  0.00     0.033 A 
HETATM   13  C   UNL     1      43.598 -18.487   2.649  1.00  0.00     0.021 A 
HETATM   14  C   UNL     1      43.199 -16.201   3.436  1.00  0.00     0.027 A 
HETATM   15  C   UNL     1      43.954 -19.813   2.913  1.00  0.00    -0.058 A 
HETATM   16  C   UNL     1      44.299 -20.162   4.221  1.00  0.00     0.009 A 
BRANCH   8  17
HETATM   17  O   UNL     1      43.640 -14.919   6.796  1.00  0.00    -0.344 OA
HETATM   18  H   UNL     1      43.640 -14.066   6.314  1.00  0.00     0.219 HD
ENDBRANCH   8  17
BRANCH  15  19
HETATM   19  C   UNL     1      43.975 -20.839   1.808  1.00  0.00     0.034 C 
HETATM   20  C   UNL     1      44.511 -22.182   2.283  1.00  0.00     0.010 C 
ENDBRANCH  15  19
ENDBRANCH   6   7
ENDBRANCH   1   6
BRANCH   1  21
HETATM   21  C   UNL     1      40.255 -14.584   4.447  1.00  0.00     0.129 C 
BRANCH  21  22
HETATM   22  C   UNL     1      39.759 -14.405   3.013  1.00  0.00     0.048 C 
BRANCH  22  23
HETATM   23  C   UNL     1      39.937 -15.654   2.153  1.00  0.00     0.236 C 
BRANCH  23  24
HETATM   24  N   UNL     1      39.796 -15.391   0.668  1.00  0.00    -0.067 N 
HETATM   25  H   UNL     1      39.160 -16.082   0.252  1.00  0.00     0.280 HD
HETATM   26  C   UNL     1      39.167 -14.008   0.433  1.00  0.00     0.261 C 
HETATM   27  C   UNL     1      39.072 -13.715  -1.066  1.00  0.00     0.195 C 
HETATM   28  O   UNL     1      40.361 -13.790  -1.679  1.00  0.00    -0.388 OA
HETATM   29  C   UNL     1      40.926 -15.097  -1.560  1.00  0.00     0.195 C 
HETATM   30  C   UNL     1      41.128 -15.478  -0.089  1.00  0.00     0.261 C 
ENDBRANCH  23  24
ENDBRANCH  22  23
ENDBRANCH  21  22
ENDBRANCH   1  21
BRANCH   3  31
HETATM   31  C   UNL     1      39.555 -11.183   6.899  1.00  0.00     0.036 A 
HETATM   32  C   UNL     1      39.417  -9.911   6.321  1.00  0.00     0.031 A 
HETATM   33  C   UNL     1      39.088  -8.801   7.106  1.00  0.00     0.026 A 
HETATM   34  C   UNL     1      38.889  -8.959   8.473  1.00  0.00     0.034 A 
HETATM   35 CL   UNL     1      38.507  -7.593   9.443  1.00  0.00    -0.084 Cl
HETATM   36  C   UNL     1      39.003 -10.218   9.056  1.00  0.00     0.026 A 
HETATM   37  C   UNL     1      39.330 -11.328   8.268  1.00  0.00     0.031 A 
ENDBRANCH   3  31
TORSDOF 9
ENDMDL
MODEL 6
REMARK VINA RESULT:      -8.3      3.694      7.923
REMARK  9 active torsions:
REMARK  status: ('A' for Active; 'I' for Inactive)
REMARK    1  A    between atoms: C_2  and  C_3 
REMARK    2  A    between atoms: C_8  and  O_9 
REMARK    3  A    between atoms: C_10  and  C_11 
REMARK    4  A    between atoms: C_11  and  N_12 
REMARK       I    between atoms: N_12  and  C_13 
REMARK    5  A    between atoms: N_12  and  C_23 
REMARK       I    between atoms: C_13  and  N_14 
REMARK    6  A    between atoms: N_14  and  C_15 
REMARK    7  A    between atoms: C_23  and  C_24 
REMARK    8  A    between atoms: C_24  and  C_25 
REMARK    9  A    between atoms: C_25  and  N_26 
ROOT
HETATM    1  N   UNL     1      40.933 -14.288   1.983  1.00  0.00    -0.330 N 
HETATM    2  C   UNL     1      40.586 -13.636   0.790  1.00  0.00     0.323 C 
HETATM    3  N   UNL     1      39.277 -13.852   0.409  1.00  0.00    -0.309 N 
HETATM    4  O   UNL     1      41.414 -13.006   0.145  1.00  0.00    -0.247 OA
HETATM    5  H   UNL     1      38.789 -14.560   0.922  1.00  0.00     0.170 HD
ENDROOT
BRANCH   1   6
HETATM    6  C   UNL     1      42.365 -14.538   2.217  1.00  0.00     0.170 C 
BRANCH   6   7
HETATM    7  C   UNL     1      42.712 -15.999   2.112  1.00  0.00     0.013 A 
HETATM    8  C   UNL     1      42.710 -16.696   0.920  1.00  0.00     0.170 A 
HETATM    9  N   UNL     1      43.083 -17.975   0.749  1.00  0.00    -0.224 NA
HETATM   10  C   UNL     1      43.492 -18.651   1.841  1.00  0.00     0.070 A 
HETATM   11  C   UNL     1      43.505 -18.068   3.123  1.00  0.00    -0.006 A 
HETATM   12  C   UNL     1      43.921 -19.967   1.723  1.00  0.00     0.033 A 
HETATM   13  C   UNL     1      43.927 -18.807   4.243  1.00  0.00     0.021 A 
HETATM   14  C   UNL     1      43.100 -16.731   3.237  1.00  0.00     0.027 A 
HETATM   15  C   UNL     1      44.356 -20.131   4.106  1.00  0.00    -0.058 A 
HETATM   16  C   UNL     1      44.352 -20.704   2.832  1.00  0.00     0.009 A 
BRANCH   8  17
HETATM   17  O   UNL     1      42.299 -16.136  -0.246  1.00  0.00    -0.344 OA
HETATM   18  H   UNL     1      41.362 -16.416  -0.192  1.00  0.00     0.219 HD
ENDBRANCH   8  17
BRANCH  15  19
HETATM   19  C   UNL     1      44.803 -20.924   5.309  1.00  0.00     0.034 C 
HETATM   20  C   UNL     1      44.825 -22.420   5.033  1.00  0.00     0.010 C 
ENDBRANCH  15  19
ENDBRANCH   6   7
ENDBRANCH   1   6
BRANCH   1  21
HETATM   21  C   UNL     1      40.009 -14.453   3.105  1.00  0.00     0.129 C 
BRANCH  21  22
HETATM   22  C   UNL     1      40.462 -13.719   4.367  1.00  0.00     0.048 C 
BRANCH  22  23
HETATM   23  C   UNL     1      40.160 -14.486   5.652  1.00  0.00     0.236 C 
BRANCH  23  24
HETATM   24  N   UNL     1      41.400 -14.873   6.432  1.00  0.00    -0.067 N 
HETATM   25  H   UNL     1      41.316 -14.547   7.402  1.00  0.00     0.280 HD
HETATM   26  C   UNL     1      41.535 -16.404   6.486  1.00  0.00     0.261 C 
HETATM   27  C   UNL     1      42.815 -16.798   7.226  1.00  0.00     0.195 C 
HETATM   28  O   UNL     1      43.961 -16.216   6.601  1.00  0.00    -0.388 OA
HETATM   29  C   UNL     1      43.906 -14.788   6.626  1.00  0.00     0.195 C 
HETATM   30  C   UNL     1      42.687 -14.270   5.854  1.00  0.00     0.261 C 
ENDBRANCH  23  24
ENDBRANCH  22  23
ENDBRANCH  21  22
ENDBRANCH   1  21
BRANCH   3  31
HETATM   31  C   UNL     1      38.672 -13.486  -0.812  1.00  0.00     0.036 A 
HETATM   32  C   UNL     1      37.839 -12.357  -0.791  1.00  0.00     0.031 A 
HETATM   33  C   UNL     1      37.151 -11.954  -1.940  1.00  0.00     0.026 A 
HETATM   34  C   UNL     1      37.298 -12.676  -3.119  1.00  0.00     0.034 A 
HETATM   35 CL   UNL     1      36.437 -12.196  -4.527  1.00  0.00    -0.084 Cl
HETATM   36  C   UNL     1      38.136 -13.787  -3.159  1.00  0.00     0.026 A 
HETATM   37  C   UNL     1      38.825 -14.187  -2.009  1.00  0.00     0.031 A 
ENDBRANCH   3  31
TORSDOF 9
ENDMDL
MODEL 7
REMARK VINA RESULT:      -8.1      3.137      8.272
REMARK  9 active torsions:
REMARK  status: ('A' for Active; 'I' for Inactive)
REMARK    1  A    between atoms: C_2  and  C_3 
REMARK    2  A    between atoms: C_8  and  O_9 
REMARK    3  A    between atoms: C_10  and  C_11 
REMARK    4  A    between atoms: C_11  and  N_12 
REMARK       I    between atoms: N_12  and  C_13 
REMARK    5  A    between atoms: N_12  and  C_23 
REMARK       I    between atoms: C_13  and  N_14 
REMARK    6  A    between atoms: N_14  and  C_15 
REMARK    7  A    between atoms: C_23  and  C_24 
REMARK    8  A    between atoms: C_24  and  C_25 
REMARK    9  A    between atoms: C_25  and  N_26 
ROOT
HETATM    1  N   UNL     1      42.049 -15.103   4.628  1.00  0.00    -0.330 N 
HETATM    2  C   UNL     1      42.229 -14.628   3.320  1.00  0.00     0.323 C 
HETATM    3  N   UNL     1      41.173 -14.922   2.481  1.00  0.00    -0.309 N 
HETATM    4  O   UNL     1      43.269 -14.078   2.979  1.00  0.00    -0.247 OA
HETATM    5  H   UNL     1      40.495 -15.561   2.847  1.00  0.00     0.170 HD
ENDROOT
BRANCH   1   6
HETATM    6  C   UNL     1      43.260 -15.290   5.445  1.00  0.00     0.170 C 
BRANCH   6   7
HETATM    7  C   UNL     1      43.553 -16.743   5.703  1.00  0.00     0.013 A 
HETATM    8  C   UNL     1      43.507 -17.315   6.959  1.00  0.00     0.170 A 
HETATM    9  N   UNL     1      43.681 -18.616   7.244  1.00  0.00    -0.224 NA
HETATM   10  C   UNL     1      43.932 -19.447   6.213  1.00  0.00     0.070 A 
HETATM   11  C   UNL     1      44.042 -18.985   4.888  1.00  0.00    -0.006 A 
HETATM   12  C   UNL     1      44.089 -20.809   6.441  1.00  0.00     0.033 A 
HETATM   13  C   UNL     1      44.316 -19.879   3.837  1.00  0.00     0.021 A 
HETATM   14  C   UNL     1      43.855 -17.616   4.655  1.00  0.00     0.027 A 
HETATM   15  C   UNL     1      44.471 -21.247   4.084  1.00  0.00    -0.058 A 
HETATM   16  C   UNL     1      44.351 -21.705   5.398  1.00  0.00     0.009 A 
BRANCH   8  17
HETATM   17  O   UNL     1      43.286 -16.583   8.081  1.00  0.00    -0.344 OA
HETATM   18  H   UNL     1      43.280 -15.703   7.652  1.00  0.00     0.219 HD
ENDBRANCH   8  17
BRANCH  15  19
HETATM   19  C   UNL     1      44.770 -22.203   2.957  1.00  0.00     0.034 C 
HETATM   20  C   UNL     1      44.057 -21.815   1.670  1.00  0.00     0.010 C 
ENDBRANCH  15  19
ENDBRANCH   6   7
ENDBRANCH   1   6
BRANCH   1  21
HETATM   21  C   UNL     1      40.750 -15.129   5.300  1.00  0.00     0.129 C 
BRANCH  21  22
HETATM   22  C   UNL     1      40.501 -13.898   6.170  1.00  0.00     0.048 C 
BRANCH  22  23
HETATM   23  C   UNL     1      39.203 -13.169   5.826  1.00  0.00     0.236 C 
BRANCH  23  24
HETATM   24  N   UNL     1      39.412 -11.927   4.985  1.00  0.00    -0.067 N 
HETATM   25  H   UNL     1      38.764 -11.189   5.288  1.00  0.00     0.280 HD
HETATM   26  C   UNL     1      40.835 -11.381   5.190  1.00  0.00     0.261 C 
HETATM   27  C   UNL     1      41.068 -10.157   4.302  1.00  0.00     0.195 C 
HETATM   28  O   UNL     1      40.849 -10.481   2.927  1.00  0.00    -0.388 OA
HETATM   29  C   UNL     1      39.502 -10.897   2.692  1.00  0.00     0.195 C 
HETATM   30  C   UNL     1      39.171 -12.164   3.488  1.00  0.00     0.261 C 
ENDBRANCH  23  24
ENDBRANCH  22  23
ENDBRANCH  21  22
ENDBRANCH   1  21
BRANCH   3  31
HETATM   31  C   UNL     1      41.117 -14.740   1.083  1.00  0.00     0.036 A 
HETATM   32  C   UNL     1      41.225 -15.893   0.291  1.00  0.00     0.031 A 
HETATM   33  C   UNL     1      41.239 -15.803  -1.105  1.00  0.00     0.026 A 
HETATM   34  C   UNL     1      41.138 -14.558  -1.716  1.00  0.00     0.034 A 
HETATM   35 CL   UNL     1      41.178 -14.443  -3.430  1.00  0.00    -0.084 Cl
HETATM   36  C   UNL     1      41.012 -13.408  -0.943  1.00  0.00     0.026 A 
HETATM   37  C   UNL     1      40.996 -13.500   0.454  1.00  0.00     0.031 A 
ENDBRANCH   3  31
TORSDOF 9
ENDMDL
MODEL 8
REMARK VINA RESULT:      -8.1      3.160      8.227
REMARK  9 active torsions:
REMARK  status: ('A' for Active; 'I' for Inactive)
REMARK    1  A    between atoms: C_2  and  C_3 
REMARK    2  A    between atoms: C_8  and  O_9 
REMARK    3  A    between atoms: C_10  and  C_11 
REMARK    4  A    between atoms: C_11  and  N_12 
REMARK       I    between atoms: N_12  and  C_13 
REMARK    5  A    between atoms: N_12  and  C_23 
REMARK       I    between atoms: C_13  and  N_14 
REMARK    6  A    between atoms: N_14  and  C_15 
REMARK    7  A    between atoms: C_23  and  C_24 
REMARK    8  A    between atoms: C_24  and  C_25 
REMARK    9  A    between atoms: C_25  and  N_26 
ROOT
HETATM    1  N   UNL     1      40.835 -13.906   3.826  1.00  0.00    -0.330 N 
HETATM    2  C   UNL     1      41.186 -13.703   5.170  1.00  0.00     0.323 C 
HETATM    3  N   UNL     1      42.285 -12.884   5.330  1.00  0.00    -0.309 N 
HETATM    4  O   UNL     1      40.592 -14.273   6.076  1.00  0.00    -0.247 OA
HETATM    5  H   UNL     1      42.790 -12.670   4.493  1.00  0.00     0.170 HD
ENDROOT
BRANCH   1   6
HETATM    6  C   UNL     1      40.034 -15.103   3.517  1.00  0.00     0.170 C 
BRANCH   6   7
HETATM    7  C   UNL     1      40.889 -16.259   3.071  1.00  0.00     0.013 A 
HETATM    8  C   UNL     1      41.003 -16.654   1.754  1.00  0.00     0.170 A 
HETATM    9  N   UNL     1      41.805 -17.624   1.283  1.00  0.00    -0.224 NA
HETATM   10  C   UNL     1      42.568 -18.283   2.178  1.00  0.00     0.070 A 
HETATM   11  C   UNL     1      42.519 -18.001   3.557  1.00  0.00    -0.006 A 
HETATM   12  C   UNL     1      43.443 -19.273   1.749  1.00  0.00     0.033 A 
HETATM   13  C   UNL     1      43.321 -18.718   4.464  1.00  0.00     0.021 A 
HETATM   14  C   UNL     1      41.658 -16.982   3.986  1.00  0.00     0.027 A 
HETATM   15  C   UNL     1      44.196 -19.712   4.015  1.00  0.00    -0.058 A 
HETATM   16  C   UNL     1      44.252 -19.981   2.645  1.00  0.00     0.009 A 
BRANCH   8  17
HETATM   17  O   UNL     1      40.272 -16.086   0.761  1.00  0.00    -0.344 OA
HETATM   18  H   UNL     1      41.009 -15.947   0.132  1.00  0.00     0.219 HD
ENDBRANCH   8  17
BRANCH  15  19
HETATM   19  C   UNL     1      45.052 -20.482   4.989  1.00  0.00     0.034 C 
HETATM   20  C   UNL     1      44.841 -21.984   4.874  1.00  0.00     0.010 C 
ENDBRANCH  15  19
ENDBRANCH   6   7
ENDBRANCH   1   6
BRANCH   1  21
HETATM   21  C   UNL     1      40.957 -12.871   2.800  1.00  0.00     0.129 C 
BRANCH  21  22
HETATM   22  C   UNL     1      42.103 -13.129   1.823  1.00  0.00     0.048 C 
BRANCH  22  23
HETATM   23  C   UNL     1      41.847 -12.561   0.429  1.00  0.00     0.236 C 
BRANCH  23  24
HETATM   24  N   UNL     1      41.052 -13.491  -0.466  1.00  0.00    -0.067 N 
HETATM   25  H   UNL     1      40.933 -14.400  -0.003  1.00  0.00     0.280 HD
HETATM   26  C   UNL     1      39.642 -12.923  -0.699  1.00  0.00     0.261 C 
HETATM   27  C   UNL     1      38.854 -13.831  -1.645  1.00  0.00     0.195 C 
HETATM   28  O   UNL     1      39.543 -13.988  -2.888  1.00  0.00    -0.388 OA
HETATM   29  C   UNL     1      40.819 -14.606  -2.707  1.00  0.00     0.195 C 
HETATM   30  C   UNL     1      41.727 -13.747  -1.820  1.00  0.00     0.261 C 
ENDBRANCH  23  24
ENDBRANCH  22  23
ENDBRANCH  21  22
ENDBRANCH   1  21
BRANCH   3  31
HETATM   31  C   UNL     1      42.989 -12.624   6.526  1.00  0.00     0.036 A 
HETATM   32  C   UNL     1      44.073 -13.465   6.817  1.00  0.00     0.031 A 
HETATM   33  C   UNL     1      44.791 -13.319   8.008  1.00  0.00     0.026 A 
HETATM   34  C   UNL     1      44.432 -12.325   8.912  1.00  0.00     0.034 A 
HETATM   35 CL   UNL     1      45.299 -12.158  10.387  1.00  0.00    -0.084 Cl
HETATM   36  C   UNL     1      43.370 -11.472   8.627  1.00  0.00     0.026 A 
HETATM   37  C   UNL     1      42.654 -11.618   7.434  1.00  0.00     0.031 A 
ENDBRANCH   3  31
TORSDOF 9
ENDMDL
MODEL 9
REMARK VINA RESULT:      -8.0      4.680      8.367
REMARK  9 active torsions:
REMARK  status: ('A' for Active; 'I' for Inactive)
REMARK    1  A    between atoms: C_2  and  C_3 
REMARK    2  A    between atoms: C_8  and  O_9 
REMARK    3  A    between atoms: C_10  and  C_11 
REMARK    4  A    between atoms: C_11  and  N_12 
REMARK       I    between atoms: N_12  and  C_13 
REMARK    5  A    between atoms: N_12  and  C_23 
REMARK       I    between atoms: C_13  and  N_14 
REMARK    6  A    between atoms: N_14  and  C_15 
REMARK    7  A    between atoms: C_23  and  C_24 
REMARK    8  A    between atoms: C_24  and  C_25 
REMARK    9  A    between atoms: C_25  and  N_26 
ROOT
HETATM    1  N   UNL     1      42.265 -14.528   5.239  1.00  0.00    -0.330 N 
HETATM    2  C   UNL     1      42.810 -15.436   4.318  1.00  0.00     0.323 C 
HETATM    3  N   UNL     1      42.503 -16.752   4.600  1.00  0.00    -0.309 N 
HETATM    4  O   UNL     1      43.542 -15.061   3.410  1.00  0.00    -0.247 OA
HETATM    5  H   UNL     1      42.078 -16.915   5.492  1.00  0.00     0.170 HD
ENDROOT
BRANCH   1   6
HETATM    6  C   UNL     1      42.907 -13.206   5.335  1.00  0.00     0.170 C 
BRANCH   6   7
HETATM    7  C   UNL     1      43.452 -12.938   6.711  1.00  0.00     0.013 A 
HETATM    8  C   UNL     1      44.518 -13.628   7.253  1.00  0.00     0.170 A 
HETATM    9  N   UNL     1      45.099 -13.384   8.440  1.00  0.00    -0.224 NA
HETATM   10  C   UNL     1      44.594 -12.378   9.181  1.00  0.00     0.070 A 
HETATM   11  C   UNL     1      43.484 -11.621   8.759  1.00  0.00    -0.006 A 
HETATM   12  C   UNL     1      45.172 -12.057  10.403  1.00  0.00     0.033 A 
HETATM   13  C   UNL     1      42.976 -10.585   9.564  1.00  0.00     0.021 A 
HETATM   14  C   UNL     1      42.919 -11.926   7.514  1.00  0.00     0.027 A 
HETATM   15  C   UNL     1      43.570 -10.274  10.791  1.00  0.00    -0.058 A 
HETATM   16  C   UNL     1      44.678 -11.020  11.202  1.00  0.00     0.009 A 
BRANCH   8  17
HETATM   17  O   UNL     1      45.101 -14.676   6.618  1.00  0.00    -0.344 OA
HETATM   18  H   UNL     1      44.426 -14.783   5.916  1.00  0.00     0.219 HD
ENDBRANCH   8  17
BRANCH  15  19
HETATM   19  C   UNL     1      43.021  -9.167  11.655  1.00  0.00     0.034 C 
HETATM   20  C   UNL     1      43.224  -9.442  13.137  1.00  0.00     0.010 C 
ENDBRANCH  15  19
ENDBRANCH   6   7
ENDBRANCH   1   6
BRANCH   1  21
HETATM   21  C   UNL     1      40.955 -14.709   5.863  1.00  0.00     0.129 C 
BRANCH  21  22
HETATM   22  C   UNL     1      39.946 -13.633   5.463  1.00  0.00     0.048 C 
BRANCH  22  23
HETATM   23  C   UNL     1      39.464 -12.790   6.641  1.00  0.00     0.236 C 
BRANCH  23  24
HETATM   24  N   UNL     1      39.273 -11.327   6.299  1.00  0.00    -0.067 N 
HETATM   25  H   UNL     1      38.299 -11.160   6.017  1.00  0.00     0.280 HD
HETATM   26  C   UNL     1      39.532 -10.455   7.540  1.00  0.00     0.261 C 
HETATM   27  C   UNL     1      39.392  -8.973   7.186  1.00  0.00     0.195 C 
HETATM   28  O   UNL     1      40.287  -8.618   6.129  1.00  0.00    -0.388 OA
HETATM   29  C   UNL     1      40.003  -9.346   4.932  1.00  0.00     0.195 C 
HETATM   30  C   UNL     1      40.173 -10.854   5.150  1.00  0.00     0.261 C 
ENDBRANCH  23  24
ENDBRANCH  22  23
ENDBRANCH  21  22
ENDBRANCH   1  21
BRANCH   3  31
HETATM   31  C   UNL     1      43.032 -17.904   3.979  1.00  0.00     0.036 A 
HETATM   32  C   UNL     1      42.531 -18.223   2.708  1.00  0.00     0.031 A 
HETATM   33  C   UNL     1      42.952 -19.378   2.042  1.00  0.00     0.026 A 
HETATM   34  C   UNL     1      43.884 -20.218   2.643  1.00  0.00     0.034 A 
HETATM   35 CL   UNL     1      44.388 -21.650   1.837  1.00  0.00    -0.084 Cl
HETATM   36  C   UNL     1      44.404 -19.904   3.895  1.00  0.00     0.026 A 
HETATM   37  C   UNL     1      43.982 -18.746   4.559  1.00  0.00     0.031 A 
ENDBRANCH   3  31
TORSDOF 9
ENDMDL
MODEL 10
REMARK VINA RESULT:      -8.0      3.321      8.410
REMARK  9 active torsions:
REMARK  status: ('A' for Active; 'I' for Inactive)
REMARK    1  A    between atoms: C_2  and  C_3 
REMARK    2  A    between atoms: C_8  and  O_9 
REMARK    3  A    between atoms: C_10  and  C_11 
REMARK    4  A    between atoms: C_11  and  N_12 
REMARK       I    between atoms: N_12  and  C_13 
REMARK    5  A    between atoms: N_12  and  C_23 
REMARK       I    between atoms: C_13  and  N_14 
REMARK    6  A    between atoms: N_14  and  C_15 
REMARK    7  A    between atoms: C_23  and  C_24 
REMARK    8  A    between atoms: C_24  and  C_25 
REMARK    9  A    between atoms: C_25  and  N_26 
ROOT
HETATM    1  N   UNL     1      41.120 -14.912   0.653  1.00  0.00    -0.330 N 
HETATM    2  C   UNL     1      40.977 -13.812  -0.206  1.00  0.00     0.323 C 
HETATM    3  N   UNL     1      41.915 -13.781  -1.217  1.00  0.00    -0.309 N 
HETATM    4  O   UNL     1      40.134 -12.948   0.002  1.00  0.00    -0.247 OA
HETATM    5  H   UNL     1      42.667 -14.436  -1.129  1.00  0.00     0.170 HD
ENDROOT
BRANCH   1   6
HETATM    6  C   UNL     1      40.531 -14.794   1.998  1.00  0.00     0.170 C 
BRANCH   6   7
HETATM    7  C   UNL     1      41.580 -14.676   3.070  1.00  0.00     0.013 A 
HETATM    8  C   UNL     1      42.516 -13.663   3.108  1.00  0.00     0.170 A 
HETATM    9  N   UNL     1      43.426 -13.460   4.076  1.00  0.00    -0.224 NA
HETATM   10  C   UNL     1      43.436 -14.327   5.107  1.00  0.00     0.070 A 
HETATM   11  C   UNL     1      42.557 -15.426   5.171  1.00  0.00    -0.006 A 
HETATM   12  C   UNL     1      44.330 -14.151   6.155  1.00  0.00     0.033 A 
HETATM   13  C   UNL     1      42.604 -16.320   6.257  1.00  0.00     0.021 A 
HETATM   14  C   UNL     1      41.635 -15.588   4.128  1.00  0.00     0.027 A 
HETATM   15  C   UNL     1      43.511 -16.127   7.303  1.00  0.00    -0.058 A 
HETATM   16  C   UNL     1      44.373 -15.030   7.244  1.00  0.00     0.009 A 
BRANCH   8  17
HETATM   17  O   UNL     1      42.625 -12.739   2.119  1.00  0.00    -0.344 OA
HETATM   18  H   UNL     1      41.727 -12.854   1.747  1.00  0.00     0.219 HD
ENDBRANCH   8  17
BRANCH  15  19
HETATM   19  C   UNL     1      43.562 -17.088   8.464  1.00  0.00     0.034 C 
HETATM   20  C   UNL     1      44.048 -18.468   8.045  1.00  0.00     0.010 C 
ENDBRANCH  15  19
ENDBRANCH   6   7
ENDBRANCH   1   6
BRANCH   1  21
HETATM   21  C   UNL     1      41.541 -16.236   0.196  1.00  0.00     0.129 C 
BRANCH  21  22
HETATM   22  C   UNL     1      42.673 -16.828   1.036  1.00  0.00     0.048 C 
BRANCH  22  23
HETATM   23  C   UNL     1      42.287 -18.127   1.740  1.00  0.00     0.236 C 
BRANCH  23  24
HETATM   24  N   UNL     1      43.468 -18.869   2.330  1.00  0.00    -0.067 N 
HETATM   25  H   UNL     1      44.342 -18.405   2.056  1.00  0.00     0.280 HD
HETATM   26  C   UNL     1      43.405 -18.827   3.866  1.00  0.00     0.261 C 
HETATM   27  C   UNL     1      44.567 -19.621   4.467  1.00  0.00     0.195 C 
HETATM   28  O   UNL     1      44.551 -20.973   4.002  1.00  0.00    -0.388 OA
HETATM   29  C   UNL     1      44.707 -21.043   2.583  1.00  0.00     0.195 C 
HETATM   30  C   UNL     1      43.556 -20.329   1.866  1.00  0.00     0.261 C 
ENDBRANCH  23  24
ENDBRANCH  22  23
ENDBRANCH  21  22
ENDBRANCH   1  21
BRANCH   3  31
HETATM   31  C   UNL     1      42.151 -12.732  -2.132  1.00  0.00     0.036 A 
HETATM   32  C   UNL     1      42.769 -11.579  -1.625  1.00  0.00     0.031 A 
HETATM   33  C   UNL     1      42.988 -10.467  -2.444  1.00  0.00     0.026 A 
HETATM   34  C   UNL     1      42.596 -10.506  -3.778  1.00  0.00     0.034 A 
HETATM   35 CL   UNL     1      42.844  -9.133  -4.782  1.00  0.00    -0.084 Cl
HETATM   36  C   UNL     1      42.000 -11.651  -4.299  1.00  0.00     0.026 A 
HETATM   37  C   UNL     1      41.783 -12.764  -3.477  1.00  0.00     0.031 A 
ENDBRANCH   3  31
TORSDOF 9
ENDMDL
