MODEL 1
REMARK VINA RESULT:      -9.1      0.000      0.000
REMARK  4 active torsions:
REMARK  status: ('A' for Active; 'I' for Inactive)
REMARK    1  A    between atoms: N_3  and  C_4 
REMARK    2  A    between atoms: C_4  and  C_5 
REMARK    3  A    between atoms: C_5  and  C_6 
REMARK       I    between atoms: C_6  and  N_7 
REMARK    4  A    between atoms: N_7  and  C_8 
ROOT
HETATM    1  C   UNL     1      40.673 -16.308   1.742  1.00  0.00     0.035 A 
HETATM    2  C   UNL     1      40.752 -16.420   3.129  1.00  0.00     0.049 A 
HETATM    3  C   UNL     1      41.590 -17.375   3.735  1.00  0.00     0.061 A 
HETATM    4  C   UNL     1      42.355 -18.238   2.939  1.00  0.00     0.050 A 
HETATM    5  N   UNL     1      43.339 -19.130   3.402  1.00  0.00    -0.324 N 
HETATM    6  C   UNL     1      44.179 -18.966   4.475  1.00  0.00     0.245 C 
HETATM    7  O   UNL     1      45.129 -19.743   4.589  1.00  0.00    -0.271 OA
HETATM    8  C   UNL     1      44.011 -17.721   5.347  1.00  0.00     0.180 C 
HETATM    9  N   UNL     1      42.674 -17.686   5.916  1.00  0.00    -0.334 N 
HETATM   10  C   UNL     1      41.518 -17.449   5.215  1.00  0.00     0.256 C 
HETATM   11  O   UNL     1      40.435 -17.277   5.767  1.00  0.00    -0.267 OA
HETATM   12  C   UNL     1      44.944 -17.706   6.564  1.00  0.00     0.037 C 
HETATM   13  C   UNL     1      44.098 -17.065   7.657  1.00  0.00     0.022 C 
HETATM   14  C   UNL     1      42.711 -17.608   7.364  1.00  0.00     0.127 C 
HETATM   15  C   UNL     1      42.167 -18.209   1.550  1.00  0.00     0.033 A 
HETATM   16  C   UNL     1      41.346 -17.245   0.956  1.00  0.00     0.032 A 
HETATM   17  H   UNL     1      43.669 -19.852   2.774  1.00  0.00     0.169 HD
ENDROOT
BRANCH   1  18
HETATM   18  N   UNL     1      40.024 -15.247   1.075  1.00  0.00    -0.327 N 
HETATM   19  C   UNL     1      40.616 -14.292   0.274  1.00  0.00     0.224 C 
HETATM   20  O   UNL     1      41.810 -14.008   0.241  1.00  0.00    -0.273 OA
HETATM   21  H   UNL     1      39.011 -15.229   1.144  1.00  0.00     0.169 HD
BRANCH  19  22
HETATM   22  C   UNL     1      39.655 -13.606  -0.678  1.00  0.00     0.134 C 
BRANCH  22  23
HETATM   23  C   UNL     1      39.699 -14.112  -2.141  1.00  0.00     0.044 C 
HETATM   24  C   UNL     1      38.216 -14.277  -2.609  1.00  0.00     0.032 C 
HETATM   25  C   UNL     1      38.079 -14.949  -3.972  1.00  0.00     0.002 C 
HETATM   26  C   UNL     1      38.738 -16.321  -3.974  1.00  0.00     0.000 C 
HETATM   27  C   UNL     1      40.196 -16.235  -3.542  1.00  0.00     0.002 C 
HETATM   28  C   UNL     1      40.351 -15.527  -2.193  1.00  0.00     0.032 C 
BRANCH  23  29
HETATM   29  N   UNL     1      40.400 -13.097  -2.964  1.00  0.00    -0.356 N 
HETATM   30  C   UNL     1      39.811 -11.966  -3.491  1.00  0.00     0.091 A 
HETATM   31  C   UNL     1      40.774 -11.221  -4.133  1.00  0.00     0.019 A 
HETATM   32  C   UNL     1      42.000 -11.894  -3.964  1.00  0.00     0.019 A 
HETATM   33  C   UNL     1      41.748 -13.028  -3.224  1.00  0.00     0.091 A 
ENDBRANCH  23  29
ENDBRANCH  22  23
ENDBRANCH  19  22
ENDBRANCH   1  18
TORSDOF 4
ENDMDL
MODEL 2
REMARK VINA RESULT:      -8.5      5.566     10.320
REMARK  4 active torsions:
REMARK  status: ('A' for Active; 'I' for Inactive)
REMARK    1  A    between atoms: N_3  and  C_4 
REMARK    2  A    between atoms: C_4  and  C_5 
REMARK    3  A    between atoms: C_5  and  C_6 
REMARK       I    between atoms: C_6  and  N_7 
REMARK    4  A    between atoms: N_7  and  C_8 
ROOT
HETATM    1  C   UNL     1      43.739 -13.625   7.020  1.00  0.00     0.035 A 
HETATM    2  C   UNL     1      43.363 -13.531   5.681  1.00  0.00     0.049 A 
HETATM    3  C   UNL     1      43.329 -14.669   4.853  1.00  0.00     0.061 A 
HETATM    4  C   UNL     1      43.688 -15.921   5.372  1.00  0.00     0.050 A 
HETATM    5  N   UNL     1      43.558 -17.154   4.710  1.00  0.00    -0.324 N 
HETATM    6  C   UNL     1      42.591 -17.523   3.808  1.00  0.00     0.245 C 
HETATM    7  O   UNL     1      42.504 -18.715   3.510  1.00  0.00    -0.271 OA
HETATM    8  C   UNL     1      41.557 -16.479   3.382  1.00  0.00     0.180 C 
HETATM    9  N   UNL     1      42.221 -15.341   2.768  1.00  0.00    -0.334 N 
HETATM   10  C   UNL     1      42.995 -14.421   3.430  1.00  0.00     0.256 C 
HETATM   11  O   UNL     1      43.403 -13.394   2.893  1.00  0.00    -0.267 OA
HETATM   12  C   UNL     1      40.595 -16.988   2.302  1.00  0.00     0.037 C 
HETATM   13  C   UNL     1      40.359 -15.764   1.426  1.00  0.00     0.022 C 
HETATM   14  C   UNL     1      41.717 -15.086   1.432  1.00  0.00     0.127 C 
HETATM   15  C   UNL     1      44.194 -15.983   6.678  1.00  0.00     0.033 A 
HETATM   16  C   UNL     1      44.205 -14.851   7.499  1.00  0.00     0.032 A 
HETATM   17  H   UNL     1      44.045 -17.958   5.087  1.00  0.00     0.169 HD
ENDROOT
BRANCH   1  18
HETATM   18  N   UNL     1      43.595 -12.576   7.952  1.00  0.00    -0.327 N 
HETATM   19  C   UNL     1      44.485 -12.231   8.949  1.00  0.00     0.224 C 
HETATM   20  O   UNL     1      45.385 -12.934   9.397  1.00  0.00    -0.273 OA
HETATM   21  H   UNL     1      42.782 -11.979   7.831  1.00  0.00     0.169 HD
BRANCH  19  22
HETATM   22  C   UNL     1      44.320 -10.811   9.456  1.00  0.00     0.134 C 
BRANCH  22  23
HETATM   23  C   UNL     1      43.256 -10.624  10.566  1.00  0.00     0.044 C 
HETATM   24  C   UNL     1      43.675  -9.362  11.388  1.00  0.00     0.032 C 
HETATM   25  C   UNL     1      42.832  -9.145  12.643  1.00  0.00     0.002 C 
HETATM   26  C   UNL     1      42.894 -10.358  13.559  1.00  0.00     0.000 C 
HETATM   27  C   UNL     1      42.482 -11.628  12.827  1.00  0.00     0.002 C 
HETATM   28  C   UNL     1      43.294 -11.837  11.545  1.00  0.00     0.032 C 
BRANCH  23  29
HETATM   29  N   UNL     1      41.939 -10.416   9.918  1.00  0.00    -0.356 N 
HETATM   30  C   UNL     1      41.719  -9.612   8.818  1.00  0.00     0.091 A 
HETATM   31  C   UNL     1      40.397  -9.716   8.448  1.00  0.00     0.019 A 
HETATM   32  C   UNL     1      39.792 -10.640   9.323  1.00  0.00     0.019 A 
HETATM   33  C   UNL     1      40.764 -11.072  10.199  1.00  0.00     0.091 A 
ENDBRANCH  23  29
ENDBRANCH  22  23
ENDBRANCH  19  22
ENDBRANCH   1  18
TORSDOF 4
ENDMDL
MODEL 3
REMARK VINA RESULT:      -8.5      1.777      2.183
REMARK  4 active torsions:
REMARK  status: ('A' for Active; 'I' for Inactive)
REMARK    1  A    between atoms: N_3  and  C_4 
REMARK    2  A    between atoms: C_4  and  C_5 
REMARK    3  A    between atoms: C_5  and  C_6 
REMARK       I    between atoms: C_6  and  N_7 
REMARK    4  A    between atoms: N_7  and  C_8 
ROOT
HETATM    1  C   UNL     1      40.952 -15.399   1.939  1.00  0.00     0.035 A 
HETATM    2  C   UNL     1      41.128 -15.780   3.269  1.00  0.00     0.049 A 
HETATM    3  C   UNL     1      41.746 -17.000   3.600  1.00  0.00     0.061 A 
HETATM    4  C   UNL     1      42.189 -17.857   2.585  1.00  0.00     0.050 A 
HETATM    5  N   UNL     1      42.951 -19.025   2.766  1.00  0.00    -0.324 N 
HETATM    6  C   UNL     1      43.900 -19.264   3.729  1.00  0.00     0.245 C 
HETATM    7  O   UNL     1      44.626 -20.250   3.592  1.00  0.00    -0.271 OA
HETATM    8  C   UNL     1      44.136 -18.196   4.798  1.00  0.00     0.180 C 
HETATM    9  N   UNL     1      42.910 -17.953   5.540  1.00  0.00    -0.334 N 
HETATM   10  C   UNL     1      41.794 -17.325   5.047  1.00  0.00     0.256 C 
HETATM   11  O   UNL     1      40.846 -17.008   5.760  1.00  0.00    -0.267 OA
HETATM   12  C   UNL     1      45.150 -18.626   5.866  1.00  0.00     0.037 C 
HETATM   13  C   UNL     1      44.599 -18.016   7.149  1.00  0.00     0.022 C 
HETATM   14  C   UNL     1      43.099 -18.153   6.965  1.00  0.00     0.127 C 
HETATM   15  C   UNL     1      41.888 -17.530   1.255  1.00  0.00     0.033 A 
HETATM   16  C   UNL     1      41.290 -16.307   0.934  1.00  0.00     0.032 A 
HETATM   17  H   UNL     1      43.027 -19.677   1.995  1.00  0.00     0.169 HD
ENDROOT
BRANCH   1  18
HETATM   18  N   UNL     1      40.537 -14.111   1.539  1.00  0.00    -0.327 N 
HETATM   19  C   UNL     1      41.349 -13.021   1.297  1.00  0.00     0.224 C 
HETATM   20  O   UNL     1      42.509 -12.881   1.672  1.00  0.00    -0.273 OA
HETATM   21  H   UNL     1      39.546 -14.000   1.348  1.00  0.00     0.169 HD
BRANCH  19  22
HETATM   22  C   UNL     1      40.706 -11.956   0.431  1.00  0.00     0.134 C 
BRANCH  22  23
HETATM   23  C   UNL     1      41.107 -11.989  -1.065  1.00  0.00     0.044 C 
HETATM   24  C   UNL     1      39.787 -11.853  -1.891  1.00  0.00     0.032 C 
HETATM   25  C   UNL     1      39.984 -12.057  -3.392  1.00  0.00     0.002 C 
HETATM   26  C   UNL     1      40.594 -13.420  -3.683  1.00  0.00     0.000 C 
HETATM   27  C   UNL     1      41.897 -13.618  -2.920  1.00  0.00     0.002 C 
HETATM   28  C   UNL     1      41.722 -13.378  -1.417  1.00  0.00     0.032 C 
BRANCH  23  29
HETATM   29  N   UNL     1      42.014 -10.847  -1.330  1.00  0.00    -0.356 N 
HETATM   30  C   UNL     1      41.600  -9.564  -1.627  1.00  0.00     0.091 A 
HETATM   31  C   UNL     1      42.707  -8.754  -1.739  1.00  0.00     0.019 A 
HETATM   32  C   UNL     1      43.835  -9.552  -1.465  1.00  0.00     0.019 A 
HETATM   33  C   UNL     1      43.381 -10.824  -1.194  1.00  0.00     0.091 A 
ENDBRANCH  23  29
ENDBRANCH  22  23
ENDBRANCH  19  22
ENDBRANCH   1  18
TORSDOF 4
ENDMDL
MODEL 4
REMARK VINA RESULT:      -8.4      1.483      1.866
REMARK  4 active torsions:
REMARK  status: ('A' for Active; 'I' for Inactive)
REMARK    1  A    between atoms: N_3  and  C_4 
REMARK    2  A    between atoms: C_4  and  C_5 
REMARK    3  A    between atoms: C_5  and  C_6 
REMARK       I    between atoms: C_6  and  N_7 
REMARK    4  A    between atoms: N_7  and  C_8 
ROOT
HETATM    1  C   UNL     1      41.286 -16.185   1.664  1.00  0.00     0.035 A 
HETATM    2  C   UNL     1      41.278 -16.317   3.052  1.00  0.00     0.049 A 
HETATM    3  C   UNL     1      41.956 -17.375   3.686  1.00  0.00     0.061 A 
HETATM    4  C   UNL     1      42.646 -18.322   2.918  1.00  0.00     0.050 A 
HETATM    5  N   UNL     1      43.485 -19.334   3.418  1.00  0.00    -0.324 N 
HETATM    6  C   UNL     1      44.281 -19.287   4.534  1.00  0.00     0.245 C 
HETATM    7  O   UNL     1      45.118 -20.179   4.686  1.00  0.00    -0.271 OA
HETATM    8  C   UNL     1      44.225 -18.037   5.415  1.00  0.00     0.180 C 
HETATM    9  N   UNL     1      42.875 -17.838   5.915  1.00  0.00    -0.334 N 
HETATM   10  C   UNL     1      41.797 -17.451   5.159  1.00  0.00     0.256 C 
HETATM   11  O   UNL     1      40.717 -17.148   5.658  1.00  0.00    -0.267 OA
HETATM   12  C   UNL     1      45.088 -18.151   6.678  1.00  0.00     0.037 C 
HETATM   13  C   UNL     1      44.273 -17.416   7.735  1.00  0.00     0.022 C 
HETATM   14  C   UNL     1      42.846 -17.776   7.364  1.00  0.00     0.127 C 
HETATM   15  C   UNL     1      42.537 -18.259   1.522  1.00  0.00     0.033 A 
HETATM   16  C   UNL     1      41.877 -17.193   0.901  1.00  0.00     0.032 A 
HETATM   17  H   UNL     1      43.754 -20.088   2.797  1.00  0.00     0.169 HD
ENDROOT
BRANCH   1  18
HETATM   18  N   UNL     1      40.812 -15.046   0.980  1.00  0.00    -0.327 N 
HETATM   19  C   UNL     1      39.561 -14.474   1.100  1.00  0.00     0.224 C 
HETATM   20  O   UNL     1      38.559 -15.006   1.568  1.00  0.00    -0.273 OA
HETATM   21  H   UNL     1      41.485 -14.565   0.391  1.00  0.00     0.169 HD
BRANCH  19  22
HETATM   22  C   UNL     1      39.501 -13.028   0.648  1.00  0.00     0.134 C 
BRANCH  22  23
HETATM   23  C   UNL     1      39.395 -12.817  -0.883  1.00  0.00     0.044 C 
HETATM   24  C   UNL     1      38.494 -11.559  -1.106  1.00  0.00     0.032 C 
HETATM   25  C   UNL     1      38.133 -11.321  -2.570  1.00  0.00     0.002 C 
HETATM   26  C   UNL     1      37.423 -12.531  -3.162  1.00  0.00     0.000 C 
HETATM   27  C   UNL     1      38.253 -13.796  -2.994  1.00  0.00     0.002 C 
HETATM   28  C   UNL     1      38.656 -14.026  -1.534  1.00  0.00     0.032 C 
BRANCH  23  29
HETATM   29  N   UNL     1      40.759 -12.589  -1.417  1.00  0.00    -0.356 N 
HETATM   30  C   UNL     1      41.543 -11.489  -1.134  1.00  0.00     0.091 A 
HETATM   31  C   UNL     1      42.768 -11.648  -1.741  1.00  0.00     0.019 A 
HETATM   32  C   UNL     1      42.753 -12.901  -2.386  1.00  0.00     0.019 A 
HETATM   33  C   UNL     1      41.519 -13.467  -2.151  1.00  0.00     0.091 A 
ENDBRANCH  23  29
ENDBRANCH  22  23
ENDBRANCH  19  22
ENDBRANCH   1  18
TORSDOF 4
ENDMDL
MODEL 5
REMARK VINA RESULT:      -8.4      2.144      3.356
REMARK  4 active torsions:
REMARK  status: ('A' for Active; 'I' for Inactive)
REMARK    1  A    between atoms: N_3  and  C_4 
REMARK    2  A    between atoms: C_4  and  C_5 
REMARK    3  A    between atoms: C_5  and  C_6 
REMARK       I    between atoms: C_6  and  N_7 
REMARK    4  A    between atoms: N_7  and  C_8 
ROOT
HETATM    1  C   UNL     1      40.986 -16.029   3.812  1.00  0.00     0.035 A 
HETATM    2  C   UNL     1      41.943 -17.006   3.544  1.00  0.00     0.049 A 
HETATM    3  C   UNL     1      42.820 -17.461   4.547  1.00  0.00     0.061 A 
HETATM    4  C   UNL     1      42.744 -16.922   5.838  1.00  0.00     0.050 A 
HETATM    5  N   UNL     1      43.446 -17.383   6.965  1.00  0.00    -0.324 N 
HETATM    6  C   UNL     1      43.815 -18.673   7.252  1.00  0.00     0.245 C 
HETATM    7  O   UNL     1      44.219 -18.919   8.391  1.00  0.00    -0.271 OA
HETATM    8  C   UNL     1      43.519 -19.761   6.219  1.00  0.00     0.180 C 
HETATM    9  N   UNL     1      44.188 -19.455   4.966  1.00  0.00    -0.334 N 
HETATM   10  C   UNL     1      43.847 -18.438   4.110  1.00  0.00     0.256 C 
HETATM   11  O   UNL     1      44.344 -18.321   2.993  1.00  0.00    -0.267 OA
HETATM   12  C   UNL     1      44.066 -21.137   6.619  1.00  0.00     0.037 C 
HETATM   13  C   UNL     1      44.515 -21.743   5.294  1.00  0.00     0.022 C 
HETATM   14  C   UNL     1      45.057 -20.539   4.546  1.00  0.00     0.127 C 
HETATM   15  C   UNL     1      41.872 -15.847   6.063  1.00  0.00     0.033 A 
HETATM   16  C   UNL     1      40.991 -15.415   5.066  1.00  0.00     0.032 A 
HETATM   17  H   UNL     1      43.483 -16.791   7.786  1.00  0.00     0.169 HD
ENDROOT
BRANCH   1  18
HETATM   18  N   UNL     1      39.947 -15.681   2.923  1.00  0.00    -0.327 N 
HETATM   19  C   UNL     1      39.586 -14.406   2.535  1.00  0.00     0.224 C 
HETATM   20  O   UNL     1      39.882 -13.361   3.106  1.00  0.00    -0.273 OA
HETATM   21  H   UNL     1      39.462 -16.454   2.478  1.00  0.00     0.169 HD
BRANCH  19  22
HETATM   22  C   UNL     1      38.800 -14.357   1.240  1.00  0.00     0.134 C 
BRANCH  22  23
HETATM   23  C   UNL     1      39.640 -14.090  -0.034  1.00  0.00     0.044 C 
HETATM   24  C   UNL     1      38.638 -14.025  -1.233  1.00  0.00     0.032 C 
HETATM   25  C   UNL     1      39.323 -13.954  -2.595  1.00  0.00     0.002 C 
HETATM   26  C   UNL     1      40.247 -15.145  -2.805  1.00  0.00     0.000 C 
HETATM   27  C   UNL     1      41.265 -15.262  -1.679  1.00  0.00     0.002 C 
HETATM   28  C   UNL     1      40.592 -15.295  -0.303  1.00  0.00     0.032 C 
BRANCH  23  29
HETATM   29  N   UNL     1      40.343 -12.796   0.135  1.00  0.00    -0.356 N 
HETATM   30  C   UNL     1      41.713 -12.645   0.195  1.00  0.00     0.091 A 
HETATM   31  C   UNL     1      42.010 -11.303   0.281  1.00  0.00     0.019 A 
HETATM   32  C   UNL     1      40.788 -10.604   0.236  1.00  0.00     0.019 A 
HETATM   33  C   UNL     1      39.784 -11.540   0.122  1.00  0.00     0.091 A 
ENDBRANCH  23  29
ENDBRANCH  22  23
ENDBRANCH  19  22
ENDBRANCH   1  18
TORSDOF 4
ENDMDL
MODEL 6
REMARK VINA RESULT:      -8.3      6.153      9.346
REMARK  4 active torsions:
REMARK  status: ('A' for Active; 'I' for Inactive)
REMARK    1  A    between atoms: N_3  and  C_4 
REMARK    2  A    between atoms: C_4  and  C_5 
REMARK    3  A    between atoms: C_5  and  C_6 
REMARK       I    between atoms: C_6  and  N_7 
REMARK    4  A    between atoms: N_7  and  C_8 
ROOT
HETATM    1  C   UNL     1      41.073 -11.692   6.434  1.00  0.00     0.035 A 
HETATM    2  C   UNL     1      42.018 -11.644   7.458  1.00  0.00     0.049 A 
HETATM    3  C   UNL     1      42.073 -10.553   8.345  1.00  0.00     0.061 A 
HETATM    4  C   UNL     1      41.173  -9.489   8.201  1.00  0.00     0.050 A 
HETATM    5  N   UNL     1      41.015  -8.416   9.096  1.00  0.00    -0.324 N 
HETATM    6  C   UNL     1      41.164  -8.436  10.461  1.00  0.00     0.245 C 
HETATM    7  O   UNL     1      40.760  -7.463  11.100  1.00  0.00    -0.271 OA
HETATM    8  C   UNL     1      41.633  -9.733  11.122  1.00  0.00     0.180 C 
HETATM    9  N   UNL     1      42.934 -10.117  10.602  1.00  0.00    -0.334 N 
HETATM   10  C   UNL     1      43.178 -10.583   9.335  1.00  0.00     0.256 C 
HETATM   11  O   UNL     1      44.267 -11.038   8.997  1.00  0.00    -0.267 OA
HETATM   12  C   UNL     1      41.851  -9.594  12.634  1.00  0.00     0.037 C 
HETATM   13  C   UNL     1      43.061 -10.479  12.904  1.00  0.00     0.022 C 
HETATM   14  C   UNL     1      43.911 -10.267  11.665  1.00  0.00     0.127 C 
HETATM   15  C   UNL     1      40.318  -9.482   7.089  1.00  0.00     0.033 A 
HETATM   16  C   UNL     1      40.258 -10.579   6.223  1.00  0.00     0.032 A 
HETATM   17  H   UNL     1      40.499  -7.601   8.787  1.00  0.00     0.169 HD
ENDROOT
BRANCH   1  18
HETATM   18  N   UNL     1      40.825 -12.837   5.647  1.00  0.00    -0.327 N 
HETATM   19  C   UNL     1      41.628 -13.336   4.641  1.00  0.00     0.224 C 
HETATM   20  O   UNL     1      42.517 -12.730   4.051  1.00  0.00    -0.273 OA
HETATM   21  H   UNL     1      40.004 -13.381   5.895  1.00  0.00     0.169 HD
BRANCH  19  22
HETATM   22  C   UNL     1      41.377 -14.797   4.322  1.00  0.00     0.134 C 
BRANCH  22  23
HETATM   23  C   UNL     1      42.307 -15.801   5.047  1.00  0.00     0.044 C 
HETATM   24  C   UNL     1      41.477 -16.428   6.214  1.00  0.00     0.032 C 
HETATM   25  C   UNL     1      42.306 -17.305   7.149  1.00  0.00     0.002 C 
HETATM   26  C   UNL     1      43.464 -16.521   7.750  1.00  0.00     0.000 C 
HETATM   27  C   UNL     1      44.329 -15.893   6.666  1.00  0.00     0.002 C 
HETATM   28  C   UNL     1      43.503 -15.041   5.698  1.00  0.00     0.032 C 
BRANCH  23  29
HETATM   29  N   UNL     1      42.716 -16.843   4.074  1.00  0.00    -0.356 N 
HETATM   30  C   UNL     1      43.586 -16.641   3.022  1.00  0.00     0.091 A 
HETATM   31  C   UNL     1      43.791 -17.840   2.377  1.00  0.00     0.019 A 
HETATM   32  C   UNL     1      43.054 -18.817   3.075  1.00  0.00     0.019 A 
HETATM   33  C   UNL     1      42.424 -18.185   4.124  1.00  0.00     0.091 A 
ENDBRANCH  23  29
ENDBRANCH  22  23
ENDBRANCH  19  22
ENDBRANCH   1  18
TORSDOF 4
ENDMDL
MODEL 7
REMARK VINA RESULT:      -8.3      2.175      8.938
REMARK  4 active torsions:
REMARK  status: ('A' for Active; 'I' for Inactive)
REMARK    1  A    between atoms: N_3  and  C_4 
REMARK    2  A    between atoms: C_4  and  C_5 
REMARK    3  A    between atoms: C_5  and  C_6 
REMARK       I    between atoms: C_6  and  N_7 
REMARK    4  A    between atoms: N_7  and  C_8 
ROOT
HETATM    1  C   UNL     1      39.978 -15.494   1.463  1.00  0.00     0.035 A 
HETATM    2  C   UNL     1      40.587 -15.191   0.246  1.00  0.00     0.049 A 
HETATM    3  C   UNL     1      40.021 -14.252  -0.637  1.00  0.00     0.061 A 
HETATM    4  C   UNL     1      38.821 -13.611  -0.300  1.00  0.00     0.050 A 
HETATM    5  N   UNL     1      38.226 -12.552  -1.008  1.00  0.00    -0.324 N 
HETATM    6  C   UNL     1      38.857 -11.554  -1.707  1.00  0.00     0.245 C 
HETATM    7  O   UNL     1      38.184 -10.586  -2.067  1.00  0.00    -0.271 OA
HETATM    8  C   UNL     1      40.381 -11.600  -1.825  1.00  0.00     0.180 C 
HETATM    9  N   UNL     1      40.795 -12.829  -2.481  1.00  0.00    -0.334 N 
HETATM   10  C   UNL     1      40.720 -14.086  -1.935  1.00  0.00     0.256 C 
HETATM   11  O   UNL     1      41.225 -15.069  -2.469  1.00  0.00    -0.267 OA
HETATM   12  C   UNL     1      40.952 -10.484  -2.710  1.00  0.00     0.037 C 
HETATM   13  C   UNL     1      42.119 -11.154  -3.424  1.00  0.00     0.022 C 
HETATM   14  C   UNL     1      41.601 -12.562  -3.658  1.00  0.00     0.127 C 
HETATM   15  C   UNL     1      38.148 -14.020   0.860  1.00  0.00     0.033 A 
HETATM   16  C   UNL     1      38.727 -14.939   1.740  1.00  0.00     0.032 A 
HETATM   17  H   UNL     1      37.263 -12.315  -0.803  1.00  0.00     0.169 HD
ENDROOT
BRANCH   1  18
HETATM   18  N   UNL     1      40.590 -16.257   2.479  1.00  0.00    -0.327 N 
HETATM   19  C   UNL     1      41.131 -15.780   3.656  1.00  0.00     0.224 C 
HETATM   20  O   UNL     1      41.451 -14.619   3.892  1.00  0.00    -0.273 OA
HETATM   21  H   UNL     1      40.569 -17.265   2.356  1.00  0.00     0.169 HD
BRANCH  19  22
HETATM   22  C   UNL     1      41.261 -16.830   4.743  1.00  0.00     0.134 C 
BRANCH  22  23
HETATM   23  C   UNL     1      42.682 -17.415   4.930  1.00  0.00     0.044 C 
HETATM   24  C   UNL     1      42.530 -18.710   5.794  1.00  0.00     0.032 C 
HETATM   25  C   UNL     1      43.863 -19.311   6.232  1.00  0.00     0.002 C 
HETATM   26  C   UNL     1      44.685 -18.302   7.020  1.00  0.00     0.000 C 
HETATM   27  C   UNL     1      44.889 -17.015   6.231  1.00  0.00     0.002 C 
HETATM   28  C   UNL     1      43.560 -16.422   5.752  1.00  0.00     0.032 C 
BRANCH  23  29
HETATM   29  N   UNL     1      43.234 -17.738   3.593  1.00  0.00    -0.356 N 
HETATM   30  C   UNL     1      42.988 -18.905   2.899  1.00  0.00     0.091 A 
HETATM   31  C   UNL     1      43.601 -18.829   1.668  1.00  0.00     0.019 A 
HETATM   32  C   UNL     1      44.210 -17.562   1.586  1.00  0.00     0.019 A 
HETATM   33  C   UNL     1      43.950 -16.904   2.768  1.00  0.00     0.091 A 
ENDBRANCH  23  29
ENDBRANCH  22  23
ENDBRANCH  19  22
ENDBRANCH   1  18
TORSDOF 4
ENDMDL
MODEL 8
REMARK VINA RESULT:      -8.3      1.367      2.709
REMARK  4 active torsions:
REMARK  status: ('A' for Active; 'I' for Inactive)
REMARK    1  A    between atoms: N_3  and  C_4 
REMARK    2  A    between atoms: C_4  and  C_5 
REMARK    3  A    between atoms: C_5  and  C_6 
REMARK       I    between atoms: C_6  and  N_7 
REMARK    4  A    between atoms: N_7  and  C_8 
ROOT
HETATM    1  C   UNL     1      40.910 -15.276   1.952  1.00  0.00     0.035 A 
HETATM    2  C   UNL     1      41.111 -15.683   3.271  1.00  0.00     0.049 A 
HETATM    3  C   UNL     1      41.702 -16.926   3.567  1.00  0.00     0.061 A 
HETATM    4  C   UNL     1      42.090 -17.780   2.527  1.00  0.00     0.050 A 
HETATM    5  N   UNL     1      42.822 -18.972   2.669  1.00  0.00    -0.324 N 
HETATM    6  C   UNL     1      43.789 -19.254   3.601  1.00  0.00     0.245 C 
HETATM    7  O   UNL     1      44.481 -20.260   3.429  1.00  0.00    -0.271 OA
HETATM    8  C   UNL     1      44.086 -18.211   4.679  1.00  0.00     0.180 C 
HETATM    9  N   UNL     1      42.889 -17.944   5.459  1.00  0.00    -0.334 N 
HETATM   10  C   UNL     1      41.779 -17.275   5.006  1.00  0.00     0.256 C 
HETATM   11  O   UNL     1      40.861 -16.941   5.751  1.00  0.00    -0.267 OA
HETATM   12  C   UNL     1      45.116 -18.688   5.712  1.00  0.00     0.037 C 
HETATM   13  C   UNL     1      44.620 -18.082   7.018  1.00  0.00     0.022 C 
HETATM   14  C   UNL     1      43.111 -18.171   6.875  1.00  0.00     0.127 C 
HETATM   15  C   UNL     1      41.762 -17.423   1.211  1.00  0.00     0.033 A 
HETATM   16  C   UNL     1      41.192 -16.178   0.925  1.00  0.00     0.032 A 
HETATM   17  H   UNL     1      42.856 -19.614   1.886  1.00  0.00     0.169 HD
ENDROOT
BRANCH   1  18
HETATM   18  N   UNL     1      40.523 -13.971   1.583  1.00  0.00    -0.327 N 
HETATM   19  C   UNL     1      41.362 -12.910   1.305  1.00  0.00     0.224 C 
HETATM   20  O   UNL     1      42.545 -12.816   1.617  1.00  0.00    -0.273 OA
HETATM   21  H   UNL     1      39.528 -13.821   1.447  1.00  0.00     0.169 HD
BRANCH  19  22
HETATM   22  C   UNL     1      40.714 -11.814   0.481  1.00  0.00     0.134 C 
BRANCH  22  23
HETATM   23  C   UNL     1      40.816 -11.993  -1.054  1.00  0.00     0.044 C 
HETATM   24  C   UNL     1      42.032 -12.939  -1.321  1.00  0.00     0.032 C 
HETATM   25  C   UNL     1      42.388 -13.069  -2.800  1.00  0.00     0.002 C 
HETATM   26  C   UNL     1      42.694 -11.709  -3.410  1.00  0.00     0.000 C 
HETATM   27  C   UNL     1      41.541 -10.736  -3.201  1.00  0.00     0.002 C 
HETATM   28  C   UNL     1      41.148 -10.626  -1.725  1.00  0.00     0.032 C 
BRANCH  23  29
HETATM   29  N   UNL     1      39.555 -12.608  -1.536  1.00  0.00    -0.356 N 
HETATM   30  C   UNL     1      38.450 -11.903  -1.968  1.00  0.00     0.091 A 
HETATM   31  C   UNL     1      37.498 -12.796  -2.408  1.00  0.00     0.019 A 
HETATM   32  C   UNL     1      38.048 -14.086  -2.278  1.00  0.00     0.019 A 
HETATM   33  C   UNL     1      39.318 -13.942  -1.764  1.00  0.00     0.091 A 
ENDBRANCH  23  29
ENDBRANCH  22  23
ENDBRANCH  19  22
ENDBRANCH   1  18
TORSDOF 4
ENDMDL
MODEL 9
REMARK VINA RESULT:      -8.2      2.730      9.316
REMARK  4 active torsions:
REMARK  status: ('A' for Active; 'I' for Inactive)
REMARK    1  A    between atoms: N_3  and  C_4 
REMARK    2  A    between atoms: C_4  and  C_5 
REMARK    3  A    between atoms: C_5  and  C_6 
REMARK       I    between atoms: C_6  and  N_7 
REMARK    4  A    between atoms: N_7  and  C_8 
ROOT
HETATM    1  C   UNL     1      41.384 -14.176  -0.873  1.00  0.00     0.035 A 
HETATM    2  C   UNL     1      41.975 -12.918  -0.761  1.00  0.00     0.049 A 
HETATM    3  C   UNL     1      42.321 -12.172  -1.904  1.00  0.00     0.061 A 
HETATM    4  C   UNL     1      42.079 -12.697  -3.180  1.00  0.00     0.050 A 
HETATM    5  N   UNL     1      42.232 -12.009  -4.396  1.00  0.00    -0.324 N 
HETATM    6  C   UNL     1      42.032 -10.672  -4.632  1.00  0.00     0.245 C 
HETATM    7  O   UNL     1      41.990 -10.292  -5.804  1.00  0.00    -0.271 OA
HETATM    8  C   UNL     1      41.677  -9.770  -3.450  1.00  0.00     0.180 C 
HETATM    9  N   UNL     1      42.732  -9.815  -2.451  1.00  0.00    -0.334 N 
HETATM   10  C   UNL     1      43.020 -10.890  -1.648  1.00  0.00     0.256 C 
HETATM   11  O   UNL     1      43.818 -10.822  -0.717  1.00  0.00    -0.267 OA
HETATM   12  C   UNL     1      41.575  -8.287  -3.831  1.00  0.00     0.037 C 
HETATM   13  C   UNL     1      42.135  -7.565  -2.612  1.00  0.00     0.022 C 
HETATM   14  C   UNL     1      43.249  -8.491  -2.160  1.00  0.00     0.127 C 
HETATM   15  C   UNL     1      41.611 -14.015  -3.283  1.00  0.00     0.033 A 
HETATM   16  C   UNL     1      41.252 -14.741  -2.143  1.00  0.00     0.032 A 
HETATM   17  H   UNL     1      42.242 -12.544  -5.256  1.00  0.00     0.169 HD
ENDROOT
BRANCH   1  18
HETATM   18  N   UNL     1      40.824 -14.881   0.213  1.00  0.00    -0.327 N 
HETATM   19  C   UNL     1      41.348 -16.000   0.828  1.00  0.00     0.224 C 
HETATM   20  O   UNL     1      42.204 -16.750   0.367  1.00  0.00    -0.273 OA
HETATM   21  H   UNL     1      39.984 -14.481   0.621  1.00  0.00     0.169 HD
BRANCH  19  22
HETATM   22  C   UNL     1      40.819 -16.237   2.229  1.00  0.00     0.134 C 
BRANCH  22  23
HETATM   23  C   UNL     1      41.722 -15.718   3.374  1.00  0.00     0.044 C 
HETATM   24  C   UNL     1      40.783 -15.022   4.412  1.00  0.00     0.032 C 
HETATM   25  C   UNL     1      41.536 -14.286   5.518  1.00  0.00     0.002 C 
HETATM   26  C   UNL     1      42.471 -13.236   4.937  1.00  0.00     0.000 C 
HETATM   27  C   UNL     1      43.430 -13.847   3.924  1.00  0.00     0.002 C 
HETATM   28  C   UNL     1      42.689 -14.621   2.830  1.00  0.00     0.032 C 
BRANCH  23  29
HETATM   29  N   UNL     1      42.414 -16.878   3.985  1.00  0.00    -0.356 N 
HETATM   30  C   UNL     1      41.869 -17.701   4.950  1.00  0.00     0.091 A 
HETATM   31  C   UNL     1      42.763 -18.711   5.228  1.00  0.00     0.019 A 
HETATM   32  C   UNL     1      43.875 -18.526   4.384  1.00  0.00     0.019 A 
HETATM   33  C   UNL     1      43.625 -17.410   3.615  1.00  0.00     0.091 A 
ENDBRANCH  23  29
ENDBRANCH  22  23
ENDBRANCH  19  22
ENDBRANCH   1  18
TORSDOF 4
ENDMDL
MODEL 10
REMARK VINA RESULT:      -8.1      2.004      3.761
REMARK  4 active torsions:
REMARK  status: ('A' for Active; 'I' for Inactive)
REMARK    1  A    between atoms: N_3  and  C_4 
REMARK    2  A    between atoms: C_4  and  C_5 
REMARK    3  A    between atoms: C_5  and  C_6 
REMARK       I    between atoms: C_6  and  N_7 
REMARK    4  A    between atoms: N_7  and  C_8 
ROOT
HETATM    1  C   UNL     1      41.292 -16.192   3.303  1.00  0.00     0.035 A 
HETATM    2  C   UNL     1      42.179 -17.257   3.155  1.00  0.00     0.049 A 
HETATM    3  C   UNL     1      43.028 -17.648   4.207  1.00  0.00     0.061 A 
HETATM    4  C   UNL     1      42.996 -16.956   5.425  1.00  0.00     0.050 A 
HETATM    5  N   UNL     1      43.672 -17.327   6.601  1.00  0.00    -0.324 N 
HETATM    6  C   UNL     1      43.954 -18.596   7.040  1.00  0.00     0.245 C 
HETATM    7  O   UNL     1      44.346 -18.732   8.201  1.00  0.00    -0.271 OA
HETATM    8  C   UNL     1      43.578 -19.776   6.143  1.00  0.00     0.180 C 
HETATM    9  N   UNL     1      44.259 -19.668   4.864  1.00  0.00    -0.334 N 
HETATM   10  C   UNL     1      43.983 -18.739   3.892  1.00  0.00     0.256 C 
HETATM   11  O   UNL     1      44.481 -18.789   2.771  1.00  0.00    -0.267 OA
HETATM   12  C   UNL     1      44.032 -21.129   6.705  1.00  0.00     0.037 C 
HETATM   13  C   UNL     1      44.431 -21.917   5.463  1.00  0.00     0.022 C 
HETATM   14  C   UNL     1      45.050 -20.851   4.578  1.00  0.00     0.127 C 
HETATM   15  C   UNL     1      42.201 -15.805   5.519  1.00  0.00     0.033 A 
HETATM   16  C   UNL     1      41.346 -15.435   4.475  1.00  0.00     0.032 A 
HETATM   17  H   UNL     1      43.754 -16.645   7.346  1.00  0.00     0.169 HD
ENDROOT
BRANCH   1  18
HETATM   18  N   UNL     1      40.274 -15.882   2.377  1.00  0.00    -0.327 N 
HETATM   19  C   UNL     1      39.578 -14.694   2.284  1.00  0.00     0.224 C 
HETATM   20  O   UNL     1      39.495 -13.829   3.152  1.00  0.00    -0.273 OA
HETATM   21  H   UNL     1      40.085 -16.585   1.669  1.00  0.00     0.169 HD
BRANCH  19  22
HETATM   22  C   UNL     1      38.924 -14.468   0.935  1.00  0.00     0.134 C 
BRANCH  22  23
HETATM   23  C   UNL     1      39.746 -13.618  -0.064  1.00  0.00     0.044 C 
HETATM   24  C   UNL     1      41.125 -13.327   0.613  1.00  0.00     0.032 C 
HETATM   25  C   UNL     1      41.990 -12.338  -0.164  1.00  0.00     0.002 C 
HETATM   26  C   UNL     1      41.264 -11.015  -0.362  1.00  0.00     0.000 C 
HETATM   27  C   UNL     1      39.913 -11.220  -1.035  1.00  0.00     0.002 C 
HETATM   28  C   UNL     1      39.050 -12.240  -0.286  1.00  0.00     0.032 C 
BRANCH  23  29
HETATM   29  N   UNL     1      39.927 -14.405  -1.308  1.00  0.00    -0.356 N 
HETATM   30  C   UNL     1      39.150 -14.278  -2.441  1.00  0.00     0.091 A 
HETATM   31  C   UNL     1      39.649 -15.111  -3.418  1.00  0.00     0.019 A 
HETATM   32  C   UNL     1      40.789 -15.741  -2.883  1.00  0.00     0.019 A 
HETATM   33  C   UNL     1      40.952 -15.274  -1.598  1.00  0.00     0.091 A 
ENDBRANCH  23  29
ENDBRANCH  22  23
ENDBRANCH  19  22
ENDBRANCH   1  18
TORSDOF 4
ENDMDL
