MODEL 1
REMARK VINA RESULT:      -8.9      0.000      0.000
REMARK  3 active torsions:
REMARK  status: ('A' for Active; 'I' for Inactive)
REMARK    1  A    between atoms: C_3  and  N_4 
REMARK       I    between atoms: N_4  and  C_5 
REMARK    2  A    between atoms: C_5  and  C_6 
REMARK    3  A    between atoms: C_6  and  N_7 
ROOT
HETATM    1  N   UNL     1      43.501 -16.135   2.883  1.00  0.00    -0.224 N 
HETATM    2  N   UNL     1      43.565 -16.887   1.690  1.00  0.00    -0.180 NA
HETATM    3  C   UNL     1      43.819 -18.163   1.741  1.00  0.00     0.153 A 
HETATM    4  C   UNL     1      44.014 -18.823   2.998  1.00  0.00     0.028 A 
HETATM    5  C   UNL     1      43.926 -18.088   4.154  1.00  0.00     0.116 A 
HETATM    6  N   UNL     1      44.130 -18.927   5.212  1.00  0.00    -0.350 N 
HETATM    7  H   UNL     1      44.109 -18.646   6.184  1.00  0.00     0.166 HD
HETATM    8  C   UNL     1      44.342 -20.211   4.750  1.00  0.00     0.044 A 
HETATM    9  C   UNL     1      44.276 -20.171   3.352  1.00  0.00     0.005 A 
HETATM   10  C   UNL     1      44.580 -21.394   5.459  1.00  0.00     0.030 A 
HETATM   11  C   UNL     1      44.751 -22.569   4.719  1.00  0.00     0.002 A 
HETATM   12  C   UNL     1      44.689 -22.559   3.327  1.00  0.00     0.001 A 
HETATM   13  C   UNL     1      44.453 -21.368   2.630  1.00  0.00     0.014 A 
HETATM   14  C   UNL     1      43.638 -16.684   4.174  1.00  0.00     0.291 A 
HETATM   15  O   UNL     1      43.531 -16.042   5.212  1.00  0.00    -0.264 OA
ENDROOT
BRANCH   1  16
HETATM   16  C   UNL     1      43.002 -14.777   2.757  1.00  0.00     0.258 C 
BRANCH  16  17
HETATM   17  C   UNL     1      41.692 -14.466   2.013  1.00  0.00     0.244 C 
HETATM   18  N   UNL     1      40.495 -14.310   2.719  1.00  0.00    -0.320 N 
HETATM   19  C   UNL     1      40.255 -14.871   4.041  1.00  0.00     0.159 C 
HETATM   20  O   UNL     1      41.784 -14.189   0.807  1.00  0.00    -0.271 OA
BRANCH  18  21
HETATM   21  C   UNL     1      39.364 -13.730   2.058  1.00  0.00     0.042 A 
HETATM   22  C   UNL     1      39.097 -12.346   2.117  1.00  0.00    -0.035 A 
HETATM   23  C   UNL     1      39.941 -11.374   2.899  1.00  0.00     0.050 C 
HETATM   24  C   UNL     1      37.982 -11.835   1.429  1.00  0.00     0.009 A 
HETATM   25  C   UNL     1      37.120 -12.678   0.729  1.00  0.00     0.001 A 
HETATM   26  C   UNL     1      37.364 -14.048   0.703  1.00  0.00     0.002 A 
HETATM   27  C   UNL     1      38.475 -14.570   1.366  1.00  0.00     0.030 A 
ENDBRANCH  18  21
ENDBRANCH  16  17
ENDBRANCH   1  16
TORSDOF 3
ENDMDL
MODEL 2
REMARK VINA RESULT:      -8.8      2.401      2.883
REMARK  3 active torsions:
REMARK  status: ('A' for Active; 'I' for Inactive)
REMARK    1  A    between atoms: C_3  and  N_4 
REMARK       I    between atoms: N_4  and  C_5 
REMARK    2  A    between atoms: C_5  and  C_6 
REMARK    3  A    between atoms: C_6  and  N_7 
ROOT
HETATM    1  N   UNL     1      42.960 -16.186   1.956  1.00  0.00    -0.224 N 
HETATM    2  N   UNL     1      43.219 -17.174   0.982  1.00  0.00    -0.180 NA
HETATM    3  C   UNL     1      43.610 -18.361   1.352  1.00  0.00     0.153 A 
HETATM    4  C   UNL     1      43.761 -18.685   2.739  1.00  0.00     0.028 A 
HETATM    5  C   UNL     1      43.483 -17.724   3.679  1.00  0.00     0.116 A 
HETATM    6  N   UNL     1      43.681 -18.265   4.917  1.00  0.00    -0.350 N 
HETATM    7  H   UNL     1      43.538 -17.776   5.791  1.00  0.00     0.166 HD
HETATM    8  C   UNL     1      44.079 -19.581   4.788  1.00  0.00     0.044 A 
HETATM    9  C   UNL     1      44.139 -19.871   3.420  1.00  0.00     0.005 A 
HETATM   10  C   UNL     1      44.383 -20.530   5.772  1.00  0.00     0.030 A 
HETATM   11  C   UNL     1      44.753 -21.810   5.345  1.00  0.00     0.002 A 
HETATM   12  C   UNL     1      44.819 -22.126   3.990  1.00  0.00     0.001 A 
HETATM   13  C   UNL     1      44.517 -21.166   3.016  1.00  0.00     0.014 A 
HETATM   14  C   UNL     1      43.037 -16.403   3.346  1.00  0.00     0.291 A 
HETATM   15  O   UNL     1      42.763 -15.561   4.193  1.00  0.00    -0.264 OA
ENDROOT
BRANCH   1  16
HETATM   16  C   UNL     1      42.324 -14.970   1.480  1.00  0.00     0.258 C 
BRANCH  16  17
HETATM   17  C   UNL     1      41.131 -15.012   0.509  1.00  0.00     0.244 C 
HETATM   18  N   UNL     1      41.190 -14.341  -0.717  1.00  0.00    -0.320 N 
HETATM   19  C   UNL     1      42.074 -13.215  -0.981  1.00  0.00     0.159 C 
HETATM   20  O   UNL     1      40.213 -15.800   0.782  1.00  0.00    -0.271 OA
BRANCH  18  21
HETATM   21  C   UNL     1      40.213 -14.634  -1.722  1.00  0.00     0.042 A 
HETATM   22  C   UNL     1      38.941 -14.025  -1.723  1.00  0.00    -0.035 A 
HETATM   23  C   UNL     1      38.487 -13.057  -0.662  1.00  0.00     0.050 C 
HETATM   24  C   UNL     1      38.033 -14.339  -2.751  1.00  0.00     0.009 A 
HETATM   25  C   UNL     1      38.358 -15.269  -3.738  1.00  0.00     0.001 A 
HETATM   26  C   UNL     1      39.599 -15.896  -3.714  1.00  0.00     0.002 A 
HETATM   27  C   UNL     1      40.518 -15.583  -2.712  1.00  0.00     0.030 A 
ENDBRANCH  18  21
ENDBRANCH  16  17
ENDBRANCH   1  16
TORSDOF 3
ENDMDL
MODEL 3
REMARK VINA RESULT:      -8.7      2.280      2.869
REMARK  3 active torsions:
REMARK  status: ('A' for Active; 'I' for Inactive)
REMARK    1  A    between atoms: C_3  and  N_4 
REMARK       I    between atoms: N_4  and  C_5 
REMARK    2  A    between atoms: C_5  and  C_6 
REMARK    3  A    between atoms: C_6  and  N_7 
ROOT
HETATM    1  N   UNL     1      42.726 -15.790   1.949  1.00  0.00    -0.224 N 
HETATM    2  N   UNL     1      42.585 -16.680   0.862  1.00  0.00    -0.180 NA
HETATM    3  C   UNL     1      42.935 -17.927   0.998  1.00  0.00     0.153 A 
HETATM    4  C   UNL     1      43.442 -18.417   2.246  1.00  0.00     0.028 A 
HETATM    5  C   UNL     1      43.550 -17.549   3.303  1.00  0.00     0.116 A 
HETATM    6  N   UNL     1      44.036 -18.239   4.377  1.00  0.00    -0.350 N 
HETATM    7  H   UNL     1      44.204 -17.841   5.292  1.00  0.00     0.166 HD
HETATM    8  C   UNL     1      44.236 -19.560   4.025  1.00  0.00     0.044 A 
HETATM    9  C   UNL     1      43.869 -19.697   2.681  1.00  0.00     0.005 A 
HETATM   10  C   UNL     1      44.704 -20.634   4.791  1.00  0.00     0.030 A 
HETATM   11  C   UNL     1      44.795 -21.882   4.168  1.00  0.00     0.002 A 
HETATM   12  C   UNL     1      44.436 -22.049   2.832  1.00  0.00     0.001 A 
HETATM   13  C   UNL     1      43.972 -20.965   2.076  1.00  0.00     0.014 A 
HETATM   14  C   UNL     1      43.174 -16.167   3.230  1.00  0.00     0.291 A 
HETATM   15  O   UNL     1      43.247 -15.407   4.188  1.00  0.00    -0.264 OA
ENDROOT
BRANCH   1  16
HETATM   16  C   UNL     1      42.115 -14.482   1.786  1.00  0.00     0.258 C 
BRANCH  16  17
HETATM   17  C   UNL     1      40.873 -14.277   0.901  1.00  0.00     0.244 C 
HETATM   18  N   UNL     1      40.975 -13.601  -0.319  1.00  0.00    -0.320 N 
HETATM   19  C   UNL     1      42.036 -12.655  -0.633  1.00  0.00     0.159 C 
HETATM   20  O   UNL     1      39.843 -14.884   1.231  1.00  0.00    -0.271 OA
BRANCH  18  21
HETATM   21  C   UNL     1      39.896 -13.682  -1.256  1.00  0.00     0.042 A 
HETATM   22  C   UNL     1      39.880 -14.643  -2.289  1.00  0.00    -0.035 A 
HETATM   23  C   UNL     1      40.996 -15.626  -2.522  1.00  0.00     0.050 C 
HETATM   24  C   UNL     1      38.780 -14.686  -3.166  1.00  0.00     0.009 A 
HETATM   25  C   UNL     1      37.733 -13.771  -3.051  1.00  0.00     0.001 A 
HETATM   26  C   UNL     1      37.768 -12.802  -2.054  1.00  0.00     0.002 A 
HETATM   27  C   UNL     1      38.844 -12.756  -1.166  1.00  0.00     0.030 A 
ENDBRANCH  18  21
ENDBRANCH  16  17
ENDBRANCH   1  16
TORSDOF 3
ENDMDL
MODEL 4
REMARK VINA RESULT:      -8.6      3.504      8.459
REMARK  3 active torsions:
REMARK  status: ('A' for Active; 'I' for Inactive)
REMARK    1  A    between atoms: C_3  and  N_4 
REMARK       I    between atoms: N_4  and  C_5 
REMARK    2  A    between atoms: C_5  and  C_6 
REMARK    3  A    between atoms: C_6  and  N_7 
ROOT
HETATM    1  N   UNL     1      41.690 -14.534   1.421  1.00  0.00    -0.224 N 
HETATM    2  N   UNL     1      41.333 -15.270   0.271  1.00  0.00    -0.180 NA
HETATM    3  C   UNL     1      41.371 -14.701  -0.900  1.00  0.00     0.153 A 
HETATM    4  C   UNL     1      41.793 -13.338  -1.040  1.00  0.00     0.028 A 
HETATM    5  C   UNL     1      42.162 -12.639   0.082  1.00  0.00     0.116 A 
HETATM    6  N   UNL     1      42.536 -11.383  -0.300  1.00  0.00    -0.350 N 
HETATM    7  H   UNL     1      42.864 -10.662   0.330  1.00  0.00     0.166 HD
HETATM    8  C   UNL     1      42.422 -11.263  -1.671  1.00  0.00     0.044 A 
HETATM    9  C   UNL     1      41.951 -12.486  -2.163  1.00  0.00     0.005 A 
HETATM   10  C   UNL     1      42.703 -10.174  -2.505  1.00  0.00     0.030 A 
HETATM   11  C   UNL     1      42.501 -10.342  -3.879  1.00  0.00     0.002 A 
HETATM   12  C   UNL     1      42.035 -11.549  -4.396  1.00  0.00     0.001 A 
HETATM   13  C   UNL     1      41.755 -12.629  -3.550  1.00  0.00     0.014 A 
HETATM   14  C   UNL     1      42.157 -13.205   1.399  1.00  0.00     0.291 A 
HETATM   15  O   UNL     1      42.516 -12.582   2.391  1.00  0.00    -0.264 OA
ENDROOT
BRANCH   1  16
HETATM   16  C   UNL     1      41.831 -15.297   2.650  1.00  0.00     0.258 C 
BRANCH  16  17
HETATM   17  C   UNL     1      42.788 -16.497   2.748  1.00  0.00     0.244 C 
HETATM   18  N   UNL     1      42.382 -17.680   3.373  1.00  0.00    -0.320 N 
HETATM   19  C   UNL     1      41.314 -17.747   4.360  1.00  0.00     0.159 C 
HETATM   20  O   UNL     1      43.845 -16.427   2.101  1.00  0.00    -0.271 OA
BRANCH  18  21
HETATM   21  C   UNL     1      43.157 -18.870   3.192  1.00  0.00     0.042 A 
HETATM   22  C   UNL     1      44.174 -19.240   4.098  1.00  0.00    -0.035 A 
HETATM   23  C   UNL     1      44.556 -18.412   5.295  1.00  0.00     0.050 C 
HETATM   24  C   UNL     1      44.886 -20.433   3.875  1.00  0.00     0.009 A 
HETATM   25  C   UNL     1      44.629 -21.226   2.757  1.00  0.00     0.001 A 
HETATM   26  C   UNL     1      43.653 -20.840   1.846  1.00  0.00     0.002 A 
HETATM   27  C   UNL     1      42.925 -19.669   2.060  1.00  0.00     0.030 A 
ENDBRANCH  18  21
ENDBRANCH  16  17
ENDBRANCH   1  16
TORSDOF 3
ENDMDL
MODEL 5
REMARK VINA RESULT:      -8.6      1.616      8.616
REMARK  3 active torsions:
REMARK  status: ('A' for Active; 'I' for Inactive)
REMARK    1  A    between atoms: C_3  and  N_4 
REMARK       I    between atoms: N_4  and  C_5 
REMARK    2  A    between atoms: C_5  and  C_6 
REMARK    3  A    between atoms: C_6  and  N_7 
ROOT
HETATM    1  N   UNL     1      41.145 -15.313   3.310  1.00  0.00    -0.224 N 
HETATM    2  N   UNL     1      40.444 -15.907   2.239  1.00  0.00    -0.180 NA
HETATM    3  C   UNL     1      39.483 -15.252   1.651  1.00  0.00     0.153 A 
HETATM    4  C   UNL     1      39.142 -13.922   2.063  1.00  0.00     0.028 A 
HETATM    5  C   UNL     1      39.847 -13.344   3.089  1.00  0.00     0.116 A 
HETATM    6  N   UNL     1      39.357 -12.086   3.290  1.00  0.00    -0.350 N 
HETATM    7  H   UNL     1      39.705 -11.434   3.982  1.00  0.00     0.166 HD
HETATM    8  C   UNL     1      38.340 -11.836   2.390  1.00  0.00     0.044 A 
HETATM    9  C   UNL     1      38.183 -12.984   1.604  1.00  0.00     0.005 A 
HETATM   10  C   UNL     1      37.558 -10.689   2.211  1.00  0.00     0.030 A 
HETATM   11  C   UNL     1      36.593 -10.714   1.199  1.00  0.00     0.002 A 
HETATM   12  C   UNL     1      36.416 -11.842   0.400  1.00  0.00     0.001 A 
HETATM   13  C   UNL     1      37.203 -12.985   0.592  1.00  0.00     0.014 A 
HETATM   14  C   UNL     1      40.922 -14.000   3.773  1.00  0.00     0.291 A 
HETATM   15  O   UNL     1      41.565 -13.465   4.668  1.00  0.00    -0.264 OA
ENDROOT
BRANCH   1  16
HETATM   16  C   UNL     1      42.333 -16.014   3.764  1.00  0.00     0.258 C 
BRANCH  16  17
HETATM   17  C   UNL     1      42.489 -17.535   3.584  1.00  0.00     0.244 C 
HETATM   18  N   UNL     1      43.523 -18.054   2.800  1.00  0.00    -0.320 N 
HETATM   19  C   UNL     1      44.196 -17.306   1.748  1.00  0.00     0.159 C 
HETATM   20  O   UNL     1      41.779 -18.259   4.299  1.00  0.00    -0.271 OA
BRANCH  18  21
HETATM   21  C   UNL     1      43.835 -19.449   2.888  1.00  0.00     0.042 A 
HETATM   22  C   UNL     1      44.533 -19.987   3.990  1.00  0.00    -0.035 A 
HETATM   23  C   UNL     1      45.040 -19.152   5.136  1.00  0.00     0.050 C 
HETATM   24  C   UNL     1      44.789 -21.370   4.028  1.00  0.00     0.009 A 
HETATM   25  C   UNL     1      44.401 -22.202   2.978  1.00  0.00     0.001 A 
HETATM   26  C   UNL     1      43.746 -21.664   1.876  1.00  0.00     0.002 A 
HETATM   27  C   UNL     1      43.468 -20.297   1.830  1.00  0.00     0.030 A 
ENDBRANCH  18  21
ENDBRANCH  16  17
ENDBRANCH   1  16
TORSDOF 3
ENDMDL
MODEL 6
REMARK VINA RESULT:      -8.5      4.644      8.153
REMARK  3 active torsions:
REMARK  status: ('A' for Active; 'I' for Inactive)
REMARK    1  A    between atoms: C_3  and  N_4 
REMARK       I    between atoms: N_4  and  C_5 
REMARK    2  A    between atoms: C_5  and  C_6 
REMARK    3  A    between atoms: C_6  and  N_7 
ROOT
HETATM    1  N   UNL     1      43.169 -14.026   5.388  1.00  0.00    -0.224 N 
HETATM    2  N   UNL     1      44.385 -14.488   5.936  1.00  0.00    -0.180 NA
HETATM    3  C   UNL     1      44.858 -13.937   7.017  1.00  0.00     0.153 A 
HETATM    4  C   UNL     1      44.148 -12.880   7.675  1.00  0.00     0.028 A 
HETATM    5  C   UNL     1      42.954 -12.456   7.148  1.00  0.00     0.116 A 
HETATM    6  N   UNL     1      42.461 -11.463   7.945  1.00  0.00    -0.350 N 
HETATM    7  H   UNL     1      41.586 -10.979   7.792  1.00  0.00     0.166 HD
HETATM    8  C   UNL     1      43.328 -11.244   8.999  1.00  0.00     0.044 A 
HETATM    9  C   UNL     1      44.403 -12.127   8.849  1.00  0.00     0.005 A 
HETATM   10  C   UNL     1      43.237 -10.343  10.067  1.00  0.00     0.030 A 
HETATM   11  C   UNL     1      44.271 -10.348  11.008  1.00  0.00     0.002 A 
HETATM   12  C   UNL     1      45.353 -11.216  10.884  1.00  0.00     0.001 A 
HETATM   13  C   UNL     1      45.433 -12.111   9.809  1.00  0.00     0.014 A 
HETATM   14  C   UNL     1      42.367 -13.023   5.969  1.00  0.00     0.291 A 
HETATM   15  O   UNL     1      41.286 -12.658   5.522  1.00  0.00    -0.264 OA
ENDROOT
BRANCH   1  16
HETATM   16  C   UNL     1      42.604 -14.830   4.318  1.00  0.00     0.258 C 
BRANCH  16  17
HETATM   17  C   UNL     1      43.299 -16.108   3.817  1.00  0.00     0.244 C 
HETATM   18  N   UNL     1      42.927 -17.360   4.318  1.00  0.00    -0.320 N 
HETATM   19  C   UNL     1      42.276 -17.556   5.605  1.00  0.00     0.159 C 
HETATM   20  O   UNL     1      44.058 -15.990   2.843  1.00  0.00    -0.271 OA
BRANCH  18  21
HETATM   21  C   UNL     1      43.359 -18.542   3.636  1.00  0.00     0.042 A 
HETATM   22  C   UNL     1      42.794 -18.939   2.405  1.00  0.00    -0.035 A 
HETATM   23  C   UNL     1      41.677 -18.190   1.728  1.00  0.00     0.050 C 
HETATM   24  C   UNL     1      43.278 -20.100   1.774  1.00  0.00     0.009 A 
HETATM   25  C   UNL     1      44.272 -20.879   2.365  1.00  0.00     0.001 A 
HETATM   26  C   UNL     1      44.801 -20.507   3.596  1.00  0.00     0.002 A 
HETATM   27  C   UNL     1      44.345 -19.349   4.228  1.00  0.00     0.030 A 
ENDBRANCH  18  21
ENDBRANCH  16  17
ENDBRANCH   1  16
TORSDOF 3
ENDMDL
MODEL 7
REMARK VINA RESULT:      -8.4      1.970      8.396
REMARK  3 active torsions:
REMARK  status: ('A' for Active; 'I' for Inactive)
REMARK    1  A    between atoms: C_3  and  N_4 
REMARK       I    between atoms: N_4  and  C_5 
REMARK    2  A    between atoms: C_5  and  C_6 
REMARK    3  A    between atoms: C_6  and  N_7 
ROOT
HETATM    1  N   UNL     1      41.438 -15.217   3.005  1.00  0.00    -0.224 N 
HETATM    2  N   UNL     1      40.167 -15.751   2.703  1.00  0.00    -0.180 NA
HETATM    3  C   UNL     1      39.461 -15.235   1.738  1.00  0.00     0.153 A 
HETATM    4  C   UNL     1      39.967 -14.143   0.960  1.00  0.00     0.028 A 
HETATM    5  C   UNL     1      41.215 -13.648   1.245  1.00  0.00     0.116 A 
HETATM    6  N   UNL     1      41.483 -12.634   0.371  1.00  0.00    -0.350 N 
HETATM    7  H   UNL     1      42.342 -12.100   0.353  1.00  0.00     0.166 HD
HETATM    8  C   UNL     1      40.417 -12.472  -0.491  1.00  0.00     0.044 A 
HETATM    9  C   UNL     1      39.444 -13.414  -0.138  1.00  0.00     0.005 A 
HETATM   10  C   UNL     1      40.246 -11.574  -1.552  1.00  0.00     0.030 A 
HETATM   11  C   UNL     1      39.049 -11.644  -2.273  1.00  0.00     0.002 A 
HETATM   12  C   UNL     1      38.064 -12.573  -1.945  1.00  0.00     0.001 A 
HETATM   13  C   UNL     1      38.247 -13.463  -0.879  1.00  0.00     0.014 A 
HETATM   14  C   UNL     1      42.052 -14.173   2.284  1.00  0.00     0.291 A 
HETATM   15  O   UNL     1      43.176 -13.743   2.512  1.00  0.00    -0.264 OA
ENDROOT
BRANCH   1  16
HETATM   16  C   UNL     1      42.247 -15.979   3.941  1.00  0.00     0.258 C 
BRANCH  16  17
HETATM   17  C   UNL     1      42.447 -17.497   3.782  1.00  0.00     0.244 C 
HETATM   18  N   UNL     1      43.470 -17.996   2.969  1.00  0.00    -0.320 N 
HETATM   19  C   UNL     1      44.079 -17.244   1.881  1.00  0.00     0.159 C 
HETATM   20  O   UNL     1      41.788 -18.232   4.534  1.00  0.00    -0.271 OA
BRANCH  18  21
HETATM   21  C   UNL     1      43.831 -19.378   3.069  1.00  0.00     0.042 A 
HETATM   22  C   UNL     1      44.543 -19.882   4.179  1.00  0.00    -0.035 A 
HETATM   23  C   UNL     1      45.013 -19.020   5.320  1.00  0.00     0.050 C 
HETATM   24  C   UNL     1      44.849 -21.254   4.228  1.00  0.00     0.009 A 
HETATM   25  C   UNL     1      44.497 -22.108   3.183  1.00  0.00     0.001 A 
HETATM   26  C   UNL     1      43.828 -21.602   2.073  1.00  0.00     0.002 A 
HETATM   27  C   UNL     1      43.501 -20.246   2.016  1.00  0.00     0.030 A 
ENDBRANCH  18  21
ENDBRANCH  16  17
ENDBRANCH   1  16
TORSDOF 3
ENDMDL
MODEL 8
REMARK VINA RESULT:      -8.3      1.764      2.989
REMARK  3 active torsions:
REMARK  status: ('A' for Active; 'I' for Inactive)
REMARK    1  A    between atoms: C_3  and  N_4 
REMARK       I    between atoms: N_4  and  C_5 
REMARK    2  A    between atoms: C_5  and  C_6 
REMARK    3  A    between atoms: C_6  and  N_7 
ROOT
HETATM    1  N   UNL     1      43.212 -16.463   2.637  1.00  0.00    -0.224 N 
HETATM    2  N   UNL     1      43.510 -16.544   4.014  1.00  0.00    -0.180 NA
HETATM    3  C   UNL     1      43.845 -17.689   4.538  1.00  0.00     0.153 A 
HETATM    4  C   UNL     1      43.939 -18.868   3.729  1.00  0.00     0.028 A 
HETATM    5  C   UNL     1      43.672 -18.773   2.385  1.00  0.00     0.116 A 
HETATM    6  N   UNL     1      43.840 -20.007   1.827  1.00  0.00    -0.350 N 
HETATM    7  H   UNL     1      43.718 -20.218   0.845  1.00  0.00     0.166 HD
HETATM    8  C   UNL     1      44.226 -20.907   2.801  1.00  0.00     0.044 A 
HETATM    9  C   UNL     1      44.294 -20.211   4.013  1.00  0.00     0.005 A 
HETATM   10  C   UNL     1      44.524 -22.271   2.699  1.00  0.00     0.030 A 
HETATM   11  C   UNL     1      44.904 -22.940   3.866  1.00  0.00     0.002 A 
HETATM   12  C   UNL     1      44.981 -22.272   5.087  1.00  0.00     0.001 A 
HETATM   13  C   UNL     1      44.678 -20.908   5.175  1.00  0.00     0.014 A 
HETATM   14  C   UNL     1      43.309 -17.546   1.740  1.00  0.00     0.291 A 
HETATM   15  O   UNL     1      43.101 -17.464   0.535  1.00  0.00    -0.264 OA
ENDROOT
BRANCH   1  16
HETATM   16  C   UNL     1      43.061 -15.125   2.093  1.00  0.00     0.258 C 
BRANCH  16  17
HETATM   17  C   UNL     1      42.260 -14.040   2.834  1.00  0.00     0.244 C 
HETATM   18  N   UNL     1      40.887 -14.197   3.052  1.00  0.00    -0.320 N 
HETATM   19  C   UNL     1      40.033 -15.058   2.246  1.00  0.00     0.159 C 
HETATM   20  O   UNL     1      42.910 -13.130   3.372  1.00  0.00    -0.271 OA
BRANCH  18  21
HETATM   21  C   UNL     1      40.226 -13.342   3.991  1.00  0.00     0.042 A 
HETATM   22  C   UNL     1      40.110 -13.684   5.355  1.00  0.00    -0.035 A 
HETATM   23  C   UNL     1      40.628 -14.975   5.931  1.00  0.00     0.050 C 
HETATM   24  C   UNL     1      39.467 -12.790   6.231  1.00  0.00     0.009 A 
HETATM   25  C   UNL     1      38.911 -11.599   5.764  1.00  0.00     0.001 A 
HETATM   26  C   UNL     1      38.994 -11.282   4.412  1.00  0.00     0.002 A 
HETATM   27  C   UNL     1      39.643 -12.149   3.532  1.00  0.00     0.030 A 
ENDBRANCH  18  21
ENDBRANCH  16  17
ENDBRANCH   1  16
TORSDOF 3
ENDMDL
MODEL 9
REMARK VINA RESULT:      -8.2      1.227      1.810
REMARK  3 active torsions:
REMARK  status: ('A' for Active; 'I' for Inactive)
REMARK    1  A    between atoms: C_3  and  N_4 
REMARK       I    between atoms: N_4  and  C_5 
REMARK    2  A    between atoms: C_5  and  C_6 
REMARK    3  A    between atoms: C_6  and  N_7 
ROOT
HETATM    1  N   UNL     1      42.993 -16.158   2.897  1.00  0.00    -0.224 N 
HETATM    2  N   UNL     1      43.349 -16.322   4.253  1.00  0.00    -0.180 NA
HETATM    3  C   UNL     1      43.718 -17.492   4.688  1.00  0.00     0.153 A 
HETATM    4  C   UNL     1      43.791 -18.616   3.802  1.00  0.00     0.028 A 
HETATM    5  C   UNL     1      43.467 -18.440   2.480  1.00  0.00     0.116 A 
HETATM    6  N   UNL     1      43.624 -19.634   1.837  1.00  0.00    -0.350 N 
HETATM    7  H   UNL     1      43.463 -19.785   0.850  1.00  0.00     0.166 HD
HETATM    8  C   UNL     1      44.060 -20.589   2.735  1.00  0.00     0.044 A 
HETATM    9  C   UNL     1      44.171 -19.970   3.986  1.00  0.00     0.005 A 
HETATM   10  C   UNL     1      44.368 -21.940   2.534  1.00  0.00     0.030 A 
HETATM   11  C   UNL     1      44.803 -22.677   3.640  1.00  0.00     0.002 A 
HETATM   12  C   UNL     1      44.925 -22.086   4.896  1.00  0.00     0.001 A 
HETATM   13  C   UNL     1      44.611 -20.734   5.084  1.00  0.00     0.014 A 
HETATM   14  C   UNL     1      43.064 -17.179   1.929  1.00  0.00     0.291 A 
HETATM   15  O   UNL     1      42.805 -17.025   0.742  1.00  0.00    -0.264 OA
ENDROOT
BRANCH   1  16
HETATM   16  C   UNL     1      42.806 -14.789   2.446  1.00  0.00     0.258 C 
BRANCH  16  17
HETATM   17  C   UNL     1      41.499 -14.335   1.773  1.00  0.00     0.244 C 
HETATM   18  N   UNL     1      40.331 -14.178   2.525  1.00  0.00    -0.320 N 
HETATM   19  C   UNL     1      40.090 -14.846   3.796  1.00  0.00     0.159 C 
HETATM   20  O   UNL     1      41.578 -13.951   0.596  1.00  0.00    -0.271 OA
BRANCH  18  21
HETATM   21  C   UNL     1      39.221 -13.475   1.956  1.00  0.00     0.042 A 
HETATM   22  C   UNL     1      39.022 -12.096   2.177  1.00  0.00    -0.035 A 
HETATM   23  C   UNL     1      39.919 -11.260   3.050  1.00  0.00     0.050 C 
HETATM   24  C   UNL     1      37.924 -11.458   1.571  1.00  0.00     0.009 A 
HETATM   25  C   UNL     1      37.014 -12.175   0.794  1.00  0.00     0.001 A 
HETATM   26  C   UNL     1      37.192 -13.542   0.607  1.00  0.00     0.002 A 
HETATM   27  C   UNL     1      38.285 -14.187   1.187  1.00  0.00     0.030 A 
ENDBRANCH  18  21
ENDBRANCH  16  17
ENDBRANCH   1  16
TORSDOF 3
ENDMDL
MODEL 10
REMARK VINA RESULT:      -8.2      2.457      8.527
REMARK  3 active torsions:
REMARK  status: ('A' for Active; 'I' for Inactive)
REMARK    1  A    between atoms: C_3  and  N_4 
REMARK       I    between atoms: N_4  and  C_5 
REMARK    2  A    between atoms: C_5  and  C_6 
REMARK    3  A    between atoms: C_6  and  N_7 
ROOT
HETATM    1  N   UNL     1      41.699 -14.584   1.880  1.00  0.00    -0.224 N 
HETATM    2  N   UNL     1      42.354 -13.401   1.476  1.00  0.00    -0.180 NA
HETATM    3  C   UNL     1      41.864 -12.690   0.502  1.00  0.00     0.153 A 
HETATM    4  C   UNL     1      40.651 -13.080  -0.154  1.00  0.00     0.028 A 
HETATM    5  C   UNL     1      40.008 -14.219   0.263  1.00  0.00     0.116 A 
HETATM    6  N   UNL     1      38.881 -14.376  -0.491  1.00  0.00    -0.350 N 
HETATM    7  H   UNL     1      38.216 -15.131  -0.385  1.00  0.00     0.166 HD
HETATM    8  C   UNL     1      38.780 -13.336  -1.394  1.00  0.00     0.044 A 
HETATM    9  C   UNL     1      39.889 -12.504  -1.203  1.00  0.00     0.005 A 
HETATM   10  C   UNL     1      37.797 -13.070  -2.354  1.00  0.00     0.030 A 
HETATM   11  C   UNL     1      37.949 -11.921  -3.136  1.00  0.00     0.002 A 
HETATM   12  C   UNL     1      39.042 -11.073  -2.966  1.00  0.00     0.001 A 
HETATM   13  C   UNL     1      40.020 -11.353  -2.004  1.00  0.00     0.014 A 
HETATM   14  C   UNL     1      40.483 -15.043   1.336  1.00  0.00     0.291 A 
HETATM   15  O   UNL     1      39.887 -16.042   1.721  1.00  0.00    -0.264 OA
ENDROOT
BRANCH   1  16
HETATM   16  C   UNL     1      42.184 -15.197   3.105  1.00  0.00     0.258 C 
BRANCH  16  17
HETATM   17  C   UNL     1      43.063 -16.460   3.081  1.00  0.00     0.244 C 
HETATM   18  N   UNL     1      42.604 -17.655   3.644  1.00  0.00    -0.320 N 
HETATM   19  C   UNL     1      41.575 -17.722   4.672  1.00  0.00     0.159 C 
HETATM   20  O   UNL     1      44.095 -16.412   2.393  1.00  0.00    -0.271 OA
BRANCH  18  21
HETATM   21  C   UNL     1      43.291 -18.876   3.350  1.00  0.00     0.042 A 
HETATM   22  C   UNL     1      44.307 -19.378   4.190  1.00  0.00    -0.035 A 
HETATM   23  C   UNL     1      44.781 -18.668   5.431  1.00  0.00     0.050 C 
HETATM   24  C   UNL     1      44.930 -20.595   3.858  1.00  0.00     0.009 A 
HETATM   25  C   UNL     1      44.586 -21.285   2.695  1.00  0.00     0.001 A 
HETATM   26  C   UNL     1      43.611 -20.769   1.849  1.00  0.00     0.002 A 
HETATM   27  C   UNL     1      42.971 -19.571   2.173  1.00  0.00     0.030 A 
ENDBRANCH  18  21
ENDBRANCH  16  17
ENDBRANCH   1  16
TORSDOF 3
ENDMDL
