MODEL 1
REMARK VINA RESULT:      -8.8      0.000      0.000
REMARK  6 active torsions:
REMARK  status: ('A' for Active; 'I' for Inactive)
REMARK    1  A    between atoms: C_2  and  O_3 
REMARK    2  A    between atoms: O_3  and  C_4 
REMARK    3  A    between atoms: C_7  and  C_8 
REMARK    4  A    between atoms: C_8  and  C_9 
REMARK       I    between atoms: C_9  and  N_10 
REMARK    5  A    between atoms: N_13  and  C_14 
REMARK    6  A    between atoms: C_18  and  C_19 
ROOT
HETATM    1  C   UNL     1      40.112 -10.808   7.372  1.00  0.00     0.224 C 
HETATM    2  N   UNL     1      40.552 -11.775   6.478  1.00  0.00    -0.349 N 
HETATM    3  C   UNL     1      39.759 -13.010   6.358  1.00  0.00     0.145 C 
HETATM    4  C   UNL     1      39.842 -13.638   4.957  1.00  0.00     0.144 C 
HETATM    5  N   UNL     1      41.249 -13.800   4.542  1.00  0.00    -0.363 N 
HETATM    6  C   UNL     1      41.986 -12.524   4.553  1.00  0.00     0.144 C 
HETATM    7  C   UNL     1      41.921 -11.861   5.946  1.00  0.00     0.145 C 
HETATM    8  O   UNL     1      39.007 -10.887   7.919  1.00  0.00    -0.273 OA
ENDROOT
BRANCH   5   9
HETATM    9  C   UNL     1      41.860 -15.020   4.598  1.00  0.00     0.122 A 
HETATM   10  N   UNL     1      42.538 -15.479   5.698  1.00  0.00    -0.262 N 
HETATM   11  H   UNL     1      42.679 -15.004   6.579  1.00  0.00     0.191 HD
HETATM   12  N   UNL     1      43.094 -16.690   5.550  1.00  0.00    -0.173 NA
HETATM   13  C   UNL     1      42.816 -17.037   4.283  1.00  0.00     0.090 A 
HETATM   14  C   UNL     1      42.033 -16.021   3.663  1.00  0.00     0.084 A 
BRANCH  13  15
HETATM   15  C   UNL     1      43.313 -18.293   3.705  1.00  0.00    -0.005 A 
HETATM   16  C   UNL     1      42.867 -18.717   2.441  1.00  0.00     0.015 A 
HETATM   17  C   UNL     1      43.312 -19.921   1.884  1.00  0.00     0.024 A 
HETATM   18  C   UNL     1      44.210 -20.716   2.589  1.00  0.00     0.034 A 
HETATM   19 CL   UNL     1      44.754 -22.201   1.913  1.00  0.00    -0.084 Cl
HETATM   20  C   UNL     1      44.669 -20.315   3.841  1.00  0.00     0.024 A 
HETATM   21  C   UNL     1      44.223 -19.109   4.396  1.00  0.00     0.015 A 
ENDBRANCH  13  15
ENDBRANCH   5   9
BRANCH   1  22
HETATM   22  C   UNL     1      41.011  -9.616   7.670  1.00  0.00     0.141 C 
BRANCH  22  23
HETATM   23  C   UNL     1      41.705  -9.671   9.012  1.00  0.00    -0.049 A 
HETATM   24  C   UNL     1      41.274  -8.879  10.085  1.00  0.00     0.010 A 
HETATM   25  C   UNL     1      41.872  -8.989  11.346  1.00  0.00     0.037 A 
HETATM   26  C   UNL     1      42.899  -9.907  11.557  1.00  0.00     0.068 A 
HETATM   27  C   UNL     1      43.340 -10.692  10.491  1.00  0.00     0.037 A 
HETATM   28  C   UNL     1      42.743 -10.586   9.231  1.00  0.00     0.010 A 
BRANCH  26  29
HETATM   29  O   UNL     1      43.546 -10.130  12.741  1.00  0.00    -0.352 OA
BRANCH  29  30
HETATM   30  C   UNL     1      43.251  -9.233  13.812  1.00  0.00     0.171 C 
HETATM   31  C   UNL     1      42.413  -9.982  14.833  1.00  0.00     0.034 C 
ENDBRANCH  29  30
ENDBRANCH  26  29
ENDBRANCH  22  23
ENDBRANCH   1  22
TORSDOF 6
ENDMDL
MODEL 2
REMARK VINA RESULT:      -8.5      4.468     10.583
REMARK  6 active torsions:
REMARK  status: ('A' for Active; 'I' for Inactive)
REMARK    1  A    between atoms: C_2  and  O_3 
REMARK    2  A    between atoms: O_3  and  C_4 
REMARK    3  A    between atoms: C_7  and  C_8 
REMARK    4  A    between atoms: C_8  and  C_9 
REMARK       I    between atoms: C_9  and  N_10 
REMARK    5  A    between atoms: N_13  and  C_14 
REMARK    6  A    between atoms: C_18  and  C_19 
ROOT
HETATM    1  C   UNL     1      40.948 -13.849   3.340  1.00  0.00     0.224 C 
HETATM    2  N   UNL     1      40.828 -13.059   4.477  1.00  0.00    -0.349 N 
HETATM    3  C   UNL     1      41.742 -11.913   4.615  1.00  0.00     0.145 C 
HETATM    4  C   UNL     1      41.125 -10.751   5.412  1.00  0.00     0.144 C 
HETATM    5  N   UNL     1      40.587 -11.233   6.699  1.00  0.00    -0.363 N 
HETATM    6  C   UNL     1      39.582 -12.297   6.523  1.00  0.00     0.144 C 
HETATM    7  C   UNL     1      40.166 -13.479   5.721  1.00  0.00     0.145 C 
HETATM    8  O   UNL     1      41.663 -13.513   2.391  1.00  0.00    -0.273 OA
ENDROOT
BRANCH   5   9
HETATM    9  C   UNL     1      41.272 -11.033   7.864  1.00  0.00     0.122 A 
HETATM   10  N   UNL     1      42.603 -11.320   8.020  1.00  0.00    -0.262 N 
HETATM   11  H   UNL     1      43.236 -11.706   7.332  1.00  0.00     0.191 HD
HETATM   12  N   UNL     1      43.090 -11.082   9.245  1.00  0.00    -0.173 NA
HETATM   13  C   UNL     1      42.030 -10.660   9.953  1.00  0.00     0.090 A 
HETATM   14  C   UNL     1      40.879 -10.603   9.116  1.00  0.00     0.084 A 
BRANCH  13  15
HETATM   15  C   UNL     1      42.138 -10.348  11.386  1.00  0.00    -0.005 A 
HETATM   16  C   UNL     1      41.031 -10.520  12.234  1.00  0.00     0.015 A 
HETATM   17  C   UNL     1      41.109 -10.207  13.596  1.00  0.00     0.024 A 
HETATM   18  C   UNL     1      42.299  -9.717  14.123  1.00  0.00     0.034 A 
HETATM   19 CL   UNL     1      42.398  -9.323  15.795  1.00  0.00    -0.084 Cl
HETATM   20  C   UNL     1      43.411  -9.541  13.302  1.00  0.00     0.024 A 
HETATM   21  C   UNL     1      43.330  -9.856  11.940  1.00  0.00     0.015 A 
ENDBRANCH  13  15
ENDBRANCH   5   9
BRANCH   1  22
HETATM   22  C   UNL     1      40.164 -15.151   3.262  1.00  0.00     0.141 C 
BRANCH  22  23
HETATM   23  C   UNL     1      41.017 -16.393   3.139  1.00  0.00    -0.049 A 
HETATM   24  C   UNL     1      41.330 -16.938   1.885  1.00  0.00     0.010 A 
HETATM   25  C   UNL     1      42.182 -18.043   1.773  1.00  0.00     0.037 A 
HETATM   26  C   UNL     1      42.750 -18.609   2.913  1.00  0.00     0.068 A 
HETATM   27  C   UNL     1      42.435 -18.078   4.164  1.00  0.00     0.037 A 
HETATM   28  C   UNL     1      41.586 -16.974   4.280  1.00  0.00     0.010 A 
BRANCH  26  29
HETATM   29  O   UNL     1      43.613 -19.669   2.938  1.00  0.00    -0.352 OA
BRANCH  29  30
HETATM   30  C   UNL     1      43.505 -20.610   1.869  1.00  0.00     0.171 C 
HETATM   31  C   UNL     1      44.286 -21.853   2.258  1.00  0.00     0.034 C 
ENDBRANCH  29  30
ENDBRANCH  26  29
ENDBRANCH  22  23
ENDBRANCH   1  22
TORSDOF 6
ENDMDL
MODEL 3
REMARK VINA RESULT:      -8.5      4.369     10.507
REMARK  6 active torsions:
REMARK  status: ('A' for Active; 'I' for Inactive)
REMARK    1  A    between atoms: C_2  and  O_3 
REMARK    2  A    between atoms: O_3  and  C_4 
REMARK    3  A    between atoms: C_7  and  C_8 
REMARK    4  A    between atoms: C_8  and  C_9 
REMARK       I    between atoms: C_9  and  N_10 
REMARK    5  A    between atoms: N_13  and  C_14 
REMARK    6  A    between atoms: C_18  and  C_19 
ROOT
HETATM    1  C   UNL     1      41.811 -15.228   3.092  1.00  0.00     0.224 C 
HETATM    2  N   UNL     1      41.405 -14.102   3.798  1.00  0.00    -0.349 N 
HETATM    3  C   UNL     1      42.146 -12.849   3.574  1.00  0.00     0.145 C 
HETATM    4  C   UNL     1      41.271 -11.598   3.765  1.00  0.00     0.144 C 
HETATM    5  N   UNL     1      40.572 -11.646   5.064  1.00  0.00    -0.363 N 
HETATM    6  C   UNL     1      39.741 -12.854   5.209  1.00  0.00     0.144 C 
HETATM    7  C   UNL     1      40.586 -14.131   5.019  1.00  0.00     0.145 C 
HETATM    8  O   UNL     1      42.640 -15.156   2.179  1.00  0.00    -0.273 OA
ENDROOT
BRANCH   5   9
HETATM    9  C   UNL     1      41.015 -10.907   6.125  1.00  0.00     0.122 A 
HETATM   10  N   UNL     1      41.446  -9.610   6.019  1.00  0.00    -0.262 N 
HETATM   11  H   UNL     1      41.500  -9.044   5.183  1.00  0.00     0.191 HD
HETATM   12  N   UNL     1      41.869  -9.063   7.167  1.00  0.00    -0.173 NA
HETATM   13  C   UNL     1      41.760 -10.049   8.071  1.00  0.00     0.090 A 
HETATM   14  C   UNL     1      41.214 -11.213   7.456  1.00  0.00     0.084 A 
BRANCH  13  15
HETATM   15  C   UNL     1      42.188  -9.864   9.465  1.00  0.00    -0.005 A 
HETATM   16  C   UNL     1      43.296 -10.569   9.965  1.00  0.00     0.015 A 
HETATM   17  C   UNL     1      43.705 -10.422  11.296  1.00  0.00     0.024 A 
HETATM   18  C   UNL     1      43.006  -9.566  12.141  1.00  0.00     0.034 A 
HETATM   19 CL   UNL     1      43.500  -9.388  13.779  1.00  0.00    -0.084 Cl
HETATM   20  C   UNL     1      41.908  -8.854  11.666  1.00  0.00     0.024 A 
HETATM   21  C   UNL     1      41.500  -9.002  10.334  1.00  0.00     0.015 A 
ENDBRANCH  13  15
ENDBRANCH   5   9
BRANCH   1  22
HETATM   22  C   UNL     1      41.204 -16.578   3.447  1.00  0.00     0.141 C 
BRANCH  22  23
HETATM   23  C   UNL     1      42.151 -17.749   3.308  1.00  0.00    -0.049 A 
HETATM   24  C   UNL     1      42.247 -18.467   2.108  1.00  0.00     0.010 A 
HETATM   25  C   UNL     1      43.179 -19.502   1.962  1.00  0.00     0.037 A 
HETATM   26  C   UNL     1      44.041 -19.822   3.008  1.00  0.00     0.068 A 
HETATM   27  C   UNL     1      43.944 -19.119   4.209  1.00  0.00     0.037 A 
HETATM   28  C   UNL     1      43.016 -18.084   4.358  1.00  0.00     0.010 A 
BRANCH  26  29
HETATM   29  O   UNL     1      45.008 -20.789   2.984  1.00  0.00    -0.352 OA
BRANCH  29  30
HETATM   30  C   UNL     1      44.560 -22.145   2.972  1.00  0.00     0.171 C 
HETATM   31  C   UNL     1      44.665 -22.687   4.386  1.00  0.00     0.034 C 
ENDBRANCH  29  30
ENDBRANCH  26  29
ENDBRANCH  22  23
ENDBRANCH   1  22
TORSDOF 6
ENDMDL
MODEL 4
REMARK VINA RESULT:      -8.2      1.482      1.884
REMARK  6 active torsions:
REMARK  status: ('A' for Active; 'I' for Inactive)
REMARK    1  A    between atoms: C_2  and  O_3 
REMARK    2  A    between atoms: O_3  and  C_4 
REMARK    3  A    between atoms: C_7  and  C_8 
REMARK    4  A    between atoms: C_8  and  C_9 
REMARK       I    between atoms: C_9  and  N_10 
REMARK    5  A    between atoms: N_13  and  C_14 
REMARK    6  A    between atoms: C_18  and  C_19 
ROOT
HETATM    1  C   UNL     1      40.237 -11.549   6.375  1.00  0.00     0.224 C 
HETATM    2  N   UNL     1      40.666 -12.379   5.347  1.00  0.00    -0.349 N 
HETATM    3  C   UNL     1      39.957 -13.654   5.152  1.00  0.00     0.145 C 
HETATM    4  C   UNL     1      39.963 -14.122   3.687  1.00  0.00     0.144 C 
HETATM    5  N   UNL     1      41.337 -14.125   3.148  1.00  0.00    -0.363 N 
HETATM    6  C   UNL     1      41.979 -12.802   3.244  1.00  0.00     0.144 C 
HETATM    7  C   UNL     1      41.987 -12.297   4.703  1.00  0.00     0.145 C 
HETATM    8  O   UNL     1      39.192 -11.775   6.994  1.00  0.00    -0.273 OA
ENDROOT
BRANCH   5   9
HETATM    9  C   UNL     1      42.037 -15.291   3.020  1.00  0.00     0.122 A 
HETATM   10  N   UNL     1      42.435 -15.808   1.814  1.00  0.00    -0.262 N 
HETATM   11  H   UNL     1      42.272 -15.423   0.893  1.00  0.00     0.191 HD
HETATM   12  N   UNL     1      43.086 -16.976   1.890  1.00  0.00    -0.173 NA
HETATM   13  C   UNL     1      43.085 -17.278   3.199  1.00  0.00     0.090 A 
HETATM   14  C   UNL     1      42.450 -16.237   3.936  1.00  0.00     0.084 A 
BRANCH  13  15
HETATM   15  C   UNL     1      43.661 -18.535   3.697  1.00  0.00    -0.005 A 
HETATM   16  C   UNL     1      44.079 -19.530   2.797  1.00  0.00     0.015 A 
HETATM   17  C   UNL     1      44.609 -20.742   3.254  1.00  0.00     0.024 A 
HETATM   18  C   UNL     1      44.726 -20.970   4.621  1.00  0.00     0.034 A 
HETATM   19 CL   UNL     1      45.370 -22.461   5.189  1.00  0.00    -0.084 Cl
HETATM   20  C   UNL     1      44.323 -19.998   5.532  1.00  0.00     0.024 A 
HETATM   21  C   UNL     1      43.793 -18.785   5.072  1.00  0.00     0.015 A 
ENDBRANCH  13  15
ENDBRANCH   5   9
BRANCH   1  22
HETATM   22  C   UNL     1      41.070 -10.327   6.732  1.00  0.00     0.141 C 
BRANCH  22  23
HETATM   23  C   UNL     1      41.568 -10.300   8.160  1.00  0.00    -0.049 A 
HETATM   24  C   UNL     1      42.767 -10.931   8.523  1.00  0.00     0.010 A 
HETATM   25  C   UNL     1      43.260 -10.839   9.830  1.00  0.00     0.037 A 
HETATM   26  C   UNL     1      42.572 -10.100  10.789  1.00  0.00     0.068 A 
HETATM   27  C   UNL     1      41.373  -9.478  10.437  1.00  0.00     0.037 A 
HETATM   28  C   UNL     1      40.878  -9.566   9.133  1.00  0.00     0.010 A 
BRANCH  26  29
HETATM   29  O   UNL     1      42.958  -9.911  12.087  1.00  0.00    -0.352 OA
BRANCH  29  30
HETATM   30  C   UNL     1      41.916  -9.737  13.048  1.00  0.00     0.171 C 
HETATM   31  C   UNL     1      42.503  -9.983  14.426  1.00  0.00     0.034 C 
ENDBRANCH  29  30
ENDBRANCH  26  29
ENDBRANCH  22  23
ENDBRANCH   1  22
TORSDOF 6
ENDMDL
MODEL 5
REMARK VINA RESULT:      -8.1      2.292      3.190
REMARK  6 active torsions:
REMARK  status: ('A' for Active; 'I' for Inactive)
REMARK    1  A    between atoms: C_2  and  O_3 
REMARK    2  A    between atoms: O_3  and  C_4 
REMARK    3  A    between atoms: C_7  and  C_8 
REMARK    4  A    between atoms: C_8  and  C_9 
REMARK       I    between atoms: C_9  and  N_10 
REMARK    5  A    between atoms: N_13  and  C_14 
REMARK    6  A    between atoms: C_18  and  C_19 
ROOT
HETATM    1  C   UNL     1      39.827 -11.806   4.102  1.00  0.00     0.224 C 
HETATM    2  N   UNL     1      40.392 -12.769   3.273  1.00  0.00    -0.349 N 
HETATM    3  C   UNL     1      39.774 -14.105   3.254  1.00  0.00     0.145 C 
HETATM    4  C   UNL     1      39.936 -14.817   1.900  1.00  0.00     0.144 C 
HETATM    5  N   UNL     1      41.351 -14.816   1.480  1.00  0.00    -0.363 N 
HETATM    6  C   UNL     1      41.908 -13.454   1.389  1.00  0.00     0.144 C 
HETATM    7  C   UNL     1      41.758 -12.707   2.731  1.00  0.00     0.145 C 
HETATM    8  O   UNL     1      38.745 -11.994   4.667  1.00  0.00    -0.273 OA
ENDROOT
BRANCH   5   9
HETATM    9  C   UNL     1      42.123 -15.935   1.615  1.00  0.00     0.122 A 
HETATM   10  N   UNL     1      42.753 -16.554   0.567  1.00  0.00    -0.262 N 
HETATM   11  H   UNL     1      42.734 -16.288  -0.409  1.00  0.00     0.191 HD
HETATM   12  N   UNL     1      43.441 -17.656   0.895  1.00  0.00    -0.173 NA
HETATM   13  C   UNL     1      43.227 -17.807   2.212  1.00  0.00     0.090 A 
HETATM   14  C   UNL     1      42.418 -16.739   2.698  1.00  0.00     0.084 A 
BRANCH  13  15
HETATM   15  C   UNL     1      43.772 -18.955   2.952  1.00  0.00    -0.005 A 
HETATM   16  C   UNL     1      43.934 -20.197   2.314  1.00  0.00     0.015 A 
HETATM   17  C   UNL     1      44.430 -21.306   3.009  1.00  0.00     0.024 A 
HETATM   18  C   UNL     1      44.769 -21.182   4.352  1.00  0.00     0.034 A 
HETATM   19 CL   UNL     1      45.372 -22.544   5.213  1.00  0.00    -0.084 Cl
HETATM   20  C   UNL     1      44.620 -19.960   5.004  1.00  0.00     0.024 A 
HETATM   21  C   UNL     1      44.123 -18.852   4.307  1.00  0.00     0.015 A 
ENDBRANCH  13  15
ENDBRANCH   5   9
BRANCH   1  22
HETATM   22  C   UNL     1      40.556 -10.485   4.300  1.00  0.00     0.141 C 
BRANCH  22  23
HETATM   23  C   UNL     1      41.067 -10.254   5.704  1.00  0.00    -0.049 A 
HETATM   24  C   UNL     1      40.935  -9.006   6.329  1.00  0.00     0.010 A 
HETATM   25  C   UNL     1      41.343  -8.819   7.655  1.00  0.00     0.037 A 
HETATM   26  C   UNL     1      41.872  -9.883   8.383  1.00  0.00     0.068 A 
HETATM   27  C   UNL     1      42.015 -11.125   7.764  1.00  0.00     0.037 A 
HETATM   28  C   UNL     1      41.608 -11.316   6.441  1.00  0.00     0.010 A 
BRANCH  26  29
HETATM   29  O   UNL     1      42.281  -9.839   9.687  1.00  0.00    -0.352 OA
BRANCH  29  30
HETATM   30  C   UNL     1      43.404 -10.649  10.034  1.00  0.00     0.171 C 
HETATM   31  C   UNL     1      43.959 -10.143  11.353  1.00  0.00     0.034 C 
ENDBRANCH  29  30
ENDBRANCH  26  29
ENDBRANCH  22  23
ENDBRANCH   1  22
TORSDOF 6
ENDMDL
MODEL 6
REMARK VINA RESULT:      -8.0      5.812      9.615
REMARK  6 active torsions:
REMARK  status: ('A' for Active; 'I' for Inactive)
REMARK    1  A    between atoms: C_2  and  O_3 
REMARK    2  A    between atoms: O_3  and  C_4 
REMARK    3  A    between atoms: C_7  and  C_8 
REMARK    4  A    between atoms: C_8  and  C_9 
REMARK       I    between atoms: C_9  and  N_10 
REMARK    5  A    between atoms: N_13  and  C_14 
REMARK    6  A    between atoms: C_18  and  C_19 
ROOT
HETATM    1  C   UNL     1      41.420 -15.972   5.864  1.00  0.00     0.224 C 
HETATM    2  N   UNL     1      41.602 -14.986   4.902  1.00  0.00    -0.349 N 
HETATM    3  C   UNL     1      40.415 -14.512   4.172  1.00  0.00     0.145 C 
HETATM    4  C   UNL     1      40.536 -13.045   3.725  1.00  0.00     0.144 C 
HETATM    5  N   UNL     1      41.801 -12.827   2.997  1.00  0.00    -0.363 N 
HETATM    6  C   UNL     1      42.980 -13.195   3.800  1.00  0.00     0.144 C 
HETATM    7  C   UNL     1      42.891 -14.662   4.271  1.00  0.00     0.145 C 
HETATM    8  O   UNL     1      40.292 -16.318   6.229  1.00  0.00    -0.273 OA
ENDROOT
BRANCH   5   9
HETATM    9  C   UNL     1      41.819 -12.739   1.634  1.00  0.00     0.122 A 
HETATM   10  N   UNL     1      41.695 -13.823   0.803  1.00  0.00    -0.262 N 
HETATM   11  H   UNL     1      41.583 -14.793   1.065  1.00  0.00     0.191 HD
HETATM   12  N   UNL     1      41.764 -13.539  -0.505  1.00  0.00    -0.173 NA
HETATM   13  C   UNL     1      41.990 -12.217  -0.552  1.00  0.00     0.090 A 
HETATM   14  C   UNL     1      42.015 -11.681   0.769  1.00  0.00     0.084 A 
BRANCH  13  15
HETATM   15  C   UNL     1      42.192 -11.516  -1.828  1.00  0.00    -0.005 A 
HETATM   16  C   UNL     1      42.464 -10.138  -1.846  1.00  0.00     0.015 A 
HETATM   17  C   UNL     1      42.636  -9.450  -3.052  1.00  0.00     0.024 A 
HETATM   18  C   UNL     1      42.537 -10.138  -4.257  1.00  0.00     0.034 A 
HETATM   19 CL   UNL     1      42.740  -9.297  -5.744  1.00  0.00    -0.084 Cl
HETATM   20  C   UNL     1      42.272 -11.505  -4.265  1.00  0.00     0.024 A 
HETATM   21  C   UNL     1      42.100 -12.191  -3.056  1.00  0.00     0.015 A 
ENDBRANCH  13  15
ENDBRANCH   5   9
BRANCH   1  22
HETATM   22  C   UNL     1      42.644 -16.626   6.489  1.00  0.00     0.141 C 
BRANCH  22  23
HETATM   23  C   UNL     1      43.228 -17.765   5.685  1.00  0.00    -0.049 A 
HETATM   24  C   UNL     1      42.592 -18.240   4.530  1.00  0.00     0.010 A 
HETATM   25  C   UNL     1      43.177 -19.244   3.748  1.00  0.00     0.037 A 
HETATM   26  C   UNL     1      44.416 -19.775   4.100  1.00  0.00     0.068 A 
HETATM   27  C   UNL     1      45.050 -19.313   5.254  1.00  0.00     0.037 A 
HETATM   28  C   UNL     1      44.470 -18.310   6.035  1.00  0.00     0.010 A 
BRANCH  26  29
HETATM   29  O   UNL     1      45.102 -20.736   3.410  1.00  0.00    -0.352 OA
BRANCH  29  30
HETATM   30  C   UNL     1      44.370 -21.902   3.035  1.00  0.00     0.171 C 
HETATM   31  C   UNL     1      44.194 -21.881   1.527  1.00  0.00     0.034 C 
ENDBRANCH  29  30
ENDBRANCH  26  29
ENDBRANCH  22  23
ENDBRANCH   1  22
TORSDOF 6
ENDMDL
MODEL 7
REMARK VINA RESULT:      -7.9      4.309      7.945
REMARK  6 active torsions:
REMARK  status: ('A' for Active; 'I' for Inactive)
REMARK    1  A    between atoms: C_2  and  O_3 
REMARK    2  A    between atoms: O_3  and  C_4 
REMARK    3  A    between atoms: C_7  and  C_8 
REMARK    4  A    between atoms: C_8  and  C_9 
REMARK       I    between atoms: C_9  and  N_10 
REMARK    5  A    between atoms: N_13  and  C_14 
REMARK    6  A    between atoms: C_18  and  C_19 
ROOT
HETATM    1  C   UNL     1      40.092 -11.145   3.110  1.00  0.00     0.224 C 
HETATM    2  N   UNL     1      40.504 -12.221   3.886  1.00  0.00    -0.349 N 
HETATM    3  C   UNL     1      41.915 -12.265   4.305  1.00  0.00     0.145 C 
HETATM    4  C   UNL     1      42.115 -12.980   5.652  1.00  0.00     0.144 C 
HETATM    5  N   UNL     1      41.463 -14.305   5.638  1.00  0.00    -0.363 N 
HETATM    6  C   UNL     1      40.024 -14.217   5.337  1.00  0.00     0.144 C 
HETATM    7  C   UNL     1      39.784 -13.499   3.992  1.00  0.00     0.145 C 
HETATM    8  O   UNL     1      40.822 -10.166   2.922  1.00  0.00    -0.273 OA
ENDROOT
BRANCH   5   9
HETATM    9  C   UNL     1      42.198 -15.445   5.471  1.00  0.00     0.122 A 
HETATM   10  N   UNL     1      43.269 -15.779   6.259  1.00  0.00    -0.262 N 
HETATM   11  H   UNL     1      43.653 -15.255   7.033  1.00  0.00     0.191 HD
HETATM   12  N   UNL     1      43.879 -16.923   5.922  1.00  0.00    -0.173 NA
HETATM   13  C   UNL     1      43.217 -17.351   4.835  1.00  0.00     0.090 A 
HETATM   14  C   UNL     1      42.149 -16.457   4.534  1.00  0.00     0.084 A 
BRANCH  13  15
HETATM   15  C   UNL     1      43.626 -18.566   4.115  1.00  0.00    -0.005 A 
HETATM   16  C   UNL     1      43.137 -18.823   2.823  1.00  0.00     0.015 A 
HETATM   17  C   UNL     1      43.498 -19.985   2.132  1.00  0.00     0.024 A 
HETATM   18  C   UNL     1      44.354 -20.904   2.729  1.00  0.00     0.034 A 
HETATM   19 CL   UNL     1      44.794 -22.339   1.888  1.00  0.00    -0.084 Cl
HETATM   20  C   UNL     1      44.854 -20.669   4.008  1.00  0.00     0.024 A 
HETATM   21  C   UNL     1      44.492 -19.505   4.697  1.00  0.00     0.015 A 
ENDBRANCH  13  15
ENDBRANCH   5   9
BRANCH   1  22
HETATM   22  C   UNL     1      38.701 -11.171   2.493  1.00  0.00     0.141 C 
BRANCH  22  23
HETATM   23  C   UNL     1      38.602 -11.945   1.198  1.00  0.00    -0.049 A 
HETATM   24  C   UNL     1      39.517 -11.737   0.156  1.00  0.00     0.010 A 
HETATM   25  C   UNL     1      39.465 -12.510  -1.011  1.00  0.00     0.037 A 
HETATM   26  C   UNL     1      38.510 -13.514  -1.145  1.00  0.00     0.068 A 
HETATM   27  C   UNL     1      37.590 -13.720  -0.116  1.00  0.00     0.037 A 
HETATM   28  C   UNL     1      37.640 -12.952   1.051  1.00  0.00     0.010 A 
BRANCH  26  29
HETATM   29  O   UNL     1      38.370 -14.351  -2.217  1.00  0.00    -0.352 OA
BRANCH  29  30
HETATM   30  C   UNL     1      39.360 -14.253  -3.241  1.00  0.00     0.171 C 
HETATM   31  C   UNL     1      40.196 -15.521  -3.209  1.00  0.00     0.034 C 
ENDBRANCH  29  30
ENDBRANCH  26  29
ENDBRANCH  22  23
ENDBRANCH   1  22
TORSDOF 6
ENDMDL
MODEL 8
REMARK VINA RESULT:      -7.7      3.029      3.733
REMARK  6 active torsions:
REMARK  status: ('A' for Active; 'I' for Inactive)
REMARK    1  A    between atoms: C_2  and  O_3 
REMARK    2  A    between atoms: O_3  and  C_4 
REMARK    3  A    between atoms: C_7  and  C_8 
REMARK    4  A    between atoms: C_8  and  C_9 
REMARK       I    between atoms: C_9  and  N_10 
REMARK    5  A    between atoms: N_13  and  C_14 
REMARK    6  A    between atoms: C_18  and  C_19 
ROOT
HETATM    1  C   UNL     1      39.605 -11.654   4.081  1.00  0.00     0.224 C 
HETATM    2  N   UNL     1      40.373 -12.499   3.289  1.00  0.00    -0.349 N 
HETATM    3  C   UNL     1      39.704 -13.653   2.667  1.00  0.00     0.145 C 
HETATM    4  C   UNL     1      40.344 -14.065   1.331  1.00  0.00     0.144 C 
HETATM    5  N   UNL     1      41.801 -14.243   1.486  1.00  0.00    -0.363 N 
HETATM    6  C   UNL     1      42.462 -13.028   1.995  1.00  0.00     0.144 C 
HETATM    7  C   UNL     1      41.841 -12.582   3.335  1.00  0.00     0.145 C 
HETATM    8  O   UNL     1      38.375 -11.751   4.125  1.00  0.00    -0.273 OA
ENDROOT
BRANCH   5   9
HETATM    9  C   UNL     1      42.348 -15.491   1.581  1.00  0.00     0.122 A 
HETATM   10  N   UNL     1      42.532 -16.322   0.506  1.00  0.00    -0.262 N 
HETATM   11  H   UNL     1      42.298 -16.142  -0.461  1.00  0.00     0.191 HD
HETATM   12  N   UNL     1      43.058 -17.518   0.803  1.00  0.00    -0.173 NA
HETATM   13  C   UNL     1      43.188 -17.506   2.140  1.00  0.00     0.090 A 
HETATM   14  C   UNL     1      42.768 -16.247   2.657  1.00  0.00     0.084 A 
BRANCH  13  15
HETATM   15  C   UNL     1      43.683 -18.680   2.873  1.00  0.00    -0.005 A 
HETATM   16  C   UNL     1      43.965 -18.590   4.247  1.00  0.00     0.015 A 
HETATM   17  C   UNL     1      44.458 -19.691   4.957  1.00  0.00     0.024 A 
HETATM   18  C   UNL     1      44.673 -20.896   4.297  1.00  0.00     0.034 A 
HETATM   19 CL   UNL     1      45.286 -22.250   5.163  1.00  0.00    -0.084 Cl
HETATM   20  C   UNL     1      44.397 -21.010   2.937  1.00  0.00     0.024 A 
HETATM   21  C   UNL     1      43.904 -19.907   2.228  1.00  0.00     0.015 A 
ENDBRANCH  13  15
ENDBRANCH   5   9
BRANCH   1  22
HETATM   22  C   UNL     1      40.301 -10.575   4.898  1.00  0.00     0.141 C 
BRANCH  22  23
HETATM   23  C   UNL     1      39.786 -10.426   6.311  1.00  0.00    -0.049 A 
HETATM   24  C   UNL     1      39.759 -11.515   7.194  1.00  0.00     0.010 A 
HETATM   25  C   UNL     1      39.352 -11.354   8.523  1.00  0.00     0.037 A 
HETATM   26  C   UNL     1      38.981 -10.097   8.996  1.00  0.00     0.068 A 
HETATM   27  C   UNL     1      38.995  -9.010   8.121  1.00  0.00     0.037 A 
HETATM   28  C   UNL     1      39.404  -9.167   6.793  1.00  0.00     0.010 A 
BRANCH  26  29
HETATM   29  O   UNL     1      38.590  -9.802  10.273  1.00  0.00    -0.352 OA
BRANCH  29  30
HETATM   30  C   UNL     1      38.864  -8.481  10.739  1.00  0.00     0.171 C 
HETATM   31  C   UNL     1      37.654  -7.998  11.519  1.00  0.00     0.034 C 
ENDBRANCH  29  30
ENDBRANCH  26  29
ENDBRANCH  22  23
ENDBRANCH   1  22
TORSDOF 6
ENDMDL
MODEL 9
REMARK VINA RESULT:      -7.7      7.161     10.673
REMARK  6 active torsions:
REMARK  status: ('A' for Active; 'I' for Inactive)
REMARK    1  A    between atoms: C_2  and  O_3 
REMARK    2  A    between atoms: O_3  and  C_4 
REMARK    3  A    between atoms: C_7  and  C_8 
REMARK    4  A    between atoms: C_8  and  C_9 
REMARK       I    between atoms: C_9  and  N_10 
REMARK    5  A    between atoms: N_13  and  C_14 
REMARK    6  A    between atoms: C_18  and  C_19 
ROOT
HETATM    1  C   UNL     1      41.460 -15.140   3.434  1.00  0.00     0.224 C 
HETATM    2  N   UNL     1      40.888 -14.480   2.353  1.00  0.00    -0.349 N 
HETATM    3  C   UNL     1      39.418 -14.427   2.281  1.00  0.00     0.145 C 
HETATM    4  C   UNL     1      38.902 -13.166   1.568  1.00  0.00     0.144 C 
HETATM    5  N   UNL     1      39.561 -13.003   0.258  1.00  0.00    -0.363 N 
HETATM    6  C   UNL     1      41.029 -12.935   0.374  1.00  0.00     0.144 C 
HETATM    7  C   UNL     1      41.584 -14.184   1.091  1.00  0.00     0.145 C 
HETATM    8  O   UNL     1      40.781 -15.514   4.395  1.00  0.00    -0.273 OA
ENDROOT
BRANCH   5   9
HETATM    9  C   UNL     1      38.915 -13.336  -0.899  1.00  0.00     0.122 A 
HETATM   10  N   UNL     1      39.160 -14.488  -1.600  1.00  0.00    -0.262 N 
HETATM   11  H   UNL     1      39.823 -15.218  -1.376  1.00  0.00     0.191 HD
HETATM   12  N   UNL     1      38.446 -14.624  -2.725  1.00  0.00    -0.173 NA
HETATM   13  C   UNL     1      37.725 -13.494  -2.806  1.00  0.00     0.090 A 
HETATM   14  C   UNL     1      37.983 -12.672  -1.671  1.00  0.00     0.084 A 
BRANCH  13  15
HETATM   15  C   UNL     1      36.843 -13.226  -3.951  1.00  0.00    -0.005 A 
HETATM   16  C   UNL     1      36.580 -11.904  -4.350  1.00  0.00     0.015 A 
HETATM   17  C   UNL     1      35.725 -11.629  -5.423  1.00  0.00     0.024 A 
HETATM   18  C   UNL     1      35.122 -12.678  -6.109  1.00  0.00     0.034 A 
HETATM   19 CL   UNL     1      34.064 -12.346  -7.424  1.00  0.00    -0.084 Cl
HETATM   20  C   UNL     1      35.370 -13.996  -5.734  1.00  0.00     0.024 A 
HETATM   21  C   UNL     1      36.226 -14.269  -4.660  1.00  0.00     0.015 A 
ENDBRANCH  13  15
ENDBRANCH   5   9
BRANCH   1  22
HETATM   22  C   UNL     1      42.961 -15.389   3.434  1.00  0.00     0.141 C 
BRANCH  22  23
HETATM   23  C   UNL     1      43.357 -16.845   3.346  1.00  0.00    -0.049 A 
HETATM   24  C   UNL     1      43.566 -17.467   2.106  1.00  0.00     0.010 A 
HETATM   25  C   UNL     1      44.005 -18.794   2.033  1.00  0.00     0.037 A 
HETATM   26  C   UNL     1      44.260 -19.514   3.198  1.00  0.00     0.068 A 
HETATM   27  C   UNL     1      44.044 -18.905   4.435  1.00  0.00     0.037 A 
HETATM   28  C   UNL     1      43.608 -17.580   4.512  1.00  0.00     0.010 A 
BRANCH  26  29
HETATM   29  O   UNL     1      44.714 -20.803   3.263  1.00  0.00    -0.352 OA
BRANCH  29  30
HETATM   30  C   UNL     1      45.016 -21.312   4.562  1.00  0.00     0.171 C 
HETATM   31  C   UNL     1      44.653 -22.786   4.585  1.00  0.00     0.034 C 
ENDBRANCH  29  30
ENDBRANCH  26  29
ENDBRANCH  22  23
ENDBRANCH   1  22
TORSDOF 6
ENDMDL
MODEL 10
REMARK VINA RESULT:      -7.6      4.362      5.870
REMARK  6 active torsions:
REMARK  status: ('A' for Active; 'I' for Inactive)
REMARK    1  A    between atoms: C_2  and  O_3 
REMARK    2  A    between atoms: O_3  and  C_4 
REMARK    3  A    between atoms: C_7  and  C_8 
REMARK    4  A    between atoms: C_8  and  C_9 
REMARK       I    between atoms: C_9  and  N_10 
REMARK    5  A    between atoms: N_13  and  C_14 
REMARK    6  A    between atoms: C_18  and  C_19 
ROOT
HETATM    1  C   UNL     1      44.103 -14.529   7.055  1.00  0.00     0.224 C 
HETATM    2  N   UNL     1      42.919 -14.336   6.354  1.00  0.00    -0.349 N 
HETATM    3  C   UNL     1      42.121 -15.527   6.016  1.00  0.00     0.145 C 
HETATM    4  C   UNL     1      40.613 -15.231   5.936  1.00  0.00     0.144 C 
HETATM    5  N   UNL     1      40.357 -14.079   5.050  1.00  0.00    -0.363 N 
HETATM    6  C   UNL     1      41.073 -12.867   5.485  1.00  0.00     0.144 C 
HETATM    7  C   UNL     1      42.591 -13.128   5.581  1.00  0.00     0.145 C 
HETATM    8  O   UNL     1      44.397 -15.626   7.538  1.00  0.00    -0.273 OA
ENDROOT
BRANCH   5   9
HETATM    9  C   UNL     1      39.898 -14.263   3.776  1.00  0.00     0.122 A 
HETATM   10  N   UNL     1      39.741 -15.496   3.198  1.00  0.00    -0.262 N 
HETATM   11  H   UNL     1      39.937 -16.399   3.607  1.00  0.00     0.191 HD
HETATM   12  N   UNL     1      39.306 -15.471   1.930  1.00  0.00    -0.173 NA
HETATM   13  C   UNL     1      39.211 -14.165   1.632  1.00  0.00     0.090 A 
HETATM   14  C   UNL     1      39.560 -13.381   2.770  1.00  0.00     0.084 A 
BRANCH  13  15
HETATM   15  C   UNL     1      38.818 -13.711   0.291  1.00  0.00    -0.005 A 
HETATM   16  C   UNL     1      39.535 -14.136  -0.841  1.00  0.00     0.015 A 
HETATM   17  C   UNL     1      39.188 -13.696  -2.123  1.00  0.00     0.024 A 
HETATM   18  C   UNL     1      38.118 -12.823  -2.286  1.00  0.00     0.034 A 
HETATM   19 CL   UNL     1      37.692 -12.272  -3.859  1.00  0.00    -0.084 Cl
HETATM   20  C   UNL     1      37.390 -12.391  -1.180  1.00  0.00     0.024 A 
HETATM   21  C   UNL     1      37.738 -12.833   0.103  1.00  0.00     0.015 A 
ENDBRANCH  13  15
ENDBRANCH   5   9
BRANCH   1  22
HETATM   22  C   UNL     1      45.048 -13.350   7.241  1.00  0.00     0.141 C 
BRANCH  22  23
HETATM   23  C   UNL     1      44.792 -12.530   8.485  1.00  0.00    -0.049 A 
HETATM   24  C   UNL     1      45.745 -12.447   9.510  1.00  0.00     0.010 A 
HETATM   25  C   UNL     1      45.534 -11.626  10.624  1.00  0.00     0.037 A 
HETATM   26  C   UNL     1      44.373 -10.862  10.722  1.00  0.00     0.068 A 
HETATM   27  C   UNL     1      43.415 -10.948   9.712  1.00  0.00     0.037 A 
HETATM   28  C   UNL     1      43.624 -11.765   8.597  1.00  0.00     0.010 A 
BRANCH  26  29
HETATM   29  O   UNL     1      44.059 -10.006  11.741  1.00  0.00    -0.352 OA
BRANCH  29  30
HETATM   30  C   UNL     1      43.111 -10.472  12.702  1.00  0.00     0.171 C 
HETATM   31  C   UNL     1      43.114  -9.505  13.872  1.00  0.00     0.034 C 
ENDBRANCH  29  30
ENDBRANCH  26  29
ENDBRANCH  22  23
ENDBRANCH   1  22
TORSDOF 6
ENDMDL
