MODEL 1
REMARK VINA RESULT:      -9.4      0.000      0.000
REMARK  6 active torsions:
REMARK  status: ('A' for Active; 'I' for Inactive)
REMARK    1  A    between atoms: C_4  and  C_5 
REMARK    2  A    between atoms: C_5  and  N_6 
REMARK    3  A    between atoms: C_10  and  C_11 
REMARK    4  A    between atoms: C_11  and  C_12 
REMARK    5  A    between atoms: N_21  and  C_22 
REMARK    6  A    between atoms: C_22  and  C_23 
ROOT
HETATM    1  C   UNL     1      41.251 -13.914   1.083  1.00  0.00     0.164 A 
HETATM    2  N   UNL     1      42.567 -13.939   1.705  1.00  0.00    -0.319 N 
HETATM    3  C   UNL     1      42.582 -13.291   2.917  1.00  0.00     0.326 A 
HETATM    4  O   UNL     1      43.599 -13.136   3.568  1.00  0.00    -0.247 OA
HETATM    5  N   UNL     1      41.319 -12.926   3.240  1.00  0.00    -0.265 N 
HETATM    6  C   UNL     1      40.467 -13.193   2.203  1.00  0.00     0.263 A 
HETATM    7  O   UNL     1      39.265 -12.967   2.187  1.00  0.00    -0.270 OA
HETATM    8  H   UNL     1      43.384 -13.767   1.123  1.00  0.00     0.166 HD
ENDROOT
BRANCH   1   9
HETATM    9  C   UNL     1      40.665 -15.354   0.851  1.00  0.00     0.033 C 
HETATM   10  C   UNL     1      40.234 -16.104   2.125  1.00  0.00     0.036 C 
HETATM   11  C   UNL     1      41.389 -16.571   2.997  1.00  0.00     0.235 C 
HETATM   12  N   UNL     1      42.425 -17.340   2.214  1.00  0.00    -0.067 N 
HETATM   13  H   UNL     1      42.024 -18.274   2.065  1.00  0.00     0.280 HD
HETATM   14  C   UNL     1      42.793 -16.785   0.855  1.00  0.00     0.235 C 
HETATM   15  C   UNL     1      41.571 -16.327   0.074  1.00  0.00     0.036 C 
BRANCH  12  16
HETATM   16  C   UNL     1      43.708 -17.555   3.025  1.00  0.00     0.274 C 
BRANCH  16  17
HETATM   17  C   UNL     1      44.042 -18.994   3.329  1.00  0.00    -0.026 A 
HETATM   18  C   UNL     1      43.924 -19.937   2.284  1.00  0.00     0.016 A 
HETATM   19  C   UNL     1      44.259 -21.281   2.471  1.00  0.00    -0.061 A 
HETATM   20  C   UNL     1      44.154 -22.271   1.347  1.00  0.00     0.048 C 
HETATM   21  C   UNL     1      44.712 -21.692   3.724  1.00  0.00     0.007 A 
HETATM   22  C   UNL     1      44.816 -20.776   4.773  1.00  0.00     0.008 A 
HETATM   23  C   UNL     1      44.498 -19.421   4.591  1.00  0.00    -0.054 A 
HETATM   24  C   UNL     1      44.574 -18.503   5.781  1.00  0.00     0.049 C 
ENDBRANCH  16  17
ENDBRANCH  12  16
ENDBRANCH   1   9
BRANCH   1  25
HETATM   25  C   UNL     1      41.341 -13.113  -0.212  1.00  0.00     0.072 A 
HETATM   26  N   UNL     1      42.487 -12.377  -0.353  1.00  0.00    -0.262 NA
HETATM   27  C   UNL     1      42.627 -11.647  -1.484  1.00  0.00     0.117 A 
HETATM   28  C   UNL     1      41.687 -11.612  -2.496  1.00  0.00     0.019 A 
HETATM   29  C   UNL     1      40.536 -12.374  -2.347  1.00  0.00     0.003 A 
HETATM   30  C   UNL     1      40.359 -13.142  -1.198  1.00  0.00     0.030 A 
ENDBRANCH   1  25
BRANCH   5  31
HETATM   31  C   UNL     1      40.929 -12.349   4.511  1.00  0.00     0.168 C 
BRANCH  31  32
HETATM   32  C   UNL     1      40.781 -13.362   5.646  1.00  0.00     0.140 C 
HETATM   33  O   UNL     1      42.080 -13.908   5.952  1.00  0.00    -0.384 OA
HETATM   34  C   UNL     1      41.964 -15.334   6.060  1.00  0.00     0.168 C 
HETATM   35  C   UNL     1      40.485 -15.636   6.166  1.00  0.00     0.029 C 
HETATM   36  C   UNL     1      39.886 -14.546   5.313  1.00  0.00     0.036 C 
ENDBRANCH  31  32
ENDBRANCH   5  31
TORSDOF 6
ENDMDL
MODEL 2
REMARK VINA RESULT:      -9.3      1.263      1.883
REMARK  6 active torsions:
REMARK  status: ('A' for Active; 'I' for Inactive)
REMARK    1  A    between atoms: C_4  and  C_5 
REMARK    2  A    between atoms: C_5  and  N_6 
REMARK    3  A    between atoms: C_10  and  C_11 
REMARK    4  A    between atoms: C_11  and  C_12 
REMARK    5  A    between atoms: N_21  and  C_22 
REMARK    6  A    between atoms: C_22  and  C_23 
ROOT
HETATM    1  C   UNL     1      41.163 -13.841   1.343  1.00  0.00     0.164 A 
HETATM    2  N   UNL     1      42.418 -13.852   2.081  1.00  0.00    -0.319 N 
HETATM    3  C   UNL     1      42.291 -13.287   3.329  1.00  0.00     0.326 A 
HETATM    4  O   UNL     1      43.238 -13.133   4.079  1.00  0.00    -0.247 OA
HETATM    5  N   UNL     1      40.988 -13.001   3.555  1.00  0.00    -0.265 N 
HETATM    6  C   UNL     1      40.247 -13.234   2.429  1.00  0.00     0.263 A 
HETATM    7  O   UNL     1      39.041 -13.059   2.316  1.00  0.00    -0.270 OA
HETATM    8  H   UNL     1      43.274 -13.605   1.589  1.00  0.00     0.166 HD
ENDROOT
BRANCH   1   9
HETATM    9  C   UNL     1      40.672 -15.286   0.966  1.00  0.00     0.033 C 
HETATM   10  C   UNL     1      40.167 -16.140   2.144  1.00  0.00     0.036 C 
HETATM   11  C   UNL     1      41.262 -16.615   3.087  1.00  0.00     0.235 C 
HETATM   12  N   UNL     1      42.401 -17.283   2.354  1.00  0.00    -0.067 N 
HETATM   13  H   UNL     1      42.061 -18.220   2.110  1.00  0.00     0.280 HD
HETATM   14  C   UNL     1      42.860 -16.620   1.073  1.00  0.00     0.235 C 
HETATM   15  C   UNL     1      41.691 -16.163   0.214  1.00  0.00     0.036 C 
BRANCH  12  16
HETATM   16  C   UNL     1      43.616 -17.496   3.264  1.00  0.00     0.274 C 
BRANCH  16  17
HETATM   17  C   UNL     1      43.992 -18.937   3.505  1.00  0.00    -0.026 A 
HETATM   18  C   UNL     1      43.864 -19.845   2.430  1.00  0.00     0.016 A 
HETATM   19  C   UNL     1      44.235 -21.185   2.558  1.00  0.00    -0.061 A 
HETATM   20  C   UNL     1      44.120 -22.137   1.402  1.00  0.00     0.048 C 
HETATM   21  C   UNL     1      44.734 -21.630   3.782  1.00  0.00     0.007 A 
HETATM   22  C   UNL     1      44.848 -20.751   4.861  1.00  0.00     0.008 A 
HETATM   23  C   UNL     1      44.493 -19.398   4.738  1.00  0.00    -0.054 A 
HETATM   24  C   UNL     1      44.584 -18.522   5.958  1.00  0.00     0.049 C 
ENDBRANCH  16  17
ENDBRANCH  12  16
ENDBRANCH   1   9
BRANCH   1  25
HETATM   25  C   UNL     1      41.329 -12.951   0.116  1.00  0.00     0.072 A 
HETATM   26  N   UNL     1      42.451 -12.167   0.124  1.00  0.00    -0.262 NA
HETATM   27  C   UNL     1      42.655 -11.356  -0.941  1.00  0.00     0.117 A 
HETATM   28  C   UNL     1      41.804 -11.285  -2.027  1.00  0.00     0.019 A 
HETATM   29  C   UNL     1      40.677 -12.096  -2.028  1.00  0.00     0.003 A 
HETATM   30  C   UNL     1      40.436 -12.947  -0.953  1.00  0.00     0.030 A 
ENDBRANCH   1  25
BRANCH   5  31
HETATM   31  C   UNL     1      40.458 -12.529   4.820  1.00  0.00     0.168 C 
BRANCH  31  32
HETATM   32  C   UNL     1      40.353 -11.009   4.932  1.00  0.00     0.140 C 
HETATM   33  O   UNL     1      40.821 -10.607   6.235  1.00  0.00    -0.384 OA
HETATM   34  C   UNL     1      39.886  -9.671   6.790  1.00  0.00     0.168 C 
HETATM   35  C   UNL     1      39.001  -9.223   5.648  1.00  0.00     0.029 C 
HETATM   36  C   UNL     1      38.937 -10.469   4.801  1.00  0.00     0.036 C 
ENDBRANCH  31  32
ENDBRANCH   5  31
TORSDOF 6
ENDMDL
MODEL 3
REMARK VINA RESULT:      -9.1      2.079      4.789
REMARK  6 active torsions:
REMARK  status: ('A' for Active; 'I' for Inactive)
REMARK    1  A    between atoms: C_4  and  C_5 
REMARK    2  A    between atoms: C_5  and  N_6 
REMARK    3  A    between atoms: C_10  and  C_11 
REMARK    4  A    between atoms: C_11  and  C_12 
REMARK    5  A    between atoms: N_21  and  C_22 
REMARK    6  A    between atoms: C_22  and  C_23 
ROOT
HETATM    1  C   UNL     1      41.159 -12.969   2.944  1.00  0.00     0.164 A 
HETATM    2  N   UNL     1      40.345 -14.167   3.096  1.00  0.00    -0.319 N 
HETATM    3  C   UNL     1      40.312 -14.922   1.947  1.00  0.00     0.326 A 
HETATM    4  O   UNL     1      39.632 -15.926   1.839  1.00  0.00    -0.247 OA
HETATM    5  N   UNL     1      41.165 -14.387   1.041  1.00  0.00    -0.265 N 
HETATM    6  C   UNL     1      41.671 -13.204   1.505  1.00  0.00     0.263 A 
HETATM    7  O   UNL     1      42.458 -12.479   0.912  1.00  0.00    -0.270 OA
HETATM    8  H   UNL     1      39.452 -14.090   3.577  1.00  0.00     0.166 HD
ENDROOT
BRANCH   1   9
HETATM    9  C   UNL     1      42.367 -12.930   3.950  1.00  0.00     0.033 C 
HETATM   10  C   UNL     1      43.549 -13.854   3.598  1.00  0.00     0.036 C 
HETATM   11  C   UNL     1      43.263 -15.335   3.794  1.00  0.00     0.235 C 
HETATM   12  N   UNL     1      42.700 -15.636   5.162  1.00  0.00    -0.067 N 
HETATM   13  H   UNL     1      43.499 -15.599   5.805  1.00  0.00     0.280 HD
HETATM   14  C   UNL     1      41.653 -14.677   5.686  1.00  0.00     0.235 C 
HETATM   15  C   UNL     1      42.022 -13.225   5.421  1.00  0.00     0.036 C 
BRANCH  12  16
HETATM   16  C   UNL     1      42.151 -17.065   5.250  1.00  0.00     0.274 C 
BRANCH  16  17
HETATM   17  C   UNL     1      43.119 -18.150   4.850  1.00  0.00    -0.026 A 
HETATM   18  C   UNL     1      42.936 -18.773   3.595  1.00  0.00     0.016 A 
HETATM   19  C   UNL     1      43.816 -19.754   3.131  1.00  0.00    -0.061 A 
HETATM   20  C   UNL     1      43.627 -20.392   1.785  1.00  0.00     0.048 C 
HETATM   21  C   UNL     1      44.893 -20.125   3.936  1.00  0.00     0.007 A 
HETATM   22  C   UNL     1      45.077 -19.533   5.187  1.00  0.00     0.008 A 
HETATM   23  C   UNL     1      44.208 -18.536   5.656  1.00  0.00    -0.054 A 
HETATM   24  C   UNL     1      44.431 -17.985   7.038  1.00  0.00     0.049 C 
ENDBRANCH  16  17
ENDBRANCH  12  16
ENDBRANCH   1   9
BRANCH   1  25
HETATM   25  C   UNL     1      40.256 -11.748   3.081  1.00  0.00     0.072 A 
HETATM   26  N   UNL     1      40.913 -10.574   3.331  1.00  0.00    -0.262 NA
HETATM   27  C   UNL     1      40.165  -9.453   3.460  1.00  0.00     0.117 A 
HETATM   28  C   UNL     1      38.788  -9.431   3.345  1.00  0.00     0.019 A 
HETATM   29  C   UNL     1      38.135 -10.628   3.078  1.00  0.00     0.003 A 
HETATM   30  C   UNL     1      38.873 -11.801   2.934  1.00  0.00     0.030 A 
ENDBRANCH   1  25
BRANCH   5  31
HETATM   31  C   UNL     1      41.500 -14.995  -0.231  1.00  0.00     0.168 C 
BRANCH  31  32
HETATM   32  C   UNL     1      40.969 -14.243  -1.451  1.00  0.00     0.140 C 
HETATM   33  O   UNL     1      39.566 -13.973  -1.254  1.00  0.00    -0.384 OA
HETATM   34  C   UNL     1      38.860 -14.314  -2.455  1.00  0.00     0.168 C 
HETATM   35  C   UNL     1      39.907 -14.469  -3.536  1.00  0.00     0.029 C 
HETATM   36  C   UNL     1      41.077 -15.015  -2.757  1.00  0.00     0.036 C 
ENDBRANCH  31  32
ENDBRANCH   5  31
TORSDOF 6
ENDMDL
MODEL 4
REMARK VINA RESULT:      -9.0      2.165      7.225
REMARK  6 active torsions:
REMARK  status: ('A' for Active; 'I' for Inactive)
REMARK    1  A    between atoms: C_4  and  C_5 
REMARK    2  A    between atoms: C_5  and  N_6 
REMARK    3  A    between atoms: C_10  and  C_11 
REMARK    4  A    between atoms: C_11  and  C_12 
REMARK    5  A    between atoms: N_21  and  C_22 
REMARK    6  A    between atoms: C_22  and  C_23 
ROOT
HETATM    1  C   UNL     1      43.435 -18.246   3.462  1.00  0.00     0.164 A 
HETATM    2  N   UNL     1      41.993 -18.083   3.584  1.00  0.00    -0.319 N 
HETATM    3  C   UNL     1      41.610 -17.792   4.872  1.00  0.00     0.326 A 
HETATM    4  O   UNL     1      40.443 -17.687   5.202  1.00  0.00    -0.247 OA
HETATM    5  N   UNL     1      42.714 -17.613   5.633  1.00  0.00    -0.265 N 
HETATM    6  C   UNL     1      43.841 -17.914   4.916  1.00  0.00     0.263 A 
HETATM    7  O   UNL     1      44.990 -17.861   5.331  1.00  0.00    -0.270 OA
HETATM    8  H   UNL     1      41.387 -18.741   3.100  1.00  0.00     0.166 HD
ENDROOT
BRANCH   1   9
HETATM    9  C   UNL     1      44.079 -17.211   2.470  1.00  0.00     0.033 C 
HETATM   10  C   UNL     1      43.799 -15.729   2.789  1.00  0.00     0.036 C 
HETATM   11  C   UNL     1      42.366 -15.293   2.524  1.00  0.00     0.235 C 
HETATM   12  N   UNL     1      41.897 -15.669   1.140  1.00  0.00    -0.067 N 
HETATM   13  H   UNL     1      42.332 -14.989   0.505  1.00  0.00     0.280 HD
HETATM   14  C   UNL     1      42.278 -17.050   0.651  1.00  0.00     0.235 C 
HETATM   15  C   UNL     1      43.721 -17.398   0.984  1.00  0.00     0.036 C 
BRANCH  12  16
HETATM   16  C   UNL     1      40.383 -15.488   0.983  1.00  0.00     0.274 C 
BRANCH  16  17
HETATM   17  C   UNL     1      39.960 -14.549  -0.119  1.00  0.00    -0.026 A 
HETATM   18  C   UNL     1      40.893 -14.261  -1.140  1.00  0.00     0.016 A 
HETATM   19  C   UNL     1      40.563 -13.439  -2.220  1.00  0.00    -0.061 A 
HETATM   20  C   UNL     1      41.554 -13.159  -3.314  1.00  0.00     0.048 C 
HETATM   21  C   UNL     1      39.283 -12.887  -2.279  1.00  0.00     0.007 A 
HETATM   22  C   UNL     1      38.356 -13.146  -1.268  1.00  0.00     0.008 A 
HETATM   23  C   UNL     1      38.671 -13.984  -0.187  1.00  0.00    -0.054 A 
HETATM   24  C   UNL     1      37.645 -14.170   0.898  1.00  0.00     0.049 C 
ENDBRANCH  16  17
ENDBRANCH  12  16
ENDBRANCH   1   9
BRANCH   1  25
HETATM   25  C   UNL     1      43.728 -19.687   3.060  1.00  0.00     0.072 A 
HETATM   26  N   UNL     1      44.515 -20.380   3.940  1.00  0.00    -0.262 NA
HETATM   27  C   UNL     1      44.809 -21.667   3.639  1.00  0.00     0.117 A 
HETATM   28  C   UNL     1      44.353 -22.314   2.506  1.00  0.00     0.019 A 
HETATM   29  C   UNL     1      43.544 -21.603   1.628  1.00  0.00     0.003 A 
HETATM   30  C   UNL     1      43.217 -20.278   1.908  1.00  0.00     0.030 A 
ENDBRANCH   1  25
BRANCH   5  31
HETATM   31  C   UNL     1      42.700 -17.154   7.008  1.00  0.00     0.168 C 
BRANCH  31  32
HETATM   32  C   UNL     1      42.977 -15.660   7.178  1.00  0.00     0.140 C 
HETATM   33  O   UNL     1      42.467 -14.960   6.026  1.00  0.00    -0.384 OA
HETATM   34  C   UNL     1      43.464 -14.033   5.574  1.00  0.00     0.168 C 
HETATM   35  C   UNL     1      44.476 -13.916   6.692  1.00  0.00     0.029 C 
HETATM   36  C   UNL     1      44.453 -15.307   7.275  1.00  0.00     0.036 C 
ENDBRANCH  31  32
ENDBRANCH   5  31
TORSDOF 6
ENDMDL
MODEL 5
REMARK VINA RESULT:      -8.9      1.620      2.108
REMARK  6 active torsions:
REMARK  status: ('A' for Active; 'I' for Inactive)
REMARK    1  A    between atoms: C_4  and  C_5 
REMARK    2  A    between atoms: C_5  and  N_6 
REMARK    3  A    between atoms: C_10  and  C_11 
REMARK    4  A    between atoms: C_11  and  C_12 
REMARK    5  A    between atoms: N_21  and  C_22 
REMARK    6  A    between atoms: C_22  and  C_23 
ROOT
HETATM    1  C   UNL     1      40.884 -14.024   1.927  1.00  0.00     0.164 A 
HETATM    2  N   UNL     1      42.306 -13.714   1.951  1.00  0.00    -0.319 N 
HETATM    3  C   UNL     1      42.795 -13.613   3.232  1.00  0.00     0.326 A 
HETATM    4  O   UNL     1      43.944 -13.290   3.475  1.00  0.00    -0.247 OA
HETATM    5  N   UNL     1      41.823 -13.966   4.106  1.00  0.00    -0.265 N 
HETATM    6  C   UNL     1      40.641 -14.170   3.446  1.00  0.00     0.263 A 
HETATM    7  O   UNL     1      39.578 -14.488   3.962  1.00  0.00    -0.270 OA
HETATM    8  H   UNL     1      42.662 -13.011   1.306  1.00  0.00     0.166 HD
ENDROOT
BRANCH   1   9
HETATM    9  C   UNL     1      40.575 -15.381   1.196  1.00  0.00     0.033 C 
HETATM   10  C   UNL     1      40.130 -16.538   2.111  1.00  0.00     0.036 C 
HETATM   11  C   UNL     1      41.239 -17.108   2.982  1.00  0.00     0.235 C 
HETATM   12  N   UNL     1      42.471 -17.462   2.185  1.00  0.00    -0.067 N 
HETATM   13  H   UNL     1      42.250 -18.344   1.709  1.00  0.00     0.280 HD
HETATM   14  C   UNL     1      42.896 -16.470   1.124  1.00  0.00     0.235 C 
HETATM   15  C   UNL     1      41.713 -15.945   0.324  1.00  0.00     0.036 C 
BRANCH  12  16
HETATM   16  C   UNL     1      43.670 -17.759   3.093  1.00  0.00     0.274 C 
BRANCH  16  17
HETATM   17  C   UNL     1      44.027 -19.218   3.227  1.00  0.00    -0.026 A 
HETATM   18  C   UNL     1      43.785 -20.065   2.122  1.00  0.00     0.016 A 
HETATM   19  C   UNL     1      44.131 -21.418   2.149  1.00  0.00    -0.061 A 
HETATM   20  C   UNL     1      43.892 -22.304   0.961  1.00  0.00     0.048 C 
HETATM   21  C   UNL     1      44.719 -21.938   3.302  1.00  0.00     0.007 A 
HETATM   22  C   UNL     1      44.948 -21.120   4.410  1.00  0.00     0.008 A 
HETATM   23  C   UNL     1      44.620 -19.755   4.387  1.00  0.00    -0.054 A 
HETATM   24  C   UNL     1      44.836 -18.946   5.637  1.00  0.00     0.049 C 
ENDBRANCH  16  17
ENDBRANCH  12  16
ENDBRANCH   1   9
BRANCH   1  25
HETATM   25  C   UNL     1      40.141 -12.850   1.300  1.00  0.00     0.072 A 
HETATM   26  N   UNL     1      38.858 -13.124   0.910  1.00  0.00    -0.262 NA
HETATM   27  C   UNL     1      38.146 -12.119   0.348  1.00  0.00     0.117 A 
HETATM   28  C   UNL     1      38.638 -10.842   0.157  1.00  0.00     0.019 A 
HETATM   29  C   UNL     1      39.937 -10.574   0.569  1.00  0.00     0.003 A 
HETATM   30  C   UNL     1      40.699 -11.582   1.156  1.00  0.00     0.030 A 
ENDBRANCH   1  25
BRANCH   5  31
HETATM   31  C   UNL     1      42.017 -14.118   5.534  1.00  0.00     0.168 C 
BRANCH  31  32
HETATM   32  C   UNL     1      42.813 -15.360   5.935  1.00  0.00     0.140 C 
HETATM   33  O   UNL     1      41.890 -16.421   6.249  1.00  0.00    -0.384 OA
HETATM   34  C   UNL     1      42.300 -17.037   7.478  1.00  0.00     0.168 C 
HETATM   35  C   UNL     1      43.713 -16.565   7.742  1.00  0.00     0.029 C 
HETATM   36  C   UNL     1      43.685 -15.171   7.168  1.00  0.00     0.036 C 
ENDBRANCH  31  32
ENDBRANCH   5  31
TORSDOF 6
ENDMDL
MODEL 6
REMARK VINA RESULT:      -8.8      1.734      2.063
REMARK  6 active torsions:
REMARK  status: ('A' for Active; 'I' for Inactive)
REMARK    1  A    between atoms: C_4  and  C_5 
REMARK    2  A    between atoms: C_5  and  N_6 
REMARK    3  A    between atoms: C_10  and  C_11 
REMARK    4  A    between atoms: C_11  and  C_12 
REMARK    5  A    between atoms: N_21  and  C_22 
REMARK    6  A    between atoms: C_22  and  C_23 
ROOT
HETATM    1  C   UNL     1      39.943 -14.071   1.318  1.00  0.00     0.164 A 
HETATM    2  N   UNL     1      41.387 -13.900   1.409  1.00  0.00    -0.319 N 
HETATM    3  C   UNL     1      41.734 -12.666   1.906  1.00  0.00     0.326 A 
HETATM    4  O   UNL     1      42.890 -12.295   1.995  1.00  0.00    -0.247 OA
HETATM    5  N   UNL     1      40.613 -12.013   2.292  1.00  0.00    -0.265 N 
HETATM    6  C   UNL     1      39.501 -12.726   1.937  1.00  0.00     0.263 A 
HETATM    7  O   UNL     1      38.341 -12.392   2.139  1.00  0.00    -0.270 OA
HETATM    8  H   UNL     1      41.964 -14.222   0.635  1.00  0.00     0.166 HD
ENDROOT
BRANCH   1   9
HETATM    9  C   UNL     1      39.422 -15.268   2.193  1.00  0.00     0.033 C 
HETATM   10  C   UNL     1      39.883 -15.262   3.663  1.00  0.00     0.036 C 
HETATM   11  C   UNL     1      41.356 -15.590   3.857  1.00  0.00     0.235 C 
HETATM   12  N   UNL     1      41.762 -16.857   3.144  1.00  0.00    -0.067 N 
HETATM   13  H   UNL     1      41.407 -17.627   3.724  1.00  0.00     0.280 HD
HETATM   14  C   UNL     1      41.210 -17.051   1.748  1.00  0.00     0.235 C 
HETATM   15  C   UNL     1      39.739 -16.676   1.656  1.00  0.00     0.036 C 
BRANCH  12  16
HETATM   16  C   UNL     1      43.285 -17.024   3.103  1.00  0.00     0.274 C 
BRANCH  16  17
HETATM   17  C   UNL     1      43.789 -18.399   3.462  1.00  0.00    -0.026 A 
HETATM   18  C   UNL     1      43.732 -19.407   2.473  1.00  0.00     0.016 A 
HETATM   19  C   UNL     1      44.222 -20.693   2.712  1.00  0.00    -0.061 A 
HETATM   20  C   UNL     1      44.180 -21.750   1.646  1.00  0.00     0.048 C 
HETATM   21  C   UNL     1      44.771 -20.982   3.961  1.00  0.00     0.007 A 
HETATM   22  C   UNL     1      44.817 -20.004   4.956  1.00  0.00     0.008 A 
HETATM   23  C   UNL     1      44.343 -18.704   4.722  1.00  0.00    -0.054 A 
HETATM   24  C   UNL     1      44.367 -17.718   5.858  1.00  0.00     0.049 C 
ENDBRANCH  16  17
ENDBRANCH  12  16
ENDBRANCH   1   9
BRANCH   1  25
HETATM   25  C   UNL     1      39.564 -14.222  -0.150  1.00  0.00     0.072 A 
HETATM   26  N   UNL     1      40.579 -14.644  -0.965  1.00  0.00    -0.262 NA
HETATM   27  C   UNL     1      40.302 -14.801  -2.282  1.00  0.00     0.117 A 
HETATM   28  C   UNL     1      39.059 -14.566  -2.838  1.00  0.00     0.019 A 
HETATM   29  C   UNL     1      38.034 -14.151  -1.998  1.00  0.00     0.003 A 
HETATM   30  C   UNL     1      38.280 -13.985  -0.637  1.00  0.00     0.030 A 
ENDBRANCH   1  25
BRANCH   5  31
HETATM   31  C   UNL     1      40.601 -10.744   2.994  1.00  0.00     0.168 C 
BRANCH  31  32
HETATM   32  C   UNL     1      40.598 -10.866   4.518  1.00  0.00     0.140 C 
HETATM   33  O   UNL     1      41.845 -11.453   4.939  1.00  0.00    -0.384 OA
HETATM   34  C   UNL     1      41.567 -12.485   5.895  1.00  0.00     0.168 C 
HETATM   35  C   UNL     1      40.131 -12.288   6.331  1.00  0.00     0.029 C 
HETATM   36  C   UNL     1      39.496 -11.759   5.069  1.00  0.00     0.036 C 
ENDBRANCH  31  32
ENDBRANCH   5  31
TORSDOF 6
ENDMDL
MODEL 7
REMARK VINA RESULT:      -8.7      1.435      2.527
REMARK  6 active torsions:
REMARK  status: ('A' for Active; 'I' for Inactive)
REMARK    1  A    between atoms: C_4  and  C_5 
REMARK    2  A    between atoms: C_5  and  N_6 
REMARK    3  A    between atoms: C_10  and  C_11 
REMARK    4  A    between atoms: C_11  and  C_12 
REMARK    5  A    between atoms: N_21  and  C_22 
REMARK    6  A    between atoms: C_22  and  C_23 
ROOT
HETATM    1  C   UNL     1      41.191 -14.517   1.768  1.00  0.00     0.164 A 
HETATM    2  N   UNL     1      42.606 -14.494   2.110  1.00  0.00    -0.319 N 
HETATM    3  C   UNL     1      42.821 -14.072   3.401  1.00  0.00     0.326 A 
HETATM    4  O   UNL     1      43.936 -13.913   3.864  1.00  0.00    -0.247 OA
HETATM    5  N   UNL     1      41.628 -13.926   4.024  1.00  0.00    -0.265 N 
HETATM    6  C   UNL     1      40.603 -14.106   3.136  1.00  0.00     0.263 A 
HETATM    7  O   UNL     1      39.410 -14.028   3.394  1.00  0.00    -0.270 OA
HETATM    8  H   UNL     1      43.266 -14.123   1.429  1.00  0.00     0.166 HD
ENDROOT
BRANCH   1   9
HETATM    9  C   UNL     1      40.690 -15.954   1.372  1.00  0.00     0.033 C 
HETATM   10  C   UNL     1      40.504 -16.935   2.545  1.00  0.00     0.036 C 
HETATM   11  C   UNL     1      41.805 -17.416   3.170  1.00  0.00     0.235 C 
HETATM   12  N   UNL     1      42.775 -17.946   2.141  1.00  0.00    -0.067 N 
HETATM   13  H   UNL     1      42.429 -18.879   1.889  1.00  0.00     0.280 HD
HETATM   14  C   UNL     1      42.901 -17.149   0.860  1.00  0.00     0.235 C 
HETATM   15  C   UNL     1      41.548 -16.698   0.331  1.00  0.00     0.036 C 
BRANCH  12  16
HETATM   16  C   UNL     1      44.173 -18.157   2.733  1.00  0.00     0.274 C 
BRANCH  16  17
HETATM   17  C   UNL     1      44.250 -19.161   3.855  1.00  0.00    -0.026 A 
HETATM   18  C   UNL     1      44.111 -18.688   5.179  1.00  0.00     0.016 A 
HETATM   19  C   UNL     1      44.124 -19.560   6.271  1.00  0.00    -0.061 A 
HETATM   20  C   UNL     1      43.951 -19.050   7.674  1.00  0.00     0.048 C 
HETATM   21  C   UNL     1      44.286 -20.925   6.039  1.00  0.00     0.007 A 
HETATM   22  C   UNL     1      44.444 -21.407   4.739  1.00  0.00     0.008 A 
HETATM   23  C   UNL     1      44.416 -20.543   3.633  1.00  0.00    -0.054 A 
HETATM   24  C   UNL     1      44.654 -21.123   2.265  1.00  0.00     0.049 C 
ENDBRANCH  16  17
ENDBRANCH  12  16
ENDBRANCH   1   9
BRANCH   1  25
HETATM   25  C   UNL     1      40.942 -13.496   0.663  1.00  0.00     0.072 A 
HETATM   26  N   UNL     1      39.710 -13.580   0.072  1.00  0.00    -0.262 NA
HETATM   27  C   UNL     1      39.428 -12.696  -0.915  1.00  0.00     0.117 A 
HETATM   28  C   UNL     1      40.307 -11.721  -1.346  1.00  0.00     0.019 A 
HETATM   29  C   UNL     1      41.548 -11.638  -0.728  1.00  0.00     0.003 A 
HETATM   30  C   UNL     1      41.871 -12.527   0.295  1.00  0.00     0.030 A 
ENDBRANCH   1  25
BRANCH   5  31
HETATM   31  C   UNL     1      41.467 -13.633   5.435  1.00  0.00     0.168 C 
BRANCH  31  32
HETATM   32  C   UNL     1      40.886 -12.251   5.731  1.00  0.00     0.140 C 
HETATM   33  O   UNL     1      41.833 -11.511   6.527  1.00  0.00    -0.384 OA
HETATM   34  C   UNL     1      41.132 -10.893   7.616  1.00  0.00     0.168 C 
HETATM   35  C   UNL     1      39.660 -10.973   7.277  1.00  0.00     0.029 C 
HETATM   36  C   UNL     1      39.588 -12.277   6.523  1.00  0.00     0.036 C 
ENDBRANCH  31  32
ENDBRANCH   5  31
TORSDOF 6
ENDMDL
MODEL 8
REMARK VINA RESULT:      -8.5      2.410      5.273
REMARK  6 active torsions:
REMARK  status: ('A' for Active; 'I' for Inactive)
REMARK    1  A    between atoms: C_4  and  C_5 
REMARK    2  A    between atoms: C_5  and  N_6 
REMARK    3  A    between atoms: C_10  and  C_11 
REMARK    4  A    between atoms: C_11  and  C_12 
REMARK    5  A    between atoms: N_21  and  C_22 
REMARK    6  A    between atoms: C_22  and  C_23 
ROOT
HETATM    1  C   UNL     1      40.351 -13.139   1.047  1.00  0.00     0.164 A 
HETATM    2  N   UNL     1      40.280 -14.484   0.493  1.00  0.00    -0.319 N 
HETATM    3  C   UNL     1      40.980 -14.599  -0.685  1.00  0.00     0.326 A 
HETATM    4  O   UNL     1      40.990 -15.621  -1.347  1.00  0.00    -0.247 OA
HETATM    5  N   UNL     1      41.645 -13.443  -0.919  1.00  0.00    -0.265 N 
HETATM    6  C   UNL     1      41.298 -12.498   0.008  1.00  0.00     0.263 A 
HETATM    7  O   UNL     1      41.722 -11.352   0.055  1.00  0.00    -0.270 OA
HETATM    8  H   UNL     1      39.384 -14.968   0.503  1.00  0.00     0.166 HD
ENDROOT
BRANCH   1   9
HETATM    9  C   UNL     1      41.009 -13.107   2.473  1.00  0.00     0.033 C 
HETATM   10  C   UNL     1      42.517 -13.421   2.511  1.00  0.00     0.036 C 
HETATM   11  C   UNL     1      42.860 -14.878   2.241  1.00  0.00     0.235 C 
HETATM   12  N   UNL     1      42.065 -15.825   3.107  1.00  0.00    -0.067 N 
HETATM   13  H   UNL     1      42.503 -15.786   4.035  1.00  0.00     0.280 HD
HETATM   14  C   UNL     1      40.597 -15.504   3.287  1.00  0.00     0.235 C 
HETATM   15  C   UNL     1      40.361 -14.021   3.530  1.00  0.00     0.036 C 
BRANCH  12  16
HETATM   16  C   UNL     1      42.200 -17.277   2.635  1.00  0.00     0.274 C 
BRANCH  16  17
HETATM   17  C   UNL     1      43.182 -18.117   3.414  1.00  0.00    -0.026 A 
HETATM   18  C   UNL     1      43.685 -17.595   4.626  1.00  0.00     0.016 A 
HETATM   19  C   UNL     1      44.562 -18.329   5.430  1.00  0.00    -0.061 A 
HETATM   20  C   UNL     1      45.071 -17.776   6.730  1.00  0.00     0.048 C 
HETATM   21  C   UNL     1      44.950 -19.602   5.011  1.00  0.00     0.007 A 
HETATM   22  C   UNL     1      44.477 -20.124   3.806  1.00  0.00     0.008 A 
HETATM   23  C   UNL     1      43.584 -19.402   3.000  1.00  0.00    -0.054 A 
HETATM   24  C   UNL     1      43.164 -20.000   1.684  1.00  0.00     0.049 C 
ENDBRANCH  16  17
ENDBRANCH  12  16
ENDBRANCH   1   9
BRANCH   1  25
HETATM   25  C   UNL     1      38.949 -12.540   1.046  1.00  0.00     0.072 A 
HETATM   26  N   UNL     1      38.812 -11.398   1.788  1.00  0.00    -0.262 NA
HETATM   27  C   UNL     1      37.590 -10.817   1.825  1.00  0.00     0.117 A 
HETATM   28  C   UNL     1      36.487 -11.306   1.152  1.00  0.00     0.019 A 
HETATM   29  C   UNL     1      36.642 -12.458   0.392  1.00  0.00     0.003 A 
HETATM   30  C   UNL     1      37.886 -13.081   0.327  1.00  0.00     0.030 A 
ENDBRANCH   1  25
BRANCH   5  31
HETATM   31  C   UNL     1      42.599 -13.247  -1.993  1.00  0.00     0.168 C 
BRANCH  31  32
HETATM   32  C   UNL     1      42.020 -12.570  -3.236  1.00  0.00     0.140 C 
HETATM   33  O   UNL     1      42.252 -11.151  -3.140  1.00  0.00    -0.384 OA
HETATM   34  C   UNL     1      41.037 -10.464  -3.476  1.00  0.00     0.168 C 
HETATM   35  C   UNL     1      40.136 -11.487  -4.132  1.00  0.00     0.029 C 
HETATM   36  C   UNL     1      40.519 -12.749  -3.402  1.00  0.00     0.036 C 
ENDBRANCH  31  32
ENDBRANCH   5  31
TORSDOF 6
ENDMDL
MODEL 9
REMARK VINA RESULT:      -8.4      2.441      5.304
REMARK  6 active torsions:
REMARK  status: ('A' for Active; 'I' for Inactive)
REMARK    1  A    between atoms: C_4  and  C_5 
REMARK    2  A    between atoms: C_5  and  N_6 
REMARK    3  A    between atoms: C_10  and  C_11 
REMARK    4  A    between atoms: C_11  and  C_12 
REMARK    5  A    between atoms: N_21  and  C_22 
REMARK    6  A    between atoms: C_22  and  C_23 
ROOT
HETATM    1  C   UNL     1      40.130 -13.084  -0.327  1.00  0.00     0.164 A 
HETATM    2  N   UNL     1      41.578 -12.970  -0.225  1.00  0.00    -0.319 N 
HETATM    3  C   UNL     1      42.013 -11.681  -0.431  1.00  0.00     0.326 A 
HETATM    4  O   UNL     1      43.193 -11.382  -0.459  1.00  0.00    -0.247 OA
HETATM    5  N   UNL     1      40.940 -10.864  -0.540  1.00  0.00    -0.265 N 
HETATM    6  C   UNL     1      39.783 -11.596  -0.551  1.00  0.00     0.263 A 
HETATM    7  O   UNL     1      38.651 -11.144  -0.650  1.00  0.00    -0.270 OA
HETATM    8  H   UNL     1      42.155 -13.686  -0.662  1.00  0.00     0.166 HD
ENDROOT
BRANCH   1   9
HETATM    9  C   UNL     1      39.471 -13.600   1.003  1.00  0.00     0.033 C 
HETATM   10  C   UNL     1      39.970 -12.922   2.294  1.00  0.00     0.036 C 
HETATM   11  C   UNL     1      41.388 -13.305   2.692  1.00  0.00     0.235 C 
HETATM   12  N   UNL     1      41.591 -14.800   2.726  1.00  0.00    -0.067 N 
HETATM   13  H   UNL     1      41.149 -15.121   3.596  1.00  0.00     0.280 HD
HETATM   14  C   UNL     1      40.978 -15.590   1.590  1.00  0.00     0.235 C 
HETATM   15  C   UNL     1      39.572 -15.116   1.256  1.00  0.00     0.036 C 
BRANCH  12  16
HETATM   16  C   UNL     1      43.074 -15.171   2.843  1.00  0.00     0.274 C 
BRANCH  16  17
HETATM   17  C   UNL     1      43.353 -16.502   3.496  1.00  0.00    -0.026 A 
HETATM   18  C   UNL     1      43.160 -16.610   4.891  1.00  0.00     0.016 A 
HETATM   19  C   UNL     1      43.351 -17.820   5.563  1.00  0.00    -0.061 A 
HETATM   20  C   UNL     1      43.119 -17.932   7.043  1.00  0.00     0.048 C 
HETATM   21  C   UNL     1      43.752 -18.939   4.832  1.00  0.00     0.007 A 
HETATM   22  C   UNL     1      43.966 -18.844   3.456  1.00  0.00     0.008 A 
HETATM   23  C   UNL     1      43.761 -17.637   2.768  1.00  0.00    -0.054 A 
HETATM   24  C   UNL     1      44.070 -17.591   1.296  1.00  0.00     0.049 C 
ENDBRANCH  16  17
ENDBRANCH  12  16
ENDBRANCH   1   9
BRANCH   1  25
HETATM   25  C   UNL     1      39.796 -13.976  -1.518  1.00  0.00     0.072 A 
HETATM   26  N   UNL     1      40.841 -14.727  -1.983  1.00  0.00    -0.262 NA
HETATM   27  C   UNL     1      40.606 -15.542  -3.039  1.00  0.00     0.117 A 
HETATM   28  C   UNL     1      39.377 -15.659  -3.660  1.00  0.00     0.019 A 
HETATM   29  C   UNL     1      38.322 -14.901  -3.169  1.00  0.00     0.003 A 
HETATM   30  C   UNL     1      38.525 -14.055  -2.081  1.00  0.00     0.030 A 
ENDBRANCH   1  25
BRANCH   5  31
HETATM   31  C   UNL     1      41.012  -9.418  -0.619  1.00  0.00     0.168 C 
BRANCH  31  32
HETATM   32  C   UNL     1      41.144  -8.869  -2.039  1.00  0.00     0.140 C 
HETATM   33  O   UNL     1      40.616  -9.840  -2.963  1.00  0.00    -0.384 OA
HETATM   34  C   UNL     1      41.540  -9.990  -4.050  1.00  0.00     0.168 C 
HETATM   35  C   UNL     1      42.496  -8.820  -3.962  1.00  0.00     0.029 C 
HETATM   36  C   UNL     1      42.578  -8.600  -2.473  1.00  0.00     0.036 C 
ENDBRANCH  31  32
ENDBRANCH   5  31
TORSDOF 6
ENDMDL
MODEL 10
REMARK VINA RESULT:      -8.4      3.447      7.679
REMARK  6 active torsions:
REMARK  status: ('A' for Active; 'I' for Inactive)
REMARK    1  A    between atoms: C_4  and  C_5 
REMARK    2  A    between atoms: C_5  and  N_6 
REMARK    3  A    between atoms: C_10  and  C_11 
REMARK    4  A    between atoms: C_11  and  C_12 
REMARK    5  A    between atoms: N_21  and  C_22 
REMARK    6  A    between atoms: C_22  and  C_23 
ROOT
HETATM    1  C   UNL     1      42.748 -16.712   4.291  1.00  0.00     0.164 A 
HETATM    2  N   UNL     1      43.633 -15.599   3.975  1.00  0.00    -0.319 N 
HETATM    3  C   UNL     1      43.114 -14.786   2.995  1.00  0.00     0.326 A 
HETATM    4  O   UNL     1      43.727 -13.840   2.534  1.00  0.00    -0.247 OA
HETATM    5  N   UNL     1      41.858 -15.193   2.701  1.00  0.00    -0.265 N 
HETATM    6  C   UNL     1      41.565 -16.353   3.365  1.00  0.00     0.263 A 
HETATM    7  O   UNL     1      40.512 -16.972   3.296  1.00  0.00    -0.270 OA
HETATM    8  H   UNL     1      44.631 -15.780   3.891  1.00  0.00     0.166 HD
ENDROOT
BRANCH   1   9
HETATM    9  C   UNL     1      42.283 -16.705   5.792  1.00  0.00     0.033 C 
HETATM   10  C   UNL     1      41.531 -15.438   6.244  1.00  0.00     0.036 C 
HETATM   11  C   UNL     1      42.409 -14.202   6.373  1.00  0.00     0.235 C 
HETATM   12  N   UNL     1      43.639 -14.456   7.210  1.00  0.00    -0.067 N 
HETATM   13  H   UNL     1      43.316 -14.456   8.184  1.00  0.00     0.280 HD
HETATM   14  C   UNL     1      44.358 -15.767   6.973  1.00  0.00     0.235 C 
HETATM   15  C   UNL     1      43.391 -16.934   6.837  1.00  0.00     0.036 C 
BRANCH  12  16
HETATM   16  C   UNL     1      44.650 -13.310   7.097  1.00  0.00     0.274 C 
BRANCH  16  17
HETATM   17  C   UNL     1      44.723 -12.399   8.297  1.00  0.00    -0.026 A 
HETATM   18  C   UNL     1      43.533 -12.151   9.016  1.00  0.00     0.016 A 
HETATM   19  C   UNL     1      43.524 -11.357  10.165  1.00  0.00    -0.061 A 
HETATM   20  C   UNL     1      42.258 -11.120  10.937  1.00  0.00     0.048 C 
HETATM   21  C   UNL     1      44.724 -10.792  10.600  1.00  0.00     0.007 A 
HETATM   22  C   UNL     1      45.906 -11.011   9.891  1.00  0.00     0.008 A 
HETATM   23  C   UNL     1      45.928 -11.821   8.744  1.00  0.00    -0.054 A 
HETATM   24  C   UNL     1      47.225 -11.963   7.994  1.00  0.00     0.049 C 
ENDBRANCH  16  17
ENDBRANCH  12  16
ENDBRANCH   1   9
BRANCH   1  25
HETATM   25  C   UNL     1      43.449 -18.012   3.912  1.00  0.00     0.072 A 
HETATM   26  N   UNL     1      44.033 -18.675   4.956  1.00  0.00    -0.262 NA
HETATM   27  C   UNL     1      44.669 -19.839   4.683  1.00  0.00     0.117 A 
HETATM   28  C   UNL     1      44.751 -20.390   3.419  1.00  0.00     0.019 A 
HETATM   29  C   UNL     1      44.142 -19.714   2.370  1.00  0.00     0.003 A 
HETATM   30  C   UNL     1      43.474 -18.516   2.614  1.00  0.00     0.030 A 
ENDBRANCH   1  25
BRANCH   5  31
HETATM   31  C   UNL     1      40.950 -14.486   1.818  1.00  0.00     0.168 C 
BRANCH  31  32
HETATM   32  C   UNL     1      41.358 -14.507   0.345  1.00  0.00     0.140 C 
HETATM   33  O   UNL     1      40.452 -13.667  -0.399  1.00  0.00    -0.384 OA
HETATM   34  C   UNL     1      40.039 -14.371  -1.579  1.00  0.00     0.168 C 
HETATM   35  C   UNL     1      40.990 -15.536  -1.737  1.00  0.00     0.029 C 
HETATM   36  C   UNL     1      41.295 -15.883  -0.301  1.00  0.00     0.036 C 
ENDBRANCH  31  32
ENDBRANCH   5  31
TORSDOF 6
ENDMDL
