MODEL 1
REMARK VINA RESULT:      -7.7      0.000      0.000
REMARK  4 active torsions:
REMARK  status: ('A' for Active; 'I' for Inactive)
REMARK    1  A    between atoms: C_8  and  N_9 
REMARK       I    between atoms: N_9  and  C_10 
REMARK       I    between atoms: C_10  and  N_11 
REMARK    2  A    between atoms: N_11  and  C_12 
REMARK    3  A    between atoms: C_15  and  C_16 
REMARK       I    between atoms: C_16  and  N_17 
REMARK    4  A    between atoms: N_17  and  C_18 
ROOT
HETATM    1  C   UNL     1      40.677 -14.771   5.614  1.00  0.00     0.036 A 
HETATM    2  C   UNL     1      40.487 -14.933   4.240  1.00  0.00     0.030 A 
HETATM    3  C   UNL     1      41.300 -15.805   3.505  1.00  0.00     0.019 A 
HETATM    4  C   UNL     1      42.330 -16.510   4.136  1.00  0.00     0.032 A 
HETATM    5  C   UNL     1      42.482 -16.397   5.521  1.00  0.00     0.019 A 
HETATM    6  C   UNL     1      41.661 -15.534   6.254  1.00  0.00     0.030 A 
ENDROOT
BRANCH   1   7
HETATM    7  N   UNL     1      39.979 -13.831   6.400  1.00  0.00    -0.309 N 
HETATM    8  C   UNL     1      40.259 -12.479   6.554  1.00  0.00     0.325 C 
HETATM    9  N   UNL     1      39.572 -11.978   7.648  1.00  0.00    -0.305 N 
HETATM   10  O   UNL     1      41.031 -11.841   5.853  1.00  0.00    -0.247 OA
HETATM   11  H   UNL     1      39.236 -12.659   8.310  1.00  0.00     0.171 HD
HETATM   12  H   UNL     1      39.161 -14.172   6.880  1.00  0.00     0.170 HD
BRANCH   9  13
HETATM   13  C   UNL     1      39.584 -10.669   8.104  1.00  0.00     0.086 A 
HETATM   14  C   UNL     1      39.878 -10.360   9.419  1.00  0.00     0.052 A 
HETATM   15  C   UNL     1      40.242 -11.191  10.591  1.00  0.00     0.072 C 
HETATM   16  N   UNL     1      39.820  -8.999   9.505  1.00  0.00    -0.280 N 
HETATM   17  H   UNL     1      39.999  -8.412  10.313  1.00  0.00     0.189 HD
HETATM   18  N   UNL     1      39.477  -8.400   8.362  1.00  0.00    -0.177 NA
HETATM   19  C   UNL     1      39.323  -9.409   7.490  1.00  0.00     0.079 A 
HETATM   20  C   UNL     1      38.896  -9.078   6.108  1.00  0.00     0.075 C 
ENDBRANCH   9  13
ENDBRANCH   1   7
BRANCH   4  21
HETATM   21  C   UNL     1      43.310 -17.347   3.381  1.00  0.00     0.252 C 
HETATM   22  N   UNL     1      43.368 -18.680   3.740  1.00  0.00    -0.352 N 
HETATM   23  H   UNL     1      42.653 -19.026   4.364  1.00  0.00     0.163 HD
HETATM   24  O   UNL     1      43.950 -16.853   2.460  1.00  0.00    -0.268 OA
BRANCH  22  25
HETATM   25  C   UNL     1      44.062 -19.694   2.972  1.00  0.00     0.084 C 
HETATM   26  C   UNL     1      44.513 -20.895   3.803  1.00  0.00     0.025 C 
HETATM   27  C   UNL     1      44.796 -21.945   2.743  1.00  0.00     0.002 C 
HETATM   28  C   UNL     1      43.643 -21.775   1.763  1.00  0.00     0.002 C 
HETATM   29  C   UNL     1      43.304 -20.283   1.776  1.00  0.00     0.025 C 
ENDBRANCH  22  25
ENDBRANCH   4  21
TORSDOF 4
ENDMDL
MODEL 2
REMARK VINA RESULT:      -7.6      5.576      8.305
REMARK  4 active torsions:
REMARK  status: ('A' for Active; 'I' for Inactive)
REMARK    1  A    between atoms: C_8  and  N_9 
REMARK       I    between atoms: N_9  and  C_10 
REMARK       I    between atoms: C_10  and  N_11 
REMARK    2  A    between atoms: N_11  and  C_12 
REMARK    3  A    between atoms: C_15  and  C_16 
REMARK       I    between atoms: C_16  and  N_17 
REMARK    4  A    between atoms: N_17  and  C_18 
ROOT
HETATM    1  C   UNL     1      41.726 -16.698   0.332  1.00  0.00     0.036 A 
HETATM    2  C   UNL     1      43.002 -17.188   0.617  1.00  0.00     0.030 A 
HETATM    3  C   UNL     1      43.335 -17.602   1.913  1.00  0.00     0.019 A 
HETATM    4  C   UNL     1      42.398 -17.508   2.947  1.00  0.00     0.032 A 
HETATM    5  C   UNL     1      41.101 -17.075   2.651  1.00  0.00     0.019 A 
HETATM    6  C   UNL     1      40.768 -16.675   1.353  1.00  0.00     0.030 A 
ENDROOT
BRANCH   1   7
HETATM    7  N   UNL     1      41.351 -16.158  -0.915  1.00  0.00    -0.309 N 
HETATM    8  C   UNL     1      41.167 -14.819  -1.239  1.00  0.00     0.325 C 
HETATM    9  N   UNL     1      40.483 -14.715  -2.440  1.00  0.00    -0.305 N 
HETATM   10  O   UNL     1      41.517 -13.878  -0.543  1.00  0.00    -0.247 OA
HETATM   11  H   UNL     1      39.985 -15.538  -2.739  1.00  0.00     0.171 HD
HETATM   12  H   UNL     1      41.236 -16.816  -1.670  1.00  0.00     0.170 HD
BRANCH   9  13
HETATM   13  C   UNL     1      40.133 -13.545  -3.094  1.00  0.00     0.086 A 
HETATM   14  C   UNL     1      38.824 -13.272  -3.444  1.00  0.00     0.052 A 
HETATM   15  C   UNL     1      37.555 -14.012  -3.250  1.00  0.00     0.072 C 
HETATM   16  N   UNL     1      38.846 -12.044  -4.042  1.00  0.00    -0.280 N 
HETATM   17  H   UNL     1      38.065 -11.511  -4.409  1.00  0.00     0.189 HD
HETATM   18  N   UNL     1      40.067 -11.514  -4.142  1.00  0.00    -0.177 NA
HETATM   19  C   UNL     1      40.873 -12.422  -3.569  1.00  0.00     0.079 A 
HETATM   20  C   UNL     1      42.331 -12.148  -3.551  1.00  0.00     0.075 C 
ENDBRANCH   9  13
ENDBRANCH   1   7
BRANCH   4  21
HETATM   21  C   UNL     1      42.738 -17.806   4.369  1.00  0.00     0.252 C 
HETATM   22  N   UNL     1      43.815 -17.116   4.890  1.00  0.00    -0.352 N 
HETATM   23  H   UNL     1      44.196 -16.361   4.338  1.00  0.00     0.163 HD
HETATM   24  O   UNL     1      42.031 -18.570   5.017  1.00  0.00    -0.268 OA
BRANCH  22  25
HETATM   25  C   UNL     1      44.146 -17.078   6.301  1.00  0.00     0.084 C 
HETATM   26  C   UNL     1      42.946 -16.807   7.208  1.00  0.00     0.025 C 
HETATM   27  C   UNL     1      43.457 -17.239   8.571  1.00  0.00     0.002 C 
HETATM   28  C   UNL     1      44.221 -18.521   8.270  1.00  0.00     0.002 C 
HETATM   29  C   UNL     1      44.824 -18.328   6.877  1.00  0.00     0.025 C 
ENDBRANCH  22  25
ENDBRANCH   4  21
TORSDOF 4
ENDMDL
MODEL 3
REMARK VINA RESULT:      -7.5      5.558      9.004
REMARK  4 active torsions:
REMARK  status: ('A' for Active; 'I' for Inactive)
REMARK    1  A    between atoms: C_8  and  N_9 
REMARK       I    between atoms: N_9  and  C_10 
REMARK       I    between atoms: C_10  and  N_11 
REMARK    2  A    between atoms: N_11  and  C_12 
REMARK    3  A    between atoms: C_15  and  C_16 
REMARK       I    between atoms: C_16  and  N_17 
REMARK    4  A    between atoms: N_17  and  C_18 
ROOT
HETATM    1  C   UNL     1      42.896 -16.078   2.398  1.00  0.00     0.036 A 
HETATM    2  C   UNL     1      42.784 -14.733   2.757  1.00  0.00     0.030 A 
HETATM    3  C   UNL     1      42.177 -13.811   1.895  1.00  0.00     0.019 A 
HETATM    4  C   UNL     1      41.692 -14.224   0.649  1.00  0.00     0.032 A 
HETATM    5  C   UNL     1      41.747 -15.580   0.313  1.00  0.00     0.019 A 
HETATM    6  C   UNL     1      42.344 -16.500   1.182  1.00  0.00     0.030 A 
ENDROOT
BRANCH   1   7
HETATM    7  N   UNL     1      43.592 -17.040   3.157  1.00  0.00    -0.309 N 
HETATM    8  C   UNL     1      43.079 -17.883   4.136  1.00  0.00     0.325 C 
HETATM    9  N   UNL     1      44.115 -18.431   4.875  1.00  0.00    -0.305 N 
HETATM   10  O   UNL     1      41.889 -18.074   4.339  1.00  0.00    -0.247 OA
HETATM   11  H   UNL     1      45.001 -17.955   4.816  1.00  0.00     0.171 HD
HETATM   12  H   UNL     1      44.570 -17.156   2.941  1.00  0.00     0.170 HD
BRANCH   9  13
HETATM   13  C   UNL     1      43.998 -19.330   5.922  1.00  0.00     0.086 A 
HETATM   14  C   UNL     1      43.634 -18.923   7.193  1.00  0.00     0.052 A 
HETATM   15  C   UNL     1      43.283 -17.602   7.765  1.00  0.00     0.072 C 
HETATM   16  N   UNL     1      43.597 -20.058   7.952  1.00  0.00    -0.280 N 
HETATM   17  H   UNL     1      43.349 -20.150   8.931  1.00  0.00     0.189 HD
HETATM   18  N   UNL     1      43.943 -21.163   7.288  1.00  0.00    -0.177 NA
HETATM   19  C   UNL     1      44.197 -20.738   6.041  1.00  0.00     0.079 A 
HETATM   20  C   UNL     1      44.654 -21.735   5.042  1.00  0.00     0.075 C 
ENDBRANCH   9  13
ENDBRANCH   1   7
BRANCH   4  21
HETATM   21  C   UNL     1      41.159 -13.264  -0.363  1.00  0.00     0.252 C 
HETATM   22  N   UNL     1      42.096 -12.467  -0.992  1.00  0.00    -0.352 N 
HETATM   23  H   UNL     1      43.070 -12.688  -0.843  1.00  0.00     0.163 HD
HETATM   24  O   UNL     1      39.964 -13.270  -0.637  1.00  0.00    -0.268 OA
BRANCH  22  25
HETATM   25  C   UNL     1      41.816 -11.661  -2.163  1.00  0.00     0.084 C 
HETATM   26  C   UNL     1      42.737 -10.451  -2.313  1.00  0.00     0.025 C 
HETATM   27  C   UNL     1      42.536 -10.058  -3.766  1.00  0.00     0.002 C 
HETATM   28  C   UNL     1      42.506 -11.397  -4.491  1.00  0.00     0.002 C 
HETATM   29  C   UNL     1      41.861 -12.384  -3.515  1.00  0.00     0.025 C 
ENDBRANCH  22  25
ENDBRANCH   4  21
TORSDOF 4
ENDMDL
MODEL 4
REMARK VINA RESULT:      -7.5      5.745      7.484
REMARK  4 active torsions:
REMARK  status: ('A' for Active; 'I' for Inactive)
REMARK    1  A    between atoms: C_8  and  N_9 
REMARK       I    between atoms: N_9  and  C_10 
REMARK       I    between atoms: C_10  and  N_11 
REMARK    2  A    between atoms: N_11  and  C_12 
REMARK    3  A    between atoms: C_15  and  C_16 
REMARK       I    between atoms: C_16  and  N_17 
REMARK    4  A    between atoms: N_17  and  C_18 
ROOT
HETATM    1  C   UNL     1      40.987 -15.743   1.091  1.00  0.00     0.036 A 
HETATM    2  C   UNL     1      41.774 -15.177   2.096  1.00  0.00     0.030 A 
HETATM    3  C   UNL     1      42.673 -15.963   2.829  1.00  0.00     0.019 A 
HETATM    4  C   UNL     1      42.778 -17.334   2.577  1.00  0.00     0.032 A 
HETATM    5  C   UNL     1      42.037 -17.892   1.530  1.00  0.00     0.019 A 
HETATM    6  C   UNL     1      41.149 -17.102   0.793  1.00  0.00     0.030 A 
ENDROOT
BRANCH   1   7
HETATM    7  N   UNL     1      39.982 -15.046   0.391  1.00  0.00    -0.309 N 
HETATM    8  C   UNL     1      40.061 -14.494  -0.882  1.00  0.00     0.325 C 
HETATM    9  N   UNL     1      39.009 -13.615  -1.079  1.00  0.00    -0.305 N 
HETATM   10  O   UNL     1      40.953 -14.719  -1.686  1.00  0.00    -0.247 OA
HETATM   11  H   UNL     1      38.544 -13.286  -0.248  1.00  0.00     0.171 HD
HETATM   12  H   UNL     1      39.089 -14.968   0.853  1.00  0.00     0.170 HD
BRANCH   9  13
HETATM   13  C   UNL     1      38.742 -12.890  -2.229  1.00  0.00     0.086 A 
HETATM   14  C   UNL     1      38.058 -13.443  -3.296  1.00  0.00     0.052 A 
HETATM   15  C   UNL     1      37.457 -14.779  -3.521  1.00  0.00     0.072 C 
HETATM   16  N   UNL     1      37.958 -12.453  -4.230  1.00  0.00    -0.280 N 
HETATM   17  H   UNL     1      37.501 -12.488  -5.135  1.00  0.00     0.189 HD
HETATM   18  N   UNL     1      38.553 -11.313  -3.874  1.00  0.00    -0.177 NA
HETATM   19  C   UNL     1      39.045 -11.561  -2.650  1.00  0.00     0.079 A 
HETATM   20  C   UNL     1      39.815 -10.486  -1.976  1.00  0.00     0.075 C 
ENDBRANCH   9  13
ENDBRANCH   1   7
BRANCH   4  21
HETATM   21  C   UNL     1      43.617 -18.242   3.413  1.00  0.00     0.252 C 
HETATM   22  N   UNL     1      43.618 -19.574   3.045  1.00  0.00    -0.352 N 
HETATM   23  H   UNL     1      43.186 -19.814   2.164  1.00  0.00     0.163 HD
HETATM   24  O   UNL     1      44.302 -17.777   4.317  1.00  0.00    -0.268 OA
BRANCH  22  25
HETATM   25  C   UNL     1      44.547 -20.557   3.566  1.00  0.00     0.084 C 
HETATM   26  C   UNL     1      44.376 -20.836   5.059  1.00  0.00     0.025 C 
HETATM   27  C   UNL     1      45.123 -22.146   5.240  1.00  0.00     0.002 C 
HETATM   28  C   UNL     1      44.721 -22.952   4.012  1.00  0.00     0.002 C 
HETATM   29  C   UNL     1      44.539 -21.931   2.886  1.00  0.00     0.025 C 
ENDBRANCH  22  25
ENDBRANCH   4  21
TORSDOF 4
ENDMDL
MODEL 5
REMARK VINA RESULT:      -7.4      1.972      9.892
REMARK  4 active torsions:
REMARK  status: ('A' for Active; 'I' for Inactive)
REMARK    1  A    between atoms: C_8  and  N_9 
REMARK       I    between atoms: N_9  and  C_10 
REMARK       I    between atoms: C_10  and  N_11 
REMARK    2  A    between atoms: N_11  and  C_12 
REMARK    3  A    between atoms: C_15  and  C_16 
REMARK       I    between atoms: C_16  and  N_17 
REMARK    4  A    between atoms: N_17  and  C_18 
ROOT
HETATM    1  C   UNL     1      41.589 -14.293   4.879  1.00  0.00     0.036 A 
HETATM    2  C   UNL     1      40.214 -14.327   5.120  1.00  0.00     0.030 A 
HETATM    3  C   UNL     1      39.598 -13.326   5.883  1.00  0.00     0.019 A 
HETATM    4  C   UNL     1      40.359 -12.289   6.432  1.00  0.00     0.032 A 
HETATM    5  C   UNL     1      41.725 -12.220   6.141  1.00  0.00     0.019 A 
HETATM    6  C   UNL     1      42.334 -13.214   5.369  1.00  0.00     0.030 A 
ENDROOT
BRANCH   1   7
HETATM    7  N   UNL     1      42.298 -15.319   4.221  1.00  0.00    -0.309 N 
HETATM    8  C   UNL     1      42.526 -16.615   4.668  1.00  0.00     0.325 C 
HETATM    9  N   UNL     1      43.530 -17.203   3.916  1.00  0.00    -0.305 N 
HETATM   10  O   UNL     1      41.955 -17.138   5.613  1.00  0.00    -0.247 OA
HETATM   11  H   UNL     1      44.121 -16.573   3.397  1.00  0.00     0.171 HD
HETATM   12  H   UNL     1      42.653 -15.098   3.304  1.00  0.00     0.170 HD
BRANCH   9  13
HETATM   13  C   UNL     1      44.018 -18.492   4.052  1.00  0.00     0.086 A 
HETATM   14  C   UNL     1      44.769 -18.872   5.149  1.00  0.00     0.052 A 
HETATM   15  C   UNL     1      45.215 -18.149   6.364  1.00  0.00     0.072 C 
HETATM   16  N   UNL     1      45.057 -20.194   4.964  1.00  0.00    -0.280 N 
HETATM   17  H   UNL     1      45.574 -20.816   5.577  1.00  0.00     0.189 HD
HETATM   18  N   UNL     1      44.586 -20.694   3.820  1.00  0.00    -0.177 NA
HETATM   19  C   UNL     1      43.949 -19.664   3.242  1.00  0.00     0.079 A 
HETATM   20  C   UNL     1      43.334 -19.882   1.910  1.00  0.00     0.075 C 
ENDBRANCH   9  13
ENDBRANCH   1   7
BRANCH   4  21
HETATM   21  C   UNL     1      39.780 -11.274   7.362  1.00  0.00     0.252 C 
HETATM   22  N   UNL     1      40.213 -11.338   8.672  1.00  0.00    -0.352 N 
HETATM   23  H   UNL     1      40.989 -11.952   8.876  1.00  0.00     0.163 HD
HETATM   24  O   UNL     1      39.025 -10.411   6.928  1.00  0.00    -0.268 OA
BRANCH  22  25
HETATM   25  C   UNL     1      39.966 -10.305   9.657  1.00  0.00     0.084 C 
HETATM   26  C   UNL     1      40.100 -10.785  11.102  1.00  0.00     0.025 C 
HETATM   27  C   UNL     1      40.226  -9.484  11.875  1.00  0.00     0.002 C 
HETATM   28  C   UNL     1      41.150  -8.646  11.002  1.00  0.00     0.002 C 
HETATM   29  C   UNL     1      40.837  -9.046   9.559  1.00  0.00     0.025 C 
ENDBRANCH  22  25
ENDBRANCH   4  21
TORSDOF 4
ENDMDL
MODEL 6
REMARK VINA RESULT:      -7.4      3.707      9.534
REMARK  4 active torsions:
REMARK  status: ('A' for Active; 'I' for Inactive)
REMARK    1  A    between atoms: C_8  and  N_9 
REMARK       I    between atoms: N_9  and  C_10 
REMARK       I    between atoms: C_10  and  N_11 
REMARK    2  A    between atoms: N_11  and  C_12 
REMARK    3  A    between atoms: C_15  and  C_16 
REMARK       I    between atoms: C_16  and  N_17 
REMARK    4  A    between atoms: N_17  and  C_18 
ROOT
HETATM    1  C   UNL     1      42.648 -13.502   5.722  1.00  0.00     0.036 A 
HETATM    2  C   UNL     1      42.001 -12.319   6.087  1.00  0.00     0.030 A 
HETATM    3  C   UNL     1      42.449 -11.568   7.182  1.00  0.00     0.019 A 
HETATM    4  C   UNL     1      43.539 -12.007   7.940  1.00  0.00     0.032 A 
HETATM    5  C   UNL     1      44.226 -13.158   7.540  1.00  0.00     0.019 A 
HETATM    6  C   UNL     1      43.783 -13.899   6.439  1.00  0.00     0.030 A 
ENDROOT
BRANCH   1   7
HETATM    7  N   UNL     1      42.191 -14.368   4.709  1.00  0.00    -0.309 N 
HETATM    8  C   UNL     1      42.342 -14.222   3.335  1.00  0.00     0.325 C 
HETATM    9  N   UNL     1      41.479 -15.081   2.673  1.00  0.00    -0.305 N 
HETATM   10  O   UNL     1      43.091 -13.421   2.796  1.00  0.00    -0.247 OA
HETATM   11  H   UNL     1      40.711 -15.442   3.215  1.00  0.00     0.171 HD
HETATM   12  H   UNL     1      41.731 -15.210   5.017  1.00  0.00     0.170 HD
BRANCH   9  13
HETATM   13  C   UNL     1      41.356 -15.234   1.302  1.00  0.00     0.086 A 
HETATM   14  C   UNL     1      42.075 -16.192   0.610  1.00  0.00     0.052 A 
HETATM   15  C   UNL     1      43.047 -17.225   1.039  1.00  0.00     0.072 C 
HETATM   16  N   UNL     1      41.694 -16.074  -0.696  1.00  0.00    -0.280 N 
HETATM   17  H   UNL     1      41.996 -16.626  -1.491  1.00  0.00     0.189 HD
HETATM   18  N   UNL     1      40.814 -15.094  -0.915  1.00  0.00    -0.177 NA
HETATM   19  C   UNL     1      40.597 -14.563   0.298  1.00  0.00     0.079 A 
HETATM   20  C   UNL     1      39.678 -13.402   0.398  1.00  0.00     0.075 C 
ENDBRANCH   9  13
ENDBRANCH   1   7
BRANCH   4  21
HETATM   21  C   UNL     1      43.974 -11.322   9.192  1.00  0.00     0.252 C 
HETATM   22  N   UNL     1      43.085 -11.372  10.249  1.00  0.00    -0.352 N 
HETATM   23  H   UNL     1      42.288 -11.985  10.157  1.00  0.00     0.163 HD
HETATM   24  O   UNL     1      45.091 -10.821   9.256  1.00  0.00    -0.268 OA
BRANCH  22  25
HETATM   25  C   UNL     1      43.420 -10.990  11.606  1.00  0.00     0.084 C 
HETATM   26  C   UNL     1      43.328  -9.487  11.864  1.00  0.00     0.025 C 
HETATM   27  C   UNL     1      43.292  -9.411  13.380  1.00  0.00     0.002 C 
HETATM   28  C   UNL     1      42.368 -10.557  13.767  1.00  0.00     0.002 C 
HETATM   29  C   UNL     1      42.600 -11.650  12.722  1.00  0.00     0.025 C 
ENDBRANCH  22  25
ENDBRANCH   4  21
TORSDOF 4
ENDMDL
MODEL 7
REMARK VINA RESULT:      -7.4      5.845      9.996
REMARK  4 active torsions:
REMARK  status: ('A' for Active; 'I' for Inactive)
REMARK    1  A    between atoms: C_8  and  N_9 
REMARK       I    between atoms: N_9  and  C_10 
REMARK       I    between atoms: C_10  and  N_11 
REMARK    2  A    between atoms: N_11  and  C_12 
REMARK    3  A    between atoms: C_15  and  C_16 
REMARK       I    between atoms: C_16  and  N_17 
REMARK    4  A    between atoms: N_17  and  C_18 
ROOT
HETATM    1  C   UNL     1      41.719 -15.542   0.829  1.00  0.00     0.036 A 
HETATM    2  C   UNL     1      41.878 -14.158   0.737  1.00  0.00     0.030 A 
HETATM    3  C   UNL     1      41.662 -13.492  -0.476  1.00  0.00     0.019 A 
HETATM    4  C   UNL     1      41.304 -14.211  -1.621  1.00  0.00     0.032 A 
HETATM    5  C   UNL     1      41.085 -15.589  -1.518  1.00  0.00     0.019 A 
HETATM    6  C   UNL     1      41.290 -16.248  -0.302  1.00  0.00     0.030 A 
ENDROOT
BRANCH   1   7
HETATM    7  N   UNL     1      42.028 -16.296   1.979  1.00  0.00    -0.309 N 
HETATM    8  C   UNL     1      43.117 -17.136   2.176  1.00  0.00     0.325 C 
HETATM    9  N   UNL     1      42.894 -17.944   3.280  1.00  0.00    -0.305 N 
HETATM   10  O   UNL     1      44.102 -17.184   1.455  1.00  0.00    -0.247 OA
HETATM   11  H   UNL     1      41.937 -18.027   3.582  1.00  0.00     0.171 HD
HETATM   12  H   UNL     1      41.405 -16.187   2.764  1.00  0.00     0.170 HD
BRANCH   9  13
HETATM   13  C   UNL     1      43.760 -18.893   3.798  1.00  0.00     0.086 A 
HETATM   14  C   UNL     1      44.400 -18.709   5.010  1.00  0.00     0.052 A 
HETATM   15  C   UNL     1      44.363 -17.618   6.011  1.00  0.00     0.072 C 
HETATM   16  N   UNL     1      45.145 -19.835   5.213  1.00  0.00    -0.280 N 
HETATM   17  H   UNL     1      45.731 -20.065   6.009  1.00  0.00     0.189 HD
HETATM   18  N   UNL     1      45.070 -20.720   4.216  1.00  0.00    -0.177 NA
HETATM   19  C   UNL     1      44.228 -20.159   3.335  1.00  0.00     0.079 A 
HETATM   20  C   UNL     1      43.956 -20.885   2.069  1.00  0.00     0.075 C 
ENDBRANCH   9  13
ENDBRANCH   1   7
BRANCH   4  21
HETATM   21  C   UNL     1      41.193 -13.575  -2.967  1.00  0.00     0.252 C 
HETATM   22  N   UNL     1      41.381 -12.207  -3.007  1.00  0.00    -0.352 N 
HETATM   23  H   UNL     1      41.726 -11.760  -2.169  1.00  0.00     0.163 HD
HETATM   24  O   UNL     1      41.015 -14.275  -3.958  1.00  0.00    -0.268 OA
BRANCH  22  25
HETATM   25  C   UNL     1      41.558 -11.450  -4.229  1.00  0.00     0.084 C 
HETATM   26  C   UNL     1      40.263 -10.851  -4.776  1.00  0.00     0.025 C 
HETATM   27  C   UNL     1      40.768  -9.800  -5.750  1.00  0.00     0.002 C 
HETATM   28  C   UNL     1      41.936  -9.166  -5.007  1.00  0.00     0.002 C 
HETATM   29  C   UNL     1      42.558 -10.289  -4.174  1.00  0.00     0.025 C 
ENDBRANCH  22  25
ENDBRANCH   4  21
TORSDOF 4
ENDMDL
MODEL 8
REMARK VINA RESULT:      -7.2      2.276      3.109
REMARK  4 active torsions:
REMARK  status: ('A' for Active; 'I' for Inactive)
REMARK    1  A    between atoms: C_8  and  N_9 
REMARK       I    between atoms: N_9  and  C_10 
REMARK       I    between atoms: C_10  and  N_11 
REMARK    2  A    between atoms: N_11  and  C_12 
REMARK    3  A    between atoms: C_15  and  C_16 
REMARK       I    between atoms: C_16  and  N_17 
REMARK    4  A    between atoms: N_17  and  C_18 
ROOT
HETATM    1  C   UNL     1      42.619 -14.105   5.740  1.00  0.00     0.036 A 
HETATM    2  C   UNL     1      42.078 -15.184   5.037  1.00  0.00     0.030 A 
HETATM    3  C   UNL     1      42.661 -16.455   5.121  1.00  0.00     0.019 A 
HETATM    4  C   UNL     1      43.809 -16.656   5.895  1.00  0.00     0.032 A 
HETATM    5  C   UNL     1      44.315 -15.591   6.648  1.00  0.00     0.019 A 
HETATM    6  C   UNL     1      43.724 -14.326   6.571  1.00  0.00     0.030 A 
ENDROOT
BRANCH   1   7
HETATM    7  N   UNL     1      42.161 -12.778   5.617  1.00  0.00    -0.309 N 
HETATM    8  C   UNL     1      40.858 -12.314   5.752  1.00  0.00     0.325 C 
HETATM    9  N   UNL     1      40.759 -11.032   5.234  1.00  0.00    -0.305 N 
HETATM   10  O   UNL     1      39.931 -12.960   6.216  1.00  0.00    -0.247 OA
HETATM   11  H   UNL     1      41.496 -10.749   4.609  1.00  0.00     0.171 HD
HETATM   12  H   UNL     1      42.865 -12.077   5.447  1.00  0.00     0.170 HD
BRANCH   9  13
HETATM   13  C   UNL     1      39.625 -10.237   5.206  1.00  0.00     0.086 A 
HETATM   14  C   UNL     1      38.693 -10.334   4.189  1.00  0.00     0.052 A 
HETATM   15  C   UNL     1      38.599 -11.200   2.990  1.00  0.00     0.072 C 
HETATM   16  N   UNL     1      37.714  -9.432   4.493  1.00  0.00    -0.280 N 
HETATM   17  H   UNL     1      36.858  -9.240   3.983  1.00  0.00     0.189 HD
HETATM   18  N   UNL     1      37.950  -8.732   5.603  1.00  0.00    -0.177 NA
HETATM   19  C   UNL     1      39.121  -9.207   6.055  1.00  0.00     0.079 A 
HETATM   20  C   UNL     1      39.697  -8.598   7.280  1.00  0.00     0.075 C 
ENDBRANCH   9  13
ENDBRANCH   1   7
BRANCH   4  21
HETATM   21  C   UNL     1      44.548 -17.952   5.914  1.00  0.00     0.252 C 
HETATM   22  N   UNL     1      44.079 -18.929   5.057  1.00  0.00    -0.352 N 
HETATM   23  H   UNL     1      43.381 -18.657   4.379  1.00  0.00     0.163 HD
HETATM   24  O   UNL     1      45.549 -18.072   6.612  1.00  0.00    -0.268 OA
BRANCH  22  25
HETATM   25  C   UNL     1      44.798 -20.149   4.749  1.00  0.00     0.084 C 
HETATM   26  C   UNL     1      44.445 -21.320   5.666  1.00  0.00     0.025 C 
HETATM   27  C   UNL     1      44.969 -22.517   4.892  1.00  0.00     0.002 C 
HETATM   28  C   UNL     1      44.572 -22.207   3.455  1.00  0.00     0.002 C 
HETATM   29  C   UNL     1      44.652 -20.685   3.320  1.00  0.00     0.025 C 
ENDBRANCH  22  25
ENDBRANCH   4  21
TORSDOF 4
ENDMDL
MODEL 9
REMARK VINA RESULT:      -7.0      5.083      8.897
REMARK  4 active torsions:
REMARK  status: ('A' for Active; 'I' for Inactive)
REMARK    1  A    between atoms: C_8  and  N_9 
REMARK       I    between atoms: N_9  and  C_10 
REMARK       I    between atoms: C_10  and  N_11 
REMARK    2  A    between atoms: N_11  and  C_12 
REMARK    3  A    between atoms: C_15  and  C_16 
REMARK       I    between atoms: C_16  and  N_17 
REMARK    4  A    between atoms: N_17  and  C_18 
ROOT
HETATM    1  C   UNL     1      40.270 -15.456   2.197  1.00  0.00     0.036 A 
HETATM    2  C   UNL     1      39.562 -14.285   2.474  1.00  0.00     0.030 A 
HETATM    3  C   UNL     1      39.353 -13.324   1.476  1.00  0.00     0.019 A 
HETATM    4  C   UNL     1      39.870 -13.517   0.191  1.00  0.00     0.032 A 
HETATM    5  C   UNL     1      40.526 -14.716  -0.105  1.00  0.00     0.019 A 
HETATM    6  C   UNL     1      40.723 -15.678   0.891  1.00  0.00     0.030 A 
ENDROOT
BRANCH   1   7
HETATM    7  N   UNL     1      40.620 -16.413   3.171  1.00  0.00    -0.309 N 
HETATM    8  C   UNL     1      41.854 -16.585   3.787  1.00  0.00     0.325 C 
HETATM    9  N   UNL     1      41.897 -17.818   4.418  1.00  0.00    -0.305 N 
HETATM   10  O   UNL     1      42.777 -15.786   3.737  1.00  0.00    -0.247 OA
HETATM   11  H   UNL     1      41.211 -18.493   4.119  1.00  0.00     0.171 HD
HETATM   12  H   UNL     1      39.880 -17.022   3.484  1.00  0.00     0.170 HD
BRANCH   9  13
HETATM   13  C   UNL     1      42.952 -18.335   5.152  1.00  0.00     0.086 A 
HETATM   14  C   UNL     1      43.872 -19.202   4.590  1.00  0.00     0.052 A 
HETATM   15  C   UNL     1      44.024 -19.763   3.227  1.00  0.00     0.072 C 
HETATM   16  N   UNL     1      44.769 -19.486   5.580  1.00  0.00    -0.280 N 
HETATM   17  H   UNL     1      45.595 -20.073   5.528  1.00  0.00     0.189 HD
HETATM   18  N   UNL     1      44.488 -18.904   6.747  1.00  0.00    -0.177 NA
HETATM   19  C   UNL     1      43.373 -18.196   6.507  1.00  0.00     0.079 A 
HETATM   20  C   UNL     1      42.765 -17.448   7.635  1.00  0.00     0.075 C 
ENDBRANCH   9  13
ENDBRANCH   1   7
BRANCH   4  21
HETATM   21  C   UNL     1      39.794 -12.470  -0.871  1.00  0.00     0.252 C 
HETATM   22  N   UNL     1      41.004 -12.024  -1.367  1.00  0.00    -0.352 N 
HETATM   23  H   UNL     1      41.834 -12.533  -1.097  1.00  0.00     0.163 HD
HETATM   24  O   UNL     1      38.702 -12.112  -1.295  1.00  0.00    -0.268 OA
BRANCH  22  25
HETATM   25  C   UNL     1      41.139 -11.207  -2.556  1.00  0.00     0.084 C 
HETATM   26  C   UNL     1      42.275 -10.188  -2.479  1.00  0.00     0.025 C 
HETATM   27  C   UNL     1      42.471  -9.797  -3.933  1.00  0.00     0.002 C 
HETATM   28  C   UNL     1      42.357 -11.124  -4.672  1.00  0.00     0.002 C 
HETATM   29  C   UNL     1      41.346 -11.956  -3.879  1.00  0.00     0.025 C 
ENDBRANCH  22  25
ENDBRANCH   4  21
TORSDOF 4
ENDMDL
MODEL 10
REMARK VINA RESULT:      -7.0      6.573     10.477
REMARK  4 active torsions:
REMARK  status: ('A' for Active; 'I' for Inactive)
REMARK    1  A    between atoms: C_8  and  N_9 
REMARK       I    between atoms: N_9  and  C_10 
REMARK       I    between atoms: C_10  and  N_11 
REMARK    2  A    between atoms: N_11  and  C_12 
REMARK    3  A    between atoms: C_15  and  C_16 
REMARK       I    between atoms: C_16  and  N_17 
REMARK    4  A    between atoms: N_17  and  C_18 
ROOT
HETATM    1  C   UNL     1      41.153 -15.470  -0.980  1.00  0.00     0.036 A 
HETATM    2  C   UNL     1      40.374 -14.464  -0.406  1.00  0.00     0.030 A 
HETATM    3  C   UNL     1      39.506 -13.696  -1.192  1.00  0.00     0.019 A 
HETATM    4  C   UNL     1      39.425 -13.913  -2.571  1.00  0.00     0.032 A 
HETATM    5  C   UNL     1      40.158 -14.960  -3.139  1.00  0.00     0.019 A 
HETATM    6  C   UNL     1      41.015 -15.733  -2.348  1.00  0.00     0.030 A 
ENDROOT
BRANCH   1   7
HETATM    7  N   UNL     1      42.130 -16.206  -0.279  1.00  0.00    -0.309 N 
HETATM    8  C   UNL     1      41.964 -16.940   0.889  1.00  0.00     0.325 C 
HETATM    9  N   UNL     1      43.201 -17.230   1.442  1.00  0.00    -0.305 N 
HETATM   10  O   UNL     1      40.885 -17.242   1.377  1.00  0.00    -0.247 OA
HETATM   11  H   UNL     1      43.972 -16.665   1.125  1.00  0.00     0.171 HD
HETATM   12  H   UNL     1      43.050 -16.233  -0.692  1.00  0.00     0.170 HD
BRANCH   9  13
HETATM   13  C   UNL     1      43.440 -17.960   2.596  1.00  0.00     0.086 A 
HETATM   14  C   UNL     1      43.481 -17.359   3.841  1.00  0.00     0.052 A 
HETATM   15  C   UNL     1      43.293 -15.959   4.289  1.00  0.00     0.072 C 
HETATM   16  N   UNL     1      43.713 -18.365   4.734  1.00  0.00    -0.280 N 
HETATM   17  H   UNL     1      43.786 -18.304   5.743  1.00  0.00     0.189 HD
HETATM   18  N   UNL     1      43.862 -19.565   4.168  1.00  0.00    -0.177 NA
HETATM   19  C   UNL     1      43.702 -19.338   2.855  1.00  0.00     0.079 A 
HETATM   20  C   UNL     1      43.849 -20.484   1.925  1.00  0.00     0.075 C 
ENDBRANCH   9  13
ENDBRANCH   1   7
BRANCH   4  21
HETATM   21  C   UNL     1      38.622 -13.039  -3.476  1.00  0.00     0.252 C 
HETATM   22  N   UNL     1      37.389 -13.533  -3.856  1.00  0.00    -0.352 N 
HETATM   23  H   UNL     1      37.054 -14.362  -3.385  1.00  0.00     0.163 HD
HETATM   24  O   UNL     1      39.041 -11.928  -3.780  1.00  0.00    -0.268 OA
BRANCH  22  25
HETATM   25  C   UNL     1      36.369 -12.743  -4.517  1.00  0.00     0.084 C 
HETATM   26  C   UNL     1      35.280 -13.580  -5.187  1.00  0.00     0.025 C 
HETATM   27  C   UNL     1      34.169 -12.566  -5.403  1.00  0.00     0.002 C 
HETATM   28  C   UNL     1      34.170 -11.762  -4.110  1.00  0.00     0.002 C 
HETATM   29  C   UNL     1      35.628 -11.720  -3.648  1.00  0.00     0.025 C 
ENDBRANCH  22  25
ENDBRANCH   4  21
TORSDOF 4
ENDMDL
