MODEL 1
REMARK VINA RESULT:      -8.3      0.000      0.000
REMARK  6 active torsions:
REMARK  status: ('A' for Active; 'I' for Inactive)
REMARK    1  A    between atoms: C_2  and  O_3 
REMARK    2  A    between atoms: O_3  and  C_4 
REMARK    3  A    between atoms: C_7  and  C_8 
REMARK    4  A    between atoms: C_8  and  N_9 
REMARK       I    between atoms: N_9  and  C_10 
REMARK    5  A    between atoms: C_10  and  C_11 
REMARK    6  A    between atoms: C_15  and  C_16 
ROOT
HETATM    1  N   UNL     1      44.366 -13.868   7.790  1.00  0.00    -0.347 N 
HETATM    2  C   UNL     1      43.615 -14.178   6.675  1.00  0.00     0.272 C 
HETATM    3  O   UNL     1      43.047 -13.337   5.983  1.00  0.00    -0.266 OA
HETATM    4  H   UNL     1      44.858 -14.651   8.207  1.00  0.00     0.163 HD
ENDROOT
BRANCH   2   5
HETATM    5  C   UNL     1      43.606 -15.610   6.343  1.00  0.00     0.146 A 
HETATM    6  N   UNL     1      43.678 -16.578   7.278  1.00  0.00    -0.169 NA
HETATM    7  N   UNL     1      43.714 -17.717   6.558  1.00  0.00    -0.277 N 
HETATM    8  H   UNL     1      43.799 -18.594   7.058  1.00  0.00     0.189 HD
HETATM    9  C   UNL     1      43.678 -17.536   5.199  1.00  0.00     0.063 A 
HETATM   10  C   UNL     1      43.587 -16.167   5.039  1.00  0.00     0.071 A 
BRANCH   9  11
HETATM   11  C   UNL     1      43.779 -18.616   4.216  1.00  0.00    -0.008 A 
HETATM   12  C   UNL     1      44.612 -19.723   4.422  1.00  0.00     0.014 A 
HETATM   13  C   UNL     1      44.702 -20.737   3.463  1.00  0.00     0.001 A 
HETATM   14  C   UNL     1      43.961 -20.656   2.287  1.00  0.00     0.000 A 
HETATM   15  C   UNL     1      43.124 -19.567   2.070  1.00  0.00     0.001 A 
HETATM   16  C   UNL     1      43.034 -18.554   3.029  1.00  0.00     0.014 A 
ENDBRANCH   9  11
ENDBRANCH   2   5
BRANCH   1  17
HETATM   17  C   UNL     1      44.792 -12.508   8.042  1.00  0.00     0.114 C 
HETATM   18  C   UNL     1      46.305 -12.450   8.281  1.00  0.00     0.037 C 
BRANCH  17  19
HETATM   19  C   UNL     1      44.044 -11.877   9.202  1.00  0.00    -0.036 A 
HETATM   20  C   UNL     1      42.998 -10.963   9.009  1.00  0.00     0.012 A 
HETATM   21  C   UNL     1      42.264 -10.469  10.096  1.00  0.00     0.037 A 
HETATM   22  C   UNL     1      42.560 -10.890  11.391  1.00  0.00     0.068 A 
HETATM   23  C   UNL     1      43.623 -11.769  11.596  1.00  0.00     0.037 A 
HETATM   24  C   UNL     1      44.357 -12.261  10.515  1.00  0.00     0.012 A 
BRANCH  22  25
HETATM   25  O   UNL     1      41.900 -10.518  12.529  1.00  0.00    -0.352 OA
BRANCH  25  26
HETATM   26  C   UNL     1      42.637 -10.580  13.750  1.00  0.00     0.171 C 
HETATM   27  C   UNL     1      43.158  -9.187  14.053  1.00  0.00     0.034 C 
ENDBRANCH  25  26
ENDBRANCH  22  25
ENDBRANCH  17  19
ENDBRANCH   1  17
TORSDOF 6
ENDMDL
MODEL 2
REMARK VINA RESULT:      -8.2      2.175      9.742
REMARK  6 active torsions:
REMARK  status: ('A' for Active; 'I' for Inactive)
REMARK    1  A    between atoms: C_2  and  O_3 
REMARK    2  A    between atoms: O_3  and  C_4 
REMARK    3  A    between atoms: C_7  and  C_8 
REMARK    4  A    between atoms: C_8  and  N_9 
REMARK       I    between atoms: N_9  and  C_10 
REMARK    5  A    between atoms: C_10  and  C_11 
REMARK    6  A    between atoms: C_15  and  C_16 
ROOT
HETATM    1  N   UNL     1      43.739 -13.986   7.353  1.00  0.00    -0.347 N 
HETATM    2  C   UNL     1      44.903 -13.318   7.674  1.00  0.00     0.272 C 
HETATM    3  O   UNL     1      45.912 -13.336   6.974  1.00  0.00    -0.266 OA
HETATM    4  H   UNL     1      42.956 -13.803   7.970  1.00  0.00     0.163 HD
ENDROOT
BRANCH   2   5
HETATM    5  C   UNL     1      44.811 -12.521   8.905  1.00  0.00     0.146 A 
HETATM    6  N   UNL     1      45.613 -12.724   9.970  1.00  0.00    -0.169 NA
HETATM    7  N   UNL     1      45.156 -11.848  10.886  1.00  0.00    -0.277 N 
HETATM    8  H   UNL     1      45.598 -11.840  11.799  1.00  0.00     0.189 HD
HETATM    9  C   UNL     1      44.089 -11.092  10.474  1.00  0.00     0.063 A 
HETATM   10  C   UNL     1      43.862 -11.503   9.175  1.00  0.00     0.071 A 
BRANCH   9  11
HETATM   11  C   UNL     1      43.379 -10.131  11.318  1.00  0.00    -0.008 A 
HETATM   12  C   UNL     1      42.360  -9.315  10.808  1.00  0.00     0.014 A 
HETATM   13  C   UNL     1      41.703  -8.394  11.632  1.00  0.00     0.001 A 
HETATM   14  C   UNL     1      42.057  -8.279  12.974  1.00  0.00     0.000 A 
HETATM   15  C   UNL     1      43.061  -9.086  13.498  1.00  0.00     0.001 A 
HETATM   16  C   UNL     1      43.716 -10.006  12.674  1.00  0.00     0.014 A 
ENDBRANCH   9  11
ENDBRANCH   2   5
BRANCH   1  17
HETATM   17  C   UNL     1      43.524 -14.500   6.017  1.00  0.00     0.114 C 
HETATM   18  C   UNL     1      42.213 -13.962   5.434  1.00  0.00     0.037 C 
BRANCH  17  19
HETATM   19  C   UNL     1      43.544 -16.017   5.975  1.00  0.00    -0.036 A 
HETATM   20  C   UNL     1      42.500 -16.764   5.410  1.00  0.00     0.012 A 
HETATM   21  C   UNL     1      42.590 -18.159   5.301  1.00  0.00     0.037 A 
HETATM   22  C   UNL     1      43.729 -18.826   5.748  1.00  0.00     0.068 A 
HETATM   23  C   UNL     1      44.756 -18.094   6.346  1.00  0.00     0.037 A 
HETATM   24  C   UNL     1      44.669 -16.705   6.457  1.00  0.00     0.012 A 
BRANCH  22  25
HETATM   25  O   UNL     1      43.959 -20.170   5.666  1.00  0.00    -0.352 OA
BRANCH  25  26
HETATM   26  C   UNL     1      45.018 -20.590   4.805  1.00  0.00     0.171 C 
HETATM   27  C   UNL     1      44.519 -20.504   3.374  1.00  0.00     0.034 C 
ENDBRANCH  25  26
ENDBRANCH  22  25
ENDBRANCH  17  19
ENDBRANCH   1  17
TORSDOF 6
ENDMDL
MODEL 3
REMARK VINA RESULT:      -7.8      7.725      9.799
REMARK  6 active torsions:
REMARK  status: ('A' for Active; 'I' for Inactive)
REMARK    1  A    between atoms: C_2  and  O_3 
REMARK    2  A    between atoms: O_3  and  C_4 
REMARK    3  A    between atoms: C_7  and  C_8 
REMARK    4  A    between atoms: C_8  and  N_9 
REMARK       I    between atoms: N_9  and  C_10 
REMARK    5  A    between atoms: C_10  and  C_11 
REMARK    6  A    between atoms: C_15  and  C_16 
ROOT
HETATM    1  N   UNL     1      41.911 -15.305  -0.543  1.00  0.00    -0.347 N 
HETATM    2  C   UNL     1      41.407 -15.478   0.730  1.00  0.00     0.272 C 
HETATM    3  O   UNL     1      40.362 -14.966   1.122  1.00  0.00    -0.266 OA
HETATM    4  H   UNL     1      42.728 -15.866  -0.760  1.00  0.00     0.163 HD
ENDROOT
BRANCH   2   5
HETATM    5  C   UNL     1      42.202 -16.390   1.566  1.00  0.00     0.146 A 
HETATM    6  N   UNL     1      43.078 -15.955   2.493  1.00  0.00    -0.169 NA
HETATM    7  N   UNL     1      43.631 -17.088   2.967  1.00  0.00    -0.277 N 
HETATM    8  H   UNL     1      44.356 -17.006   3.670  1.00  0.00     0.189 HD
HETATM    9  C   UNL     1      43.165 -18.239   2.385  1.00  0.00     0.063 A 
HETATM   10  C   UNL     1      42.216 -17.804   1.481  1.00  0.00     0.071 A 
BRANCH   9  11
HETATM   11  C   UNL     1      43.668 -19.581   2.683  1.00  0.00    -0.008 A 
HETATM   12  C   UNL     1      44.367 -19.860   3.866  1.00  0.00     0.014 A 
HETATM   13  C   UNL     1      44.849 -21.148   4.122  1.00  0.00     0.001 A 
HETATM   14  C   UNL     1      44.639 -22.172   3.201  1.00  0.00     0.000 A 
HETATM   15  C   UNL     1      43.941 -21.913   2.026  1.00  0.00     0.001 A 
HETATM   16  C   UNL     1      43.459 -20.626   1.770  1.00  0.00     0.014 A 
ENDBRANCH   9  11
ENDBRANCH   2   5
BRANCH   1  17
HETATM   17  C   UNL     1      41.084 -14.762  -1.600  1.00  0.00     0.114 C 
HETATM   18  C   UNL     1      40.897 -15.788  -2.723  1.00  0.00     0.037 C 
BRANCH  17  19
HETATM   19  C   UNL     1      41.639 -13.461  -2.152  1.00  0.00    -0.036 A 
HETATM   20  C   UNL     1      41.421 -13.058  -3.477  1.00  0.00     0.012 A 
HETATM   21  C   UNL     1      41.865 -11.809  -3.932  1.00  0.00     0.037 A 
HETATM   22  C   UNL     1      42.526 -10.941  -3.064  1.00  0.00     0.068 A 
HETATM   23  C   UNL     1      42.780 -11.350  -1.755  1.00  0.00     0.037 A 
HETATM   24  C   UNL     1      42.340 -12.594  -1.300  1.00  0.00     0.012 A 
BRANCH  22  25
HETATM   25  O   UNL     1      42.973  -9.686  -3.367  1.00  0.00    -0.352 OA
BRANCH  25  26
HETATM   26  C   UNL     1      42.442  -8.610  -2.594  1.00  0.00     0.171 C 
HETATM   27  C   UNL     1      41.363  -7.930  -3.418  1.00  0.00     0.034 C 
ENDBRANCH  25  26
ENDBRANCH  22  25
ENDBRANCH  17  19
ENDBRANCH   1  17
TORSDOF 6
ENDMDL
MODEL 4
REMARK VINA RESULT:      -7.8      6.307      9.433
REMARK  6 active torsions:
REMARK  status: ('A' for Active; 'I' for Inactive)
REMARK    1  A    between atoms: C_2  and  O_3 
REMARK    2  A    between atoms: O_3  and  C_4 
REMARK    3  A    between atoms: C_7  and  C_8 
REMARK    4  A    between atoms: C_8  and  N_9 
REMARK       I    between atoms: N_9  and  C_10 
REMARK    5  A    between atoms: C_10  and  C_11 
REMARK    6  A    between atoms: C_15  and  C_16 
ROOT
HETATM    1  N   UNL     1      41.550 -14.577   1.781  1.00  0.00    -0.347 N 
HETATM    2  C   UNL     1      42.687 -14.581   2.562  1.00  0.00     0.272 C 
HETATM    3  O   UNL     1      43.344 -13.574   2.810  1.00  0.00    -0.266 OA
HETATM    4  H   UNL     1      41.054 -15.461   1.742  1.00  0.00     0.163 HD
ENDROOT
BRANCH   2   5
HETATM    5  C   UNL     1      43.013 -15.896   3.133  1.00  0.00     0.146 A 
HETATM    6  N   UNL     1      43.339 -16.070   4.429  1.00  0.00    -0.169 NA
HETATM    7  N   UNL     1      43.628 -17.383   4.512  1.00  0.00    -0.277 N 
HETATM    8  H   UNL     1      43.934 -17.747   5.408  1.00  0.00     0.189 HD
HETATM    9  C   UNL     1      43.515 -18.071   3.331  1.00  0.00     0.063 A 
HETATM   10  C   UNL     1      43.095 -17.120   2.422  1.00  0.00     0.071 A 
BRANCH   9  11
HETATM   11  C   UNL     1      43.847 -19.486   3.161  1.00  0.00    -0.008 A 
HETATM   12  C   UNL     1      44.517 -20.210   4.157  1.00  0.00     0.014 A 
HETATM   13  C   UNL     1      44.835 -21.559   3.966  1.00  0.00     0.001 A 
HETATM   14  C   UNL     1      44.487 -22.200   2.779  1.00  0.00     0.000 A 
HETATM   15  C   UNL     1      43.817 -21.497   1.784  1.00  0.00     0.001 A 
HETATM   16  C   UNL     1      43.498 -20.149   1.975  1.00  0.00     0.014 A 
ENDBRANCH   9  11
ENDBRANCH   2   5
BRANCH   1  17
HETATM   17  C   UNL     1      40.878 -13.337   1.456  1.00  0.00     0.114 C 
HETATM   18  C   UNL     1      39.862 -12.970   2.543  1.00  0.00     0.037 C 
BRANCH  17  19
HETATM   19  C   UNL     1      40.210 -13.386   0.094  1.00  0.00    -0.036 A 
HETATM   20  C   UNL     1      40.915 -13.146  -1.094  1.00  0.00     0.012 A 
HETATM   21  C   UNL     1      40.292 -13.290  -2.342  1.00  0.00     0.037 A 
HETATM   22  C   UNL     1      38.958 -13.685  -2.419  1.00  0.00     0.068 A 
HETATM   23  C   UNL     1      38.239 -13.888  -1.241  1.00  0.00     0.037 A 
HETATM   24  C   UNL     1      38.856 -13.744   0.003  1.00  0.00     0.012 A 
BRANCH  22  25
HETATM   25  O   UNL     1      38.246 -13.899  -3.566  1.00  0.00    -0.352 OA
BRANCH  25  26
HETATM   26  C   UNL     1      37.702 -15.206  -3.750  1.00  0.00     0.171 C 
HETATM   27  C   UNL     1      38.813 -16.106  -4.262  1.00  0.00     0.034 C 
ENDBRANCH  25  26
ENDBRANCH  22  25
ENDBRANCH  17  19
ENDBRANCH   1  17
TORSDOF 6
ENDMDL
MODEL 5
REMARK VINA RESULT:      -7.7      6.167      9.356
REMARK  6 active torsions:
REMARK  status: ('A' for Active; 'I' for Inactive)
REMARK    1  A    between atoms: C_2  and  O_3 
REMARK    2  A    between atoms: O_3  and  C_4 
REMARK    3  A    between atoms: C_7  and  C_8 
REMARK    4  A    between atoms: C_8  and  N_9 
REMARK       I    between atoms: N_9  and  C_10 
REMARK    5  A    between atoms: C_10  and  C_11 
REMARK    6  A    between atoms: C_15  and  C_16 
ROOT
HETATM    1  N   UNL     1      41.997 -15.013   2.018  1.00  0.00    -0.347 N 
HETATM    2  C   UNL     1      43.096 -15.003   2.852  1.00  0.00     0.272 C 
HETATM    3  O   UNL     1      43.763 -13.999   3.085  1.00  0.00    -0.266 OA
HETATM    4  H   UNL     1      41.484 -15.888   1.996  1.00  0.00     0.163 HD
ENDROOT
BRANCH   2   5
HETATM    5  C   UNL     1      43.365 -16.296   3.498  1.00  0.00     0.146 A 
HETATM    6  N   UNL     1      43.590 -16.420   4.821  1.00  0.00    -0.169 NA
HETATM    7  N   UNL     1      43.859 -17.731   4.979  1.00  0.00    -0.277 N 
HETATM    8  H   UNL     1      44.093 -18.060   5.908  1.00  0.00     0.189 HD
HETATM    9  C   UNL     1      43.829 -18.464   3.821  1.00  0.00     0.063 A 
HETATM   10  C   UNL     1      43.488 -17.549   2.845  1.00  0.00     0.071 A 
BRANCH   9  11
HETATM   11  C   UNL     1      44.159 -19.888   3.733  1.00  0.00    -0.008 A 
HETATM   12  C   UNL     1      44.044 -20.598   2.530  1.00  0.00     0.014 A 
HETATM   13  C   UNL     1      44.354 -21.961   2.473  1.00  0.00     0.001 A 
HETATM   14  C   UNL     1      44.782 -22.630   3.617  1.00  0.00     0.000 A 
HETATM   15  C   UNL     1      44.908 -21.938   4.817  1.00  0.00     0.001 A 
HETATM   16  C   UNL     1      44.599 -20.576   4.873  1.00  0.00     0.014 A 
ENDBRANCH   9  11
ENDBRANCH   2   5
BRANCH   1  17
HETATM   17  C   UNL     1      41.370 -13.777   1.604  1.00  0.00     0.114 C 
HETATM   18  C   UNL     1      40.412 -13.266   2.686  1.00  0.00     0.037 C 
BRANCH  17  19
HETATM   19  C   UNL     1      40.649 -13.915   0.275  1.00  0.00    -0.036 A 
HETATM   20  C   UNL     1      39.254 -13.820   0.167  1.00  0.00     0.012 A 
HETATM   21  C   UNL     1      38.625 -13.857  -1.085  1.00  0.00     0.037 A 
HETATM   22  C   UNL     1      39.383 -13.981  -2.248  1.00  0.00     0.068 A 
HETATM   23  C   UNL     1      40.768 -14.114  -2.147  1.00  0.00     0.037 A 
HETATM   24  C   UNL     1      41.397 -14.078  -0.901  1.00  0.00     0.012 A 
BRANCH  22  25
HETATM   25  O   UNL     1      38.901 -13.991  -3.527  1.00  0.00    -0.352 OA
BRANCH  25  26
HETATM   26  C   UNL     1      38.017 -15.057  -3.872  1.00  0.00     0.171 C 
HETATM   27  C   UNL     1      38.862 -16.231  -4.337  1.00  0.00     0.034 C 
ENDBRANCH  25  26
ENDBRANCH  22  25
ENDBRANCH  17  19
ENDBRANCH   1  17
TORSDOF 6
ENDMDL
MODEL 6
REMARK VINA RESULT:      -7.7      6.117      9.006
REMARK  6 active torsions:
REMARK  status: ('A' for Active; 'I' for Inactive)
REMARK    1  A    between atoms: C_2  and  O_3 
REMARK    2  A    between atoms: O_3  and  C_4 
REMARK    3  A    between atoms: C_7  and  C_8 
REMARK    4  A    between atoms: C_8  and  N_9 
REMARK       I    between atoms: N_9  and  C_10 
REMARK    5  A    between atoms: C_10  and  C_11 
REMARK    6  A    between atoms: C_15  and  C_16 
ROOT
HETATM    1  N   UNL     1      42.141 -14.356   1.988  1.00  0.00    -0.347 N 
HETATM    2  C   UNL     1      43.188 -14.530   2.869  1.00  0.00     0.272 C 
HETATM    3  O   UNL     1      43.915 -13.616   3.249  1.00  0.00    -0.266 OA
HETATM    4  H   UNL     1      41.565 -15.177   1.839  1.00  0.00     0.163 HD
ENDROOT
BRANCH   2   5
HETATM    5  C   UNL     1      43.322 -15.905   3.370  1.00  0.00     0.146 A 
HETATM    6  N   UNL     1      43.394 -16.201   4.683  1.00  0.00    -0.169 NA
HETATM    7  N   UNL     1      43.581 -17.535   4.701  1.00  0.00    -0.277 N 
HETATM    8  H   UNL     1      43.694 -17.988   5.601  1.00  0.00     0.189 HD
HETATM    9  C   UNL     1      43.643 -18.121   3.463  1.00  0.00     0.063 A 
HETATM   10  C   UNL     1      43.456 -17.075   2.581  1.00  0.00     0.071 A 
BRANCH   9  11
HETATM   11  C   UNL     1      43.912 -19.541   3.230  1.00  0.00    -0.008 A 
HETATM   12  C   UNL     1      44.571 -20.331   4.182  1.00  0.00     0.014 A 
HETATM   13  C   UNL     1      44.829 -21.683   3.932  1.00  0.00     0.001 A 
HETATM   14  C   UNL     1      44.430 -22.262   2.729  1.00  0.00     0.000 A 
HETATM   15  C   UNL     1      43.768 -21.492   1.777  1.00  0.00     0.001 A 
HETATM   16  C   UNL     1      43.511 -20.142   2.028  1.00  0.00     0.014 A 
ENDBRANCH   9  11
ENDBRANCH   2   5
BRANCH   1  17
HETATM   17  C   UNL     1      41.633 -13.033   1.693  1.00  0.00     0.114 C 
HETATM   18  C   UNL     1      40.147 -12.930   2.055  1.00  0.00     0.037 C 
BRANCH  17  19
HETATM   19  C   UNL     1      41.859 -12.641   0.244  1.00  0.00    -0.036 A 
HETATM   20  C   UNL     1      42.330 -11.372  -0.122  1.00  0.00     0.012 A 
HETATM   21  C   UNL     1      42.618 -11.070  -1.461  1.00  0.00     0.037 A 
HETATM   22  C   UNL     1      42.447 -12.037  -2.450  1.00  0.00     0.068 A 
HETATM   23  C   UNL     1      41.943 -13.289  -2.099  1.00  0.00     0.037 A 
HETATM   24  C   UNL     1      41.653 -13.592  -0.767  1.00  0.00     0.012 A 
BRANCH  22  25
HETATM   25  O   UNL     1      42.726 -11.886  -3.780  1.00  0.00    -0.352 OA
BRANCH  25  26
HETATM   26  C   UNL     1      41.797 -11.124  -4.550  1.00  0.00     0.171 C 
HETATM   27  C   UNL     1      42.498  -9.857  -5.007  1.00  0.00     0.034 C 
ENDBRANCH  25  26
ENDBRANCH  22  25
ENDBRANCH  17  19
ENDBRANCH   1  17
TORSDOF 6
ENDMDL
MODEL 7
REMARK VINA RESULT:      -7.6      6.475     10.118
REMARK  6 active torsions:
REMARK  status: ('A' for Active; 'I' for Inactive)
REMARK    1  A    between atoms: C_2  and  O_3 
REMARK    2  A    between atoms: O_3  and  C_4 
REMARK    3  A    between atoms: C_7  and  C_8 
REMARK    4  A    between atoms: C_8  and  N_9 
REMARK       I    between atoms: N_9  and  C_10 
REMARK    5  A    between atoms: C_10  and  C_11 
REMARK    6  A    between atoms: C_15  and  C_16 
ROOT
HETATM    1  N   UNL     1      41.596 -16.496   1.765  1.00  0.00    -0.347 N 
HETATM    2  C   UNL     1      40.557 -15.776   1.212  1.00  0.00     0.272 C 
HETATM    3  O   UNL     1      39.459 -15.648   1.746  1.00  0.00    -0.266 OA
HETATM    4  H   UNL     1      42.475 -16.434   1.263  1.00  0.00     0.163 HD
ENDROOT
BRANCH   2   5
HETATM    5  C   UNL     1      40.901 -15.111  -0.054  1.00  0.00     0.146 A 
HETATM    6  N   UNL     1      41.133 -15.789  -1.195  1.00  0.00    -0.169 NA
HETATM    7  N   UNL     1      41.478 -14.827  -2.074  1.00  0.00    -0.277 N 
HETATM    8  H   UNL     1      41.731 -15.110  -3.014  1.00  0.00     0.189 HD
HETATM    9  C   UNL     1      41.489 -13.557  -1.557  1.00  0.00     0.063 A 
HETATM   10  C   UNL     1      41.096 -13.720  -0.243  1.00  0.00     0.071 A 
BRANCH   9  11
HETATM   11  C   UNL     1      41.901 -12.364  -2.298  1.00  0.00    -0.008 A 
HETATM   12  C   UNL     1      42.360 -11.213  -1.644  1.00  0.00     0.014 A 
HETATM   13  C   UNL     1      42.737 -10.080  -2.374  1.00  0.00     0.001 A 
HETATM   14  C   UNL     1      42.660 -10.085  -3.764  1.00  0.00     0.000 A 
HETATM   15  C   UNL     1      42.212 -11.222  -4.429  1.00  0.00     0.001 A 
HETATM   16  C   UNL     1      41.837 -12.354  -3.699  1.00  0.00     0.014 A 
ENDBRANCH   9  11
ENDBRANCH   2   5
BRANCH   1  17
HETATM   17  C   UNL     1      41.565 -16.892   3.156  1.00  0.00     0.114 C 
HETATM   18  C   UNL     1      41.815 -15.686   4.069  1.00  0.00     0.037 C 
BRANCH  17  19
HETATM   19  C   UNL     1      42.552 -18.004   3.459  1.00  0.00    -0.036 A 
HETATM   20  C   UNL     1      43.242 -18.688   2.448  1.00  0.00     0.012 A 
HETATM   21  C   UNL     1      44.216 -19.646   2.762  1.00  0.00     0.037 A 
HETATM   22  C   UNL     1      44.521 -19.926   4.093  1.00  0.00     0.068 A 
HETATM   23  C   UNL     1      43.812 -19.278   5.105  1.00  0.00     0.037 A 
HETATM   24  C   UNL     1      42.840 -18.325   4.795  1.00  0.00     0.012 A 
BRANCH  22  25
HETATM   25  O   UNL     1      45.472 -20.804   4.534  1.00  0.00    -0.352 OA
BRANCH  25  26
HETATM   26  C   UNL     1      45.005 -21.978   5.198  1.00  0.00     0.171 C 
HETATM   27  C   UNL     1      44.603 -22.986   4.137  1.00  0.00     0.034 C 
ENDBRANCH  25  26
ENDBRANCH  22  25
ENDBRANCH  17  19
ENDBRANCH   1  17
TORSDOF 6
ENDMDL
MODEL 8
REMARK VINA RESULT:      -7.5      7.636     11.108
REMARK  6 active torsions:
REMARK  status: ('A' for Active; 'I' for Inactive)
REMARK    1  A    between atoms: C_2  and  O_3 
REMARK    2  A    between atoms: O_3  and  C_4 
REMARK    3  A    between atoms: C_7  and  C_8 
REMARK    4  A    between atoms: C_8  and  N_9 
REMARK       I    between atoms: N_9  and  C_10 
REMARK    5  A    between atoms: C_10  and  C_11 
REMARK    6  A    between atoms: C_15  and  C_16 
ROOT
HETATM    1  N   UNL     1      42.026 -14.733  -0.977  1.00  0.00    -0.347 N 
HETATM    2  C   UNL     1      41.162 -14.782   0.097  1.00  0.00     0.272 C 
HETATM    3  O   UNL     1      40.285 -13.948   0.303  1.00  0.00    -0.266 OA
HETATM    4  H   UNL     1      42.634 -15.539  -1.075  1.00  0.00     0.163 HD
ENDROOT
BRANCH   2   5
HETATM    5  C   UNL     1      41.339 -15.967   0.950  1.00  0.00     0.146 A 
HETATM    6  N   UNL     1      40.447 -16.329   1.893  1.00  0.00    -0.169 NA
HETATM    7  N   UNL     1      41.017 -17.401   2.477  1.00  0.00    -0.277 N 
HETATM    8  H   UNL     1      40.529 -17.835   3.253  1.00  0.00     0.189 HD
HETATM    9  C   UNL     1      42.241 -17.748   1.967  1.00  0.00     0.063 A 
HETATM   10  C   UNL     1      42.460 -16.835   0.955  1.00  0.00     0.071 A 
BRANCH   9  11
HETATM   11  C   UNL     1      43.080 -18.828   2.488  1.00  0.00    -0.008 A 
HETATM   12  C   UNL     1      43.732 -18.723   3.725  1.00  0.00     0.014 A 
HETATM   13  C   UNL     1      44.539 -19.764   4.196  1.00  0.00     0.001 A 
HETATM   14  C   UNL     1      44.704 -20.921   3.439  1.00  0.00     0.000 A 
HETATM   15  C   UNL     1      44.059 -21.044   2.213  1.00  0.00     0.001 A 
HETATM   16  C   UNL     1      43.252 -20.004   1.742  1.00  0.00     0.014 A 
ENDBRANCH   9  11
ENDBRANCH   2   5
BRANCH   1  17
HETATM   17  C   UNL     1      41.758 -13.866  -2.105  1.00  0.00     0.114 C 
HETATM   18  C   UNL     1      41.748 -12.397  -1.668  1.00  0.00     0.037 C 
BRANCH  17  19
HETATM   19  C   UNL     1      40.461 -14.223  -2.808  1.00  0.00    -0.036 A 
HETATM   20  C   UNL     1      40.227 -15.498  -3.343  1.00  0.00     0.012 A 
HETATM   21  C   UNL     1      38.984 -15.827  -3.902  1.00  0.00     0.037 A 
HETATM   22  C   UNL     1      37.956 -14.886  -3.927  1.00  0.00     0.068 A 
HETATM   23  C   UNL     1      38.193 -13.604  -3.432  1.00  0.00     0.037 A 
HETATM   24  C   UNL     1      39.430 -13.274  -2.875  1.00  0.00     0.012 A 
BRANCH  22  25
HETATM   25  O   UNL     1      36.692 -15.089  -4.406  1.00  0.00    -0.352 OA
BRANCH  25  26
HETATM   26  C   UNL     1      35.905 -13.925  -4.659  1.00  0.00     0.171 C 
HETATM   27  C   UNL     1      35.433 -13.985  -6.101  1.00  0.00     0.034 C 
ENDBRANCH  25  26
ENDBRANCH  22  25
ENDBRANCH  17  19
ENDBRANCH   1  17
TORSDOF 6
ENDMDL
MODEL 9
REMARK VINA RESULT:      -7.5      1.793      2.478
REMARK  6 active torsions:
REMARK  status: ('A' for Active; 'I' for Inactive)
REMARK    1  A    between atoms: C_2  and  O_3 
REMARK    2  A    between atoms: O_3  and  C_4 
REMARK    3  A    between atoms: C_7  and  C_8 
REMARK    4  A    between atoms: C_8  and  N_9 
REMARK       I    between atoms: N_9  and  C_10 
REMARK    5  A    between atoms: C_10  and  C_11 
REMARK    6  A    between atoms: C_15  and  C_16 
ROOT
HETATM    1  N   UNL     1      44.108 -12.651   8.631  1.00  0.00    -0.347 N 
HETATM    2  C   UNL     1      44.933 -13.322   7.752  1.00  0.00     0.272 C 
HETATM    3  O   UNL     1      46.077 -12.962   7.486  1.00  0.00    -0.266 OA
HETATM    4  H   UNL     1      43.228 -13.115   8.831  1.00  0.00     0.163 HD
ENDROOT
BRANCH   2   5
HETATM    5  C   UNL     1      44.346 -14.554   7.206  1.00  0.00     0.146 A 
HETATM    6  N   UNL     1      44.017 -15.610   7.976  1.00  0.00    -0.169 NA
HETATM    7  N   UNL     1      43.591 -16.531   7.089  1.00  0.00    -0.277 N 
HETATM    8  H   UNL     1      43.312 -17.439   7.443  1.00  0.00     0.189 HD
HETATM    9  C   UNL     1      43.637 -16.129   5.779  1.00  0.00     0.063 A 
HETATM   10  C   UNL     1      44.109 -14.832   5.837  1.00  0.00     0.071 A 
BRANCH   9  11
HETATM   11  C   UNL     1      43.296 -16.980   4.638  1.00  0.00    -0.008 A 
HETATM   12  C   UNL     1      42.256 -16.650   3.758  1.00  0.00     0.014 A 
HETATM   13  C   UNL     1      41.941 -17.486   2.681  1.00  0.00     0.001 A 
HETATM   14  C   UNL     1      42.661 -18.660   2.471  1.00  0.00     0.000 A 
HETATM   15  C   UNL     1      43.700 -18.998   3.332  1.00  0.00     0.001 A 
HETATM   16  C   UNL     1      44.015 -18.162   4.407  1.00  0.00     0.014 A 
ENDBRANCH   9  11
ENDBRANCH   2   5
BRANCH   1  17
HETATM   17  C   UNL     1      44.640 -11.653   9.534  1.00  0.00     0.114 C 
HETATM   18  C   UNL     1      45.332 -12.319  10.729  1.00  0.00     0.037 C 
BRANCH  17  19
HETATM   19  C   UNL     1      43.576 -10.680  10.007  1.00  0.00    -0.036 A 
HETATM   20  C   UNL     1      42.412 -10.427   9.267  1.00  0.00     0.012 A 
HETATM   21  C   UNL     1      41.404  -9.595   9.774  1.00  0.00     0.037 A 
HETATM   22  C   UNL     1      41.543  -9.010  11.032  1.00  0.00     0.068 A 
HETATM   23  C   UNL     1      42.715  -9.226  11.757  1.00  0.00     0.037 A 
HETATM   24  C   UNL     1      43.721 -10.053  11.254  1.00  0.00     0.012 A 
BRANCH  22  25
HETATM   25  O   UNL     1      40.623  -8.215  11.656  1.00  0.00    -0.352 OA
BRANCH  25  26
HETATM   26  C   UNL     1      39.876  -8.807  12.717  1.00  0.00     0.171 C 
HETATM   27  C   UNL     1      38.511  -9.186  12.172  1.00  0.00     0.034 C 
ENDBRANCH  25  26
ENDBRANCH  22  25
ENDBRANCH  17  19
ENDBRANCH   1  17
TORSDOF 6
ENDMDL
MODEL 10
REMARK VINA RESULT:      -7.4      2.284      2.851
REMARK  6 active torsions:
REMARK  status: ('A' for Active; 'I' for Inactive)
REMARK    1  A    between atoms: C_2  and  O_3 
REMARK    2  A    between atoms: O_3  and  C_4 
REMARK    3  A    between atoms: C_7  and  C_8 
REMARK    4  A    between atoms: C_8  and  N_9 
REMARK       I    between atoms: N_9  and  C_10 
REMARK    5  A    between atoms: C_10  and  C_11 
REMARK    6  A    between atoms: C_15  and  C_16 
ROOT
HETATM    1  N   UNL     1      41.549 -13.407   6.019  1.00  0.00    -0.347 N 
HETATM    2  C   UNL     1      40.997 -14.601   5.602  1.00  0.00     0.272 C 
HETATM    3  O   UNL     1      39.805 -14.745   5.345  1.00  0.00    -0.266 OA
HETATM    4  H   UNL     1      42.561 -13.408   6.098  1.00  0.00     0.163 HD
ENDROOT
BRANCH   2   5
HETATM    5  C   UNL     1      41.978 -15.681   5.424  1.00  0.00     0.146 A 
HETATM    6  N   UNL     1      43.185 -15.679   6.026  1.00  0.00    -0.169 NA
HETATM    7  N   UNL     1      43.783 -16.788   5.546  1.00  0.00    -0.277 N 
HETATM    8  H   UNL     1      44.732 -16.982   5.844  1.00  0.00     0.189 HD
HETATM    9  C   UNL     1      43.028 -17.505   4.655  1.00  0.00     0.063 A 
HETATM   10  C   UNL     1      41.838 -16.809   4.577  1.00  0.00     0.071 A 
BRANCH   9  11
HETATM   11  C   UNL     1      43.492 -18.700   3.949  1.00  0.00    -0.008 A 
HETATM   12  C   UNL     1      44.384 -19.605   4.540  1.00  0.00     0.014 A 
HETATM   13  C   UNL     1      44.824 -20.734   3.841  1.00  0.00     0.001 A 
HETATM   14  C   UNL     1      44.378 -20.973   2.543  1.00  0.00     0.000 A 
HETATM   15  C   UNL     1      43.487 -20.088   1.944  1.00  0.00     0.001 A 
HETATM   16  C   UNL     1      43.047 -18.960   2.644  1.00  0.00     0.014 A 
ENDBRANCH   9  11
ENDBRANCH   2   5
BRANCH   1  17
HETATM   17  C   UNL     1      40.818 -12.166   5.885  1.00  0.00     0.114 C 
HETATM   18  C   UNL     1      41.502 -11.241   4.871  1.00  0.00     0.037 C 
BRANCH  17  19
HETATM   19  C   UNL     1      40.639 -11.458   7.216  1.00  0.00    -0.036 A 
HETATM   20  C   UNL     1      39.424 -11.481   7.917  1.00  0.00     0.012 A 
HETATM   21  C   UNL     1      39.315 -10.898   9.187  1.00  0.00     0.037 A 
HETATM   22  C   UNL     1      40.423 -10.293   9.779  1.00  0.00     0.068 A 
HETATM   23  C   UNL     1      41.624 -10.234   9.073  1.00  0.00     0.037 A 
HETATM   24  C   UNL     1      41.735 -10.812   7.806  1.00  0.00     0.012 A 
BRANCH  22  25
HETATM   25  O   UNL     1      40.462  -9.726  11.022  1.00  0.00    -0.352 OA
BRANCH  25  26
HETATM   26  C   UNL     1      41.307 -10.352  11.987  1.00  0.00     0.171 C 
HETATM   27  C   UNL     1      40.511 -11.454  12.661  1.00  0.00     0.034 C 
ENDBRANCH  25  26
ENDBRANCH  22  25
ENDBRANCH  17  19
ENDBRANCH   1  17
TORSDOF 6
ENDMDL
