MODEL 1
REMARK VINA RESULT:      -8.9      0.000      0.000
REMARK  8 active torsions:
REMARK  status: ('A' for Active; 'I' for Inactive)
REMARK    1  A    between atoms: C_2  and  C_3 
REMARK    2  A    between atoms: C_3  and  N_4 
REMARK    3  A    between atoms: C_7  and  C_8 
REMARK       I    between atoms: C_8  and  N_9 
REMARK    4  A    between atoms: N_9  and  N_10 
REMARK       I    between atoms: N_10  and  C_11 
REMARK    5  A    between atoms: C_11  and  C_12 
REMARK    6  A    between atoms: C_12  and  O_13 
REMARK    7  A    between atoms: O_13  and  C_14 
REMARK    8  A    between atoms: C_23  and  C_24 
ROOT
HETATM    1  C   UNL     1      43.874 -16.639   7.219  1.00  0.00     0.273 C 
HETATM    2  N   UNL     1      44.356 -15.369   6.945  1.00  0.00    -0.263 N 
HETATM    3  O   UNL     1      43.363 -16.919   8.301  1.00  0.00    -0.266 OA
HETATM    4  H   UNL     1      44.499 -15.070   5.982  1.00  0.00     0.190 HD
ENDROOT
BRANCH   2   5
HETATM    5  N   UNL     1      44.103 -14.342   7.869  1.00  0.00    -0.265 N 
HETATM    6  C   UNL     1      44.974 -13.269   7.884  1.00  0.00     0.260 C 
HETATM    7  O   UNL     1      46.008 -13.252   7.213  1.00  0.00    -0.269 OA
HETATM    8  H   UNL     1      43.147 -14.270   8.216  1.00  0.00     0.190 HD
BRANCH   6   9
HETATM    9  C   UNL     1      44.560 -12.133   8.806  1.00  0.00     0.280 C 
BRANCH   9  10
HETATM   10  O   UNL     1      44.429 -12.666  10.120  1.00  0.00    -0.342 OA
BRANCH  10  11
HETATM   11  C   UNL     1      43.952 -11.810  11.074  1.00  0.00     0.069 A 
HETATM   12  C   UNL     1      44.160 -10.455  10.810  1.00  0.00     0.037 A 
HETATM   13  C   UNL     1      43.724  -9.479  11.709  1.00  0.00     0.009 A 
HETATM   14  C   UNL     1      43.087  -9.850  12.898  1.00  0.00    -0.062 A 
HETATM   15  C   UNL     1      42.591  -8.812  13.861  1.00  0.00     0.048 C 
HETATM   16  C   UNL     1      42.883 -11.209  13.161  1.00  0.00     0.009 A 
HETATM   17  C   UNL     1      43.318 -12.186  12.257  1.00  0.00     0.037 A 
ENDBRANCH  10  11
ENDBRANCH   9  10
ENDBRANCH   6   9
ENDBRANCH   2   5
BRANCH   1  18
HETATM   18  C   UNL     1      44.074 -17.580   6.130  1.00  0.00     0.077 A 
HETATM   19  C   UNL     1      45.005 -18.649   6.150  1.00  0.00     0.158 A 
HETATM   20  N   UNL     1      45.018 -19.358   5.027  1.00  0.00    -0.183 NA
HETATM   21  N   UNL     1      44.042 -18.800   4.286  1.00  0.00    -0.268 N 
HETATM   22  C   UNL     1      43.487 -17.677   4.872  1.00  0.00     0.052 A 
BRANCH  21  23
HETATM   23  C   UNL     1      43.717 -19.389   2.986  1.00  0.00     0.106 C 
HETATM   24  C   UNL     1      44.114 -18.427   1.863  1.00  0.00     0.034 C 
BRANCH  23  25
HETATM   25  C   UNL     1      44.349 -20.778   2.754  1.00  0.00     0.022 C 
HETATM   26  C   UNL     1      43.636 -21.587   1.677  1.00  0.00     0.007 C 
ENDBRANCH  23  25
ENDBRANCH  21  23
BRANCH  22  27
HETATM   27  C   UNL     1      42.487 -16.761   4.161  1.00  0.00     0.038 A 
HETATM   28  C   UNL     1      41.114 -17.251   3.777  1.00  0.00     0.011 A 
HETATM   29  C   UNL     1      41.259 -16.270   4.892  1.00  0.00     0.011 A 
ENDBRANCH  22  27
ENDBRANCH   1  18
TORSDOF 8
ENDMDL
MODEL 2
REMARK VINA RESULT:      -8.4      1.889      3.104
REMARK  8 active torsions:
REMARK  status: ('A' for Active; 'I' for Inactive)
REMARK    1  A    between atoms: C_2  and  C_3 
REMARK    2  A    between atoms: C_3  and  N_4 
REMARK    3  A    between atoms: C_7  and  C_8 
REMARK       I    between atoms: C_8  and  N_9 
REMARK    4  A    between atoms: N_9  and  N_10 
REMARK       I    between atoms: N_10  and  C_11 
REMARK    5  A    between atoms: C_11  and  C_12 
REMARK    6  A    between atoms: C_12  and  O_13 
REMARK    7  A    between atoms: O_13  and  C_14 
REMARK    8  A    between atoms: C_23  and  C_24 
ROOT
HETATM    1  C   UNL     1      44.593 -13.774   6.752  1.00  0.00     0.273 C 
HETATM    2  N   UNL     1      43.752 -13.185   7.682  1.00  0.00    -0.263 N 
HETATM    3  O   UNL     1      45.815 -13.688   6.839  1.00  0.00    -0.266 OA
HETATM    4  H   UNL     1      42.786 -13.498   7.774  1.00  0.00     0.190 HD
ENDROOT
BRANCH   2   5
HETATM    5  N   UNL     1      44.318 -12.618   8.836  1.00  0.00    -0.265 N 
HETATM    6  C   UNL     1      43.882 -11.361   9.210  1.00  0.00     0.260 C 
HETATM    7  O   UNL     1      43.120 -10.694   8.508  1.00  0.00    -0.269 OA
HETATM    8  H   UNL     1      44.737 -13.267   9.501  1.00  0.00     0.190 HD
BRANCH   6   9
HETATM    9  C   UNL     1      44.431 -10.873  10.541  1.00  0.00     0.280 C 
BRANCH   9  10
HETATM   10  O   UNL     1      43.805 -11.629  11.572  1.00  0.00    -0.342 OA
BRANCH  10  11
HETATM   11  C   UNL     1      43.071 -10.919  12.482  1.00  0.00     0.069 A 
HETATM   12  C   UNL     1      43.702  -9.783  12.992  1.00  0.00     0.037 A 
HETATM   13  C   UNL     1      43.060  -8.974  13.933  1.00  0.00     0.009 A 
HETATM   14  C   UNL     1      41.782  -9.304  14.392  1.00  0.00    -0.062 A 
HETATM   15  C   UNL     1      41.071  -8.432  15.385  1.00  0.00     0.048 C 
HETATM   16  C   UNL     1      41.153 -10.446  13.882  1.00  0.00     0.009 A 
HETATM   17  C   UNL     1      41.796 -11.254  12.936  1.00  0.00     0.037 A 
ENDBRANCH  10  11
ENDBRANCH   9  10
ENDBRANCH   6   9
ENDBRANCH   2   5
BRANCH   1  18
HETATM   18  C   UNL     1      43.884 -14.447   5.677  1.00  0.00     0.077 A 
HETATM   19  C   UNL     1      43.396 -13.807   4.511  1.00  0.00     0.158 A 
HETATM   20  N   UNL     1      42.762 -14.631   3.683  1.00  0.00    -0.183 NA
HETATM   21  N   UNL     1      42.893 -15.836   4.270  1.00  0.00    -0.268 N 
HETATM   22  C   UNL     1      43.497 -15.774   5.513  1.00  0.00     0.052 A 
BRANCH  21  23
HETATM   23  C   UNL     1      42.369 -17.018   3.585  1.00  0.00     0.106 C 
HETATM   24  C   UNL     1      41.137 -16.640   2.759  1.00  0.00     0.034 C 
BRANCH  23  25
HETATM   25  C   UNL     1      43.410 -17.737   2.700  1.00  0.00     0.022 C 
HETATM   26  C   UNL     1      43.957 -19.010   3.335  1.00  0.00     0.007 C 
ENDBRANCH  23  25
ENDBRANCH  21  23
BRANCH  22  27
HETATM   27  C   UNL     1      43.605 -16.972   6.460  1.00  0.00     0.038 A 
HETATM   28  C   UNL     1      43.495 -16.802   7.953  1.00  0.00     0.011 A 
HETATM   29  C   UNL     1      42.384 -17.460   7.204  1.00  0.00     0.011 A 
ENDBRANCH  22  27
ENDBRANCH   1  18
TORSDOF 8
ENDMDL
MODEL 3
REMARK VINA RESULT:      -8.3      1.820      2.620
REMARK  8 active torsions:
REMARK  status: ('A' for Active; 'I' for Inactive)
REMARK    1  A    between atoms: C_2  and  C_3 
REMARK    2  A    between atoms: C_3  and  N_4 
REMARK    3  A    between atoms: C_7  and  C_8 
REMARK       I    between atoms: C_8  and  N_9 
REMARK    4  A    between atoms: N_9  and  N_10 
REMARK       I    between atoms: N_10  and  C_11 
REMARK    5  A    between atoms: C_11  and  C_12 
REMARK    6  A    between atoms: C_12  and  O_13 
REMARK    7  A    between atoms: O_13  and  C_14 
REMARK    8  A    between atoms: C_23  and  C_24 
ROOT
HETATM    1  C   UNL     1      43.168 -13.877   5.966  1.00  0.00     0.273 C 
HETATM    2  N   UNL     1      44.065 -14.377   6.895  1.00  0.00    -0.263 N 
HETATM    3  O   UNL     1      42.498 -12.872   6.189  1.00  0.00    -0.266 OA
HETATM    4  H   UNL     1      44.810 -15.009   6.604  1.00  0.00     0.190 HD
ENDROOT
BRANCH   2   5
HETATM    5  N   UNL     1      44.328 -13.621   8.049  1.00  0.00    -0.265 N 
HETATM    6  C   UNL     1      45.494 -12.879   8.073  1.00  0.00     0.260 C 
HETATM    7  O   UNL     1      46.344 -12.961   7.185  1.00  0.00    -0.269 OA
HETATM    8  H   UNL     1      43.524 -13.387   8.631  1.00  0.00     0.190 HD
BRANCH   6   9
HETATM    9  C   UNL     1      45.643 -11.977   9.288  1.00  0.00     0.280 C 
BRANCH   9  10
HETATM   10  O   UNL     1      44.550 -11.065   9.288  1.00  0.00    -0.342 OA
BRANCH  10  11
HETATM   11  C   UNL     1      43.995 -10.786  10.506  1.00  0.00     0.069 A 
HETATM   12  C   UNL     1      43.735 -11.900  11.306  1.00  0.00     0.037 A 
HETATM   13  C   UNL     1      43.165 -11.750  12.573  1.00  0.00     0.009 A 
HETATM   14  C   UNL     1      42.827 -10.479  13.048  1.00  0.00    -0.062 A 
HETATM   15  C   UNL     1      42.236 -10.300  14.415  1.00  0.00     0.048 C 
HETATM   16  C   UNL     1      43.084  -9.364  12.242  1.00  0.00     0.009 A 
HETATM   17  C   UNL     1      43.660  -9.516  10.974  1.00  0.00     0.037 A 
ENDBRANCH  10  11
ENDBRANCH   9  10
ENDBRANCH   6   9
ENDBRANCH   2   5
BRANCH   1  18
HETATM   18  C   UNL     1      43.085 -14.676   4.755  1.00  0.00     0.077 A 
HETATM   19  C   UNL     1      43.463 -14.225   3.466  1.00  0.00     0.158 A 
HETATM   20  N   UNL     1      43.274 -15.132   2.513  1.00  0.00    -0.183 NA
HETATM   21  N   UNL     1      42.835 -16.213   3.185  1.00  0.00    -0.268 N 
HETATM   22  C   UNL     1      42.632 -15.973   4.532  1.00  0.00     0.052 A 
BRANCH  21  23
HETATM   23  C   UNL     1      42.592 -17.453   2.448  1.00  0.00     0.106 C 
HETATM   24  C   UNL     1      41.673 -17.181   1.254  1.00  0.00     0.034 C 
BRANCH  23  25
HETATM   25  C   UNL     1      43.880 -18.166   1.983  1.00  0.00     0.022 C 
HETATM   26  C   UNL     1      43.855 -19.670   2.232  1.00  0.00     0.007 C 
ENDBRANCH  23  25
ENDBRANCH  21  23
BRANCH  22  27
HETATM   27  C   UNL     1      41.973 -16.979   5.479  1.00  0.00     0.038 A 
HETATM   28  C   UNL     1      42.383 -18.430   5.487  1.00  0.00     0.011 A 
HETATM   29  C   UNL     1      42.756 -17.554   6.637  1.00  0.00     0.011 A 
ENDBRANCH  22  27
ENDBRANCH   1  18
TORSDOF 8
ENDMDL
MODEL 4
REMARK VINA RESULT:      -8.0      5.979      9.691
REMARK  8 active torsions:
REMARK  status: ('A' for Active; 'I' for Inactive)
REMARK    1  A    between atoms: C_2  and  C_3 
REMARK    2  A    between atoms: C_3  and  N_4 
REMARK    3  A    between atoms: C_7  and  C_8 
REMARK       I    between atoms: C_8  and  N_9 
REMARK    4  A    between atoms: N_9  and  N_10 
REMARK       I    between atoms: N_10  and  C_11 
REMARK    5  A    between atoms: C_11  and  C_12 
REMARK    6  A    between atoms: C_12  and  O_13 
REMARK    7  A    between atoms: O_13  and  C_14 
REMARK    8  A    between atoms: C_23  and  C_24 
ROOT
HETATM    1  C   UNL     1      41.024 -16.725   2.726  1.00  0.00     0.273 C 
HETATM    2  N   UNL     1      39.935 -15.986   3.158  1.00  0.00    -0.263 N 
HETATM    3  O   UNL     1      41.230 -16.939   1.533  1.00  0.00    -0.266 OA
HETATM    4  H   UNL     1      39.931 -15.570   4.088  1.00  0.00     0.190 HD
ENDROOT
BRANCH   2   5
HETATM    5  N   UNL     1      39.144 -15.334   2.198  1.00  0.00    -0.265 N 
HETATM    6  C   UNL     1      39.179 -13.952   2.175  1.00  0.00     0.260 C 
HETATM    7  O   UNL     1      39.773 -13.295   3.030  1.00  0.00    -0.269 OA
HETATM    8  H   UNL     1      38.875 -15.884   1.383  1.00  0.00     0.190 HD
BRANCH   6   9
HETATM    9  C   UNL     1      38.412 -13.322   1.023  1.00  0.00     0.280 C 
BRANCH   9  10
HETATM   10  O   UNL     1      39.351 -13.000   0.002  1.00  0.00    -0.342 OA
BRANCH  10  11
HETATM   11  C   UNL     1      39.343 -13.807  -1.103  1.00  0.00     0.069 A 
HETATM   12  C   UNL     1      38.129 -13.856  -1.790  1.00  0.00     0.037 A 
HETATM   13  C   UNL     1      37.989 -14.648  -2.932  1.00  0.00     0.009 A 
HETATM   14  C   UNL     1      39.061 -15.419  -3.392  1.00  0.00    -0.062 A 
HETATM   15  C   UNL     1      38.933 -16.255  -4.631  1.00  0.00     0.048 C 
HETATM   16  C   UNL     1      40.276 -15.370  -2.698  1.00  0.00     0.009 A 
HETATM   17  C   UNL     1      40.416 -14.572  -1.556  1.00  0.00     0.037 A 
ENDBRANCH  10  11
ENDBRANCH   9  10
ENDBRANCH   6   9
ENDBRANCH   2   5
BRANCH   1  18
HETATM   18  C   UNL     1      41.845 -17.234   3.812  1.00  0.00     0.077 A 
HETATM   19  C   UNL     1      41.619 -16.965   5.185  1.00  0.00     0.158 A 
HETATM   20  N   UNL     1      42.518 -17.525   5.987  1.00  0.00    -0.183 NA
HETATM   21  N   UNL     1      43.302 -18.226   5.146  1.00  0.00    -0.268 N 
HETATM   22  C   UNL     1      42.987 -18.029   3.814  1.00  0.00     0.052 A 
BRANCH  21  23
HETATM   23  C   UNL     1      44.377 -19.050   5.702  1.00  0.00     0.106 C 
HETATM   24  C   UNL     1      45.295 -18.190   6.575  1.00  0.00     0.034 C 
BRANCH  23  25
HETATM   25  C   UNL     1      43.877 -20.278   6.493  1.00  0.00     0.022 C 
HETATM   26  C   UNL     1      44.366 -21.601   5.914  1.00  0.00     0.007 C 
ENDBRANCH  23  25
ENDBRANCH  21  23
BRANCH  22  27
HETATM   27  C   UNL     1      43.832 -18.569   2.657  1.00  0.00     0.038 A 
HETATM   28  C   UNL     1      44.440 -19.947   2.710  1.00  0.00     0.011 A 
HETATM   29  C   UNL     1      43.299 -19.682   1.785  1.00  0.00     0.011 A 
ENDBRANCH  22  27
ENDBRANCH   1  18
TORSDOF 8
ENDMDL
MODEL 5
REMARK VINA RESULT:      -8.0      6.001      9.733
REMARK  8 active torsions:
REMARK  status: ('A' for Active; 'I' for Inactive)
REMARK    1  A    between atoms: C_2  and  C_3 
REMARK    2  A    between atoms: C_3  and  N_4 
REMARK    3  A    between atoms: C_7  and  C_8 
REMARK       I    between atoms: C_8  and  N_9 
REMARK    4  A    between atoms: N_9  and  N_10 
REMARK       I    between atoms: N_10  and  C_11 
REMARK    5  A    between atoms: C_11  and  C_12 
REMARK    6  A    between atoms: C_12  and  O_13 
REMARK    7  A    between atoms: O_13  and  C_14 
REMARK    8  A    between atoms: C_23  and  C_24 
ROOT
HETATM    1  C   UNL     1      40.989 -17.086   2.430  1.00  0.00     0.273 C 
HETATM    2  N   UNL     1      40.048 -16.095   2.658  1.00  0.00    -0.263 N 
HETATM    3  O   UNL     1      41.124 -17.610   1.327  1.00  0.00    -0.266 OA
HETATM    4  H   UNL     1      40.137 -15.474   3.461  1.00  0.00     0.190 HD
ENDROOT
BRANCH   2   5
HETATM    5  N   UNL     1      39.348 -15.569   1.559  1.00  0.00    -0.265 N 
HETATM    6  C   UNL     1      39.772 -14.354   1.055  1.00  0.00     0.260 C 
HETATM    7  O   UNL     1      40.645 -13.682   1.606  1.00  0.00    -0.269 OA
HETATM    8  H   UNL     1      38.820 -16.236   0.997  1.00  0.00     0.190 HD
BRANCH   6   9
HETATM    9  C   UNL     1      39.063 -13.917  -0.217  1.00  0.00     0.280 C 
BRANCH   9  10
HETATM   10  O   UNL     1      39.754 -14.495  -1.320  1.00  0.00    -0.342 OA
BRANCH  10  11
HETATM   11  C   UNL     1      40.335 -13.620  -2.195  1.00  0.00     0.069 A 
HETATM   12  C   UNL     1      41.728 -13.557  -2.130  1.00  0.00     0.037 A 
HETATM   13  C   UNL     1      42.443 -12.697  -2.968  1.00  0.00     0.009 A 
HETATM   14  C   UNL     1      41.767 -11.872  -3.873  1.00  0.00    -0.062 A 
HETATM   15  C   UNL     1      42.522 -10.962  -4.796  1.00  0.00     0.048 C 
HETATM   16  C   UNL     1      40.370 -11.935  -3.933  1.00  0.00     0.009 A 
HETATM   17  C   UNL     1      39.656 -12.800  -3.095  1.00  0.00     0.037 A 
ENDBRANCH  10  11
ENDBRANCH   9  10
ENDBRANCH   6   9
ENDBRANCH   2   5
BRANCH   1  18
HETATM   18  C   UNL     1      41.744 -17.448   3.617  1.00  0.00     0.077 A 
HETATM   19  C   UNL     1      41.403 -17.062   4.937  1.00  0.00     0.158 A 
HETATM   20  N   UNL     1      42.261 -17.499   5.853  1.00  0.00    -0.183 NA
HETATM   21  N   UNL     1      43.135 -18.238   5.144  1.00  0.00    -0.268 N 
HETATM   22  C   UNL     1      42.914 -18.184   3.780  1.00  0.00     0.052 A 
BRANCH  21  23
HETATM   23  C   UNL     1      44.197 -18.952   5.854  1.00  0.00     0.106 C 
HETATM   24  C   UNL     1      45.163 -17.951   6.492  1.00  0.00     0.034 C 
BRANCH  23  25
HETATM   25  C   UNL     1      43.679 -19.949   6.913  1.00  0.00     0.022 C 
HETATM   26  C   UNL     1      43.919 -21.405   6.530  1.00  0.00     0.007 C 
ENDBRANCH  23  25
ENDBRANCH  21  23
BRANCH  22  27
HETATM   27  C   UNL     1      43.867 -18.790   2.746  1.00  0.00     0.038 A 
HETATM   28  C   UNL     1      44.532 -20.122   2.981  1.00  0.00     0.011 A 
HETATM   29  C   UNL     1      43.451 -20.010   1.957  1.00  0.00     0.011 A 
ENDBRANCH  22  27
ENDBRANCH   1  18
TORSDOF 8
ENDMDL
MODEL 6
REMARK VINA RESULT:      -7.8      5.918     10.155
REMARK  8 active torsions:
REMARK  status: ('A' for Active; 'I' for Inactive)
REMARK    1  A    between atoms: C_2  and  C_3 
REMARK    2  A    between atoms: C_3  and  N_4 
REMARK    3  A    between atoms: C_7  and  C_8 
REMARK       I    between atoms: C_8  and  N_9 
REMARK    4  A    between atoms: N_9  and  N_10 
REMARK       I    between atoms: N_10  and  C_11 
REMARK    5  A    between atoms: C_11  and  C_12 
REMARK    6  A    between atoms: C_12  and  O_13 
REMARK    7  A    between atoms: O_13  and  C_14 
REMARK    8  A    between atoms: C_23  and  C_24 
ROOT
HETATM    1  C   UNL     1      41.378 -16.702   2.537  1.00  0.00     0.273 C 
HETATM    2  N   UNL     1      42.106 -15.765   1.822  1.00  0.00    -0.263 N 
HETATM    3  O   UNL     1      40.248 -17.044   2.194  1.00  0.00    -0.266 OA
HETATM    4  H   UNL     1      43.117 -15.707   1.930  1.00  0.00     0.190 HD
ENDROOT
BRANCH   2   5
HETATM    5  N   UNL     1      41.601 -15.321   0.589  1.00  0.00    -0.265 N 
HETATM    6  C   UNL     1      41.753 -13.982   0.282  1.00  0.00     0.260 C 
HETATM    7  O   UNL     1      42.196 -13.168   1.093  1.00  0.00    -0.269 OA
HETATM    8  H   UNL     1      41.473 -16.032  -0.130  1.00  0.00     0.190 HD
BRANCH   6   9
HETATM    9  C   UNL     1      41.313 -13.603  -1.123  1.00  0.00     0.280 C 
BRANCH   9  10
HETATM   10  O   UNL     1      41.002 -14.805  -1.820  1.00  0.00    -0.342 OA
BRANCH  10  11
HETATM   11  C   UNL     1      39.851 -14.795  -2.559  1.00  0.00     0.069 A 
HETATM   12  C   UNL     1      38.931 -13.806  -2.207  1.00  0.00     0.037 A 
HETATM   13  C   UNL     1      37.714 -13.693  -2.882  1.00  0.00     0.009 A 
HETATM   14  C   UNL     1      37.392 -14.584  -3.910  1.00  0.00    -0.062 A 
HETATM   15  C   UNL     1      36.099 -14.459  -4.661  1.00  0.00     0.048 C 
HETATM   16  C   UNL     1      38.315 -15.577  -4.258  1.00  0.00     0.009 A 
HETATM   17  C   UNL     1      39.536 -15.687  -3.583  1.00  0.00     0.037 A 
ENDBRANCH  10  11
ENDBRANCH   9  10
ENDBRANCH   6   9
ENDBRANCH   2   5
BRANCH   1  18
HETATM   18  C   UNL     1      42.065 -17.187   3.721  1.00  0.00     0.077 A 
HETATM   19  C   UNL     1      41.718 -16.842   5.051  1.00  0.00     0.158 A 
HETATM   20  N   UNL     1      42.510 -17.396   5.964  1.00  0.00    -0.183 NA
HETATM   21  N   UNL     1      43.342 -18.168   5.238  1.00  0.00    -0.268 N 
HETATM   22  C   UNL     1      43.166 -18.025   3.873  1.00  0.00     0.052 A 
BRANCH  21  23
HETATM   23  C   UNL     1      44.321 -19.003   5.935  1.00  0.00     0.106 C 
HETATM   24  C   UNL     1      45.183 -18.137   6.857  1.00  0.00     0.034 C 
BRANCH  23  25
HETATM   25  C   UNL     1      43.694 -20.172   6.725  1.00  0.00     0.022 C 
HETATM   26  C   UNL     1      44.127 -21.540   6.211  1.00  0.00     0.007 C 
ENDBRANCH  23  25
ENDBRANCH  21  23
BRANCH  22  27
HETATM   27  C   UNL     1      44.097 -18.654   2.833  1.00  0.00     0.038 A 
HETATM   28  C   UNL     1      44.279 -20.148   2.748  1.00  0.00     0.011 A 
HETATM   29  C   UNL     1      43.519 -19.438   1.677  1.00  0.00     0.011 A 
ENDBRANCH  22  27
ENDBRANCH   1  18
TORSDOF 8
ENDMDL
MODEL 7
REMARK VINA RESULT:      -7.7      6.017      9.097
REMARK  8 active torsions:
REMARK  status: ('A' for Active; 'I' for Inactive)
REMARK    1  A    between atoms: C_2  and  C_3 
REMARK    2  A    between atoms: C_3  and  N_4 
REMARK    3  A    between atoms: C_7  and  C_8 
REMARK       I    between atoms: C_8  and  N_9 
REMARK    4  A    between atoms: N_9  and  N_10 
REMARK       I    between atoms: N_10  and  C_11 
REMARK    5  A    between atoms: C_11  and  C_12 
REMARK    6  A    between atoms: C_12  and  O_13 
REMARK    7  A    between atoms: O_13  and  C_14 
REMARK    8  A    between atoms: C_23  and  C_24 
ROOT
HETATM    1  C   UNL     1      41.906 -17.631   1.252  1.00  0.00     0.273 C 
HETATM    2  N   UNL     1      42.671 -16.644   0.652  1.00  0.00    -0.263 N 
HETATM    3  O   UNL     1      40.705 -17.751   1.018  1.00  0.00    -0.266 OA
HETATM    4  H   UNL     1      43.686 -16.730   0.616  1.00  0.00     0.190 HD
ENDROOT
BRANCH   2   5
HETATM    5  N   UNL     1      42.091 -15.871  -0.367  1.00  0.00    -0.265 N 
HETATM    6  C   UNL     1      41.722 -14.577  -0.055  1.00  0.00     0.260 C 
HETATM    7  O   UNL     1      41.774 -14.137   1.095  1.00  0.00    -0.269 OA
HETATM    8  H   UNL     1      42.286 -16.165  -1.324  1.00  0.00     0.190 HD
BRANCH   6   9
HETATM    9  C   UNL     1      41.236 -13.757  -1.239  1.00  0.00     0.280 C 
BRANCH   9  10
HETATM   10  O   UNL     1      42.380 -13.323  -1.967  1.00  0.00    -0.342 OA
BRANCH  10  11
HETATM   11  C   UNL     1      42.603 -11.974  -1.997  1.00  0.00     0.069 A 
HETATM   12  C   UNL     1      42.304 -11.353  -3.211  1.00  0.00     0.037 A 
HETATM   13  C   UNL     1      42.492  -9.978  -3.373  1.00  0.00     0.009 A 
HETATM   14  C   UNL     1      43.002  -9.208  -2.324  1.00  0.00    -0.062 A 
HETATM   15  C   UNL     1      43.186  -7.727  -2.475  1.00  0.00     0.048 C 
HETATM   16  C   UNL     1      43.304  -9.834  -1.109  1.00  0.00     0.009 A 
HETATM   17  C   UNL     1      43.111 -11.212  -0.947  1.00  0.00     0.037 A 
ENDBRANCH  10  11
ENDBRANCH   9  10
ENDBRANCH   6   9
ENDBRANCH   2   5
BRANCH   1  18
HETATM   18  C   UNL     1      42.653 -18.453   2.188  1.00  0.00     0.077 A 
HETATM   19  C   UNL     1      43.345 -19.640   1.842  1.00  0.00     0.158 A 
HETATM   20  N   UNL     1      43.935 -20.228   2.877  1.00  0.00    -0.183 NA
HETATM   21  N   UNL     1      43.693 -19.387   3.901  1.00  0.00    -0.268 N 
HETATM   22  C   UNL     1      42.862 -18.336   3.559  1.00  0.00     0.052 A 
BRANCH  21  23
HETATM   23  C   UNL     1      44.273 -19.683   5.212  1.00  0.00     0.106 C 
HETATM   24  C   UNL     1      44.706 -21.150   5.273  1.00  0.00     0.034 C 
BRANCH  23  25
HETATM   25  C   UNL     1      45.448 -18.759   5.597  1.00  0.00     0.022 C 
HETATM   26  C   UNL     1      45.104 -17.793   6.725  1.00  0.00     0.007 C 
ENDBRANCH  23  25
ENDBRANCH  21  23
BRANCH  22  27
HETATM   27  C   UNL     1      42.294 -17.343   4.577  1.00  0.00     0.038 A 
HETATM   28  C   UNL     1      41.043 -16.554   4.286  1.00  0.00     0.011 A 
HETATM   29  C   UNL     1      41.001 -17.653   5.295  1.00  0.00     0.011 A 
ENDBRANCH  22  27
ENDBRANCH   1  18
TORSDOF 8
ENDMDL
MODEL 8
REMARK VINA RESULT:      -7.6      4.933      7.999
REMARK  8 active torsions:
REMARK  status: ('A' for Active; 'I' for Inactive)
REMARK    1  A    between atoms: C_2  and  C_3 
REMARK    2  A    between atoms: C_3  and  N_4 
REMARK    3  A    between atoms: C_7  and  C_8 
REMARK       I    between atoms: C_8  and  N_9 
REMARK    4  A    between atoms: N_9  and  N_10 
REMARK       I    between atoms: N_10  and  C_11 
REMARK    5  A    between atoms: C_11  and  C_12 
REMARK    6  A    between atoms: C_12  and  O_13 
REMARK    7  A    between atoms: O_13  and  C_14 
REMARK    8  A    between atoms: C_23  and  C_24 
ROOT
HETATM    1  C   UNL     1      42.320 -14.441   4.007  1.00  0.00     0.273 C 
HETATM    2  N   UNL     1      41.642 -14.709   5.186  1.00  0.00    -0.263 N 
HETATM    3  O   UNL     1      43.545 -14.502   3.937  1.00  0.00    -0.266 OA
HETATM    4  H   UNL     1      40.651 -14.944   5.167  1.00  0.00     0.190 HD
ENDROOT
BRANCH   2   5
HETATM    5  N   UNL     1      42.366 -15.218   6.276  1.00  0.00    -0.265 N 
HETATM    6  C   UNL     1      42.070 -16.501   6.695  1.00  0.00     0.260 C 
HETATM    7  O   UNL     1      41.128 -17.144   6.230  1.00  0.00    -0.269 OA
HETATM    8  H   UNL     1      43.267 -14.779   6.466  1.00  0.00     0.190 HD
BRANCH   6   9
HETATM    9  C   UNL     1      42.988 -17.037   7.783  1.00  0.00     0.280 C 
BRANCH   9  10
HETATM   10  O   UNL     1      44.216 -17.412   7.168  1.00  0.00    -0.342 OA
BRANCH  10  11
HETATM   11  C   UNL     1      44.280 -18.684   6.670  1.00  0.00     0.069 A 
HETATM   12  C   UNL     1      44.888 -18.799   5.419  1.00  0.00     0.037 A 
HETATM   13  C   UNL     1      45.011 -20.044   4.798  1.00  0.00     0.009 A 
HETATM   14  C   UNL     1      44.507 -21.193   5.416  1.00  0.00    -0.062 A 
HETATM   15  C   UNL     1      44.654 -22.540   4.773  1.00  0.00     0.048 C 
HETATM   16  C   UNL     1      43.895 -21.074   6.669  1.00  0.00     0.009 A 
HETATM   17  C   UNL     1      43.776 -19.825   7.291  1.00  0.00     0.037 A 
ENDBRANCH  10  11
ENDBRANCH   9  10
ENDBRANCH   6   9
ENDBRANCH   2   5
BRANCH   1  18
HETATM   18  C   UNL     1      41.445 -14.055   2.913  1.00  0.00     0.077 A 
HETATM   19  C   UNL     1      41.217 -12.719   2.499  1.00  0.00     0.158 A 
HETATM   20  N   UNL     1      40.359 -12.619   1.490  1.00  0.00    -0.183 NA
HETATM   21  N   UNL     1      40.072 -13.899   1.187  1.00  0.00    -0.268 N 
HETATM   22  C   UNL     1      40.643 -14.807   2.061  1.00  0.00     0.052 A 
BRANCH  21  23
HETATM   23  C   UNL     1      39.198 -14.178   0.047  1.00  0.00     0.106 C 
HETATM   24  C   UNL     1      37.920 -13.342   0.152  1.00  0.00     0.034 C 
BRANCH  23  25
HETATM   25  C   UNL     1      39.872 -13.961  -1.325  1.00  0.00     0.022 C 
HETATM   26  C   UNL     1      40.775 -15.118  -1.737  1.00  0.00     0.007 C 
ENDBRANCH  23  25
ENDBRANCH  21  23
BRANCH  22  27
HETATM   27  C   UNL     1      40.331 -16.306   2.043  1.00  0.00     0.038 A 
HETATM   28  C   UNL     1      41.134 -17.262   1.198  1.00  0.00     0.011 A 
HETATM   29  C   UNL     1      41.288 -17.285   2.683  1.00  0.00     0.011 A 
ENDBRANCH  22  27
ENDBRANCH   1  18
TORSDOF 8
ENDMDL
MODEL 9
REMARK VINA RESULT:      -7.4      2.747      3.577
REMARK  8 active torsions:
REMARK  status: ('A' for Active; 'I' for Inactive)
REMARK    1  A    between atoms: C_2  and  C_3 
REMARK    2  A    between atoms: C_3  and  N_4 
REMARK    3  A    between atoms: C_7  and  C_8 
REMARK       I    between atoms: C_8  and  N_9 
REMARK    4  A    between atoms: N_9  and  N_10 
REMARK       I    between atoms: N_10  and  C_11 
REMARK    5  A    between atoms: C_11  and  C_12 
REMARK    6  A    between atoms: C_12  and  O_13 
REMARK    7  A    between atoms: O_13  and  C_14 
REMARK    8  A    between atoms: C_23  and  C_24 
ROOT
HETATM    1  C   UNL     1      41.213 -14.153   5.464  1.00  0.00     0.273 C 
HETATM    2  N   UNL     1      42.304 -13.346   5.742  1.00  0.00    -0.263 N 
HETATM    3  O   UNL     1      40.269 -14.257   6.243  1.00  0.00    -0.266 OA
HETATM    4  H   UNL     1      42.921 -13.038   4.991  1.00  0.00     0.190 HD
ENDROOT
BRANCH   2   5
HETATM    5  N   UNL     1      42.248 -12.505   6.865  1.00  0.00    -0.265 N 
HETATM    6  C   UNL     1      41.764 -11.224   6.679  1.00  0.00     0.260 C 
HETATM    7  O   UNL     1      41.504 -10.775   5.562  1.00  0.00    -0.269 OA
HETATM    8  H   UNL     1      42.232 -12.965   7.775  1.00  0.00     0.190 HD
BRANCH   6   9
HETATM    9  C   UNL     1      41.598 -10.421   7.960  1.00  0.00     0.280 C 
BRANCH   9  10
HETATM   10  O   UNL     1      42.868 -10.357   8.600  1.00  0.00    -0.342 OA
BRANCH  10  11
HETATM   11  C   UNL     1      42.856 -10.347   9.967  1.00  0.00     0.069 A 
HETATM   12  C   UNL     1      41.588 -10.407  10.547  1.00  0.00     0.037 A 
HETATM   13  C   UNL     1      41.439 -10.398  11.936  1.00  0.00     0.009 A 
HETATM   14  C   UNL     1      42.561 -10.311  12.765  1.00  0.00    -0.062 A 
HETATM   15  C   UNL     1      42.418 -10.325  14.259  1.00  0.00     0.048 C 
HETATM   16  C   UNL     1      43.831 -10.247  12.181  1.00  0.00     0.009 A 
HETATM   17  C   UNL     1      43.979 -10.259  10.788  1.00  0.00     0.037 A 
ENDBRANCH  10  11
ENDBRANCH   9  10
ENDBRANCH   6   9
ENDBRANCH   2   5
BRANCH   1  18
HETATM   18  C   UNL     1      41.331 -14.870   4.205  1.00  0.00     0.077 A 
HETATM   19  C   UNL     1      41.282 -14.263   2.926  1.00  0.00     0.158 A 
HETATM   20  N   UNL     1      41.390 -15.130   1.925  1.00  0.00    -0.183 NA
HETATM   21  N   UNL     1      41.582 -16.310   2.546  1.00  0.00    -0.268 N 
HETATM   22  C   UNL     1      41.483 -16.224   3.923  1.00  0.00     0.052 A 
BRANCH  21  23
HETATM   23  C   UNL     1      41.823 -17.505   1.736  1.00  0.00     0.106 C 
HETATM   24  C   UNL     1      40.585 -17.824   0.894  1.00  0.00     0.034 C 
BRANCH  23  25
HETATM   25  C   UNL     1      43.075 -17.407   0.837  1.00  0.00     0.022 C 
HETATM   26  C   UNL     1      44.377 -17.355   1.628  1.00  0.00     0.007 C 
ENDBRANCH  23  25
ENDBRANCH  21  23
BRANCH  22  27
HETATM   27  C   UNL     1      41.487 -17.445   4.847  1.00  0.00     0.038 A 
HETATM   28  C   UNL     1      42.701 -18.329   4.970  1.00  0.00     0.011 A 
HETATM   29  C   UNL     1      42.322 -17.439   6.106  1.00  0.00     0.011 A 
ENDBRANCH  22  27
ENDBRANCH   1  18
TORSDOF 8
ENDMDL
MODEL 10
REMARK VINA RESULT:      -7.4      3.021      3.484
REMARK  8 active torsions:
REMARK  status: ('A' for Active; 'I' for Inactive)
REMARK    1  A    between atoms: C_2  and  C_3 
REMARK    2  A    between atoms: C_3  and  N_4 
REMARK    3  A    between atoms: C_7  and  C_8 
REMARK       I    between atoms: C_8  and  N_9 
REMARK    4  A    between atoms: N_9  and  N_10 
REMARK       I    between atoms: N_10  and  C_11 
REMARK    5  A    between atoms: C_11  and  C_12 
REMARK    6  A    between atoms: C_12  and  O_13 
REMARK    7  A    between atoms: O_13  and  C_14 
REMARK    8  A    between atoms: C_23  and  C_24 
ROOT
HETATM    1  C   UNL     1      41.094 -16.562   5.868  1.00  0.00     0.273 C 
HETATM    2  N   UNL     1      41.473 -15.233   5.784  1.00  0.00    -0.263 N 
HETATM    3  O   UNL     1      40.156 -16.925   6.574  1.00  0.00    -0.266 OA
HETATM    4  H   UNL     1      42.034 -14.906   4.999  1.00  0.00     0.190 HD
ENDROOT
BRANCH   2   5
HETATM    5  N   UNL     1      40.660 -14.263   6.394  1.00  0.00    -0.265 N 
HETATM    6  C   UNL     1      40.155 -13.258   5.592  1.00  0.00     0.260 C 
HETATM    7  O   UNL     1      40.491 -13.124   4.415  1.00  0.00    -0.269 OA
HETATM    8  H   UNL     1      40.218 -14.531   7.273  1.00  0.00     0.190 HD
BRANCH   6   9
HETATM    9  C   UNL     1      39.172 -12.330   6.288  1.00  0.00     0.280 C 
BRANCH   9  10
HETATM   10  O   UNL     1      39.840 -11.097   6.537  1.00  0.00    -0.342 OA
BRANCH  10  11
HETATM   11  C   UNL     1      40.385 -10.946   7.783  1.00  0.00     0.069 A 
HETATM   12  C   UNL     1      41.754 -10.674   7.799  1.00  0.00     0.037 A 
HETATM   13  C   UNL     1      42.432 -10.503   9.008  1.00  0.00     0.009 A 
HETATM   14  C   UNL     1      41.749 -10.622  10.222  1.00  0.00    -0.062 A 
HETATM   15  C   UNL     1      42.459 -10.416  11.528  1.00  0.00     0.048 C 
HETATM   16  C   UNL     1      40.377 -10.898  10.203  1.00  0.00     0.009 A 
HETATM   17  C   UNL     1      39.698 -11.065   8.990  1.00  0.00     0.037 A 
ENDBRANCH  10  11
ENDBRANCH   9  10
ENDBRANCH   6   9
ENDBRANCH   2   5
BRANCH   1  18
HETATM   18  C   UNL     1      41.932 -17.452   5.083  1.00  0.00     0.077 A 
HETATM   19  C   UNL     1      42.797 -18.434   5.629  1.00  0.00     0.158 A 
HETATM   20  N   UNL     1      43.476 -19.109   4.708  1.00  0.00    -0.183 NA
HETATM   21  N   UNL     1      43.007 -18.622   3.544  1.00  0.00    -0.268 N 
HETATM   22  C   UNL     1      42.125 -17.568   3.710  1.00  0.00     0.052 A 
BRANCH  21  23
HETATM   23  C   UNL     1      43.486 -19.202   2.289  1.00  0.00     0.106 C 
HETATM   24  C   UNL     1      44.270 -18.155   1.495  1.00  0.00     0.034 C 
BRANCH  23  25
HETATM   25  C   UNL     1      44.331 -20.481   2.476  1.00  0.00     0.022 C 
HETATM   26  C   UNL     1      43.803 -21.668   1.679  1.00  0.00     0.007 C 
ENDBRANCH  23  25
ENDBRANCH  21  23
BRANCH  22  27
HETATM   27  C   UNL     1      41.587 -16.728   2.549  1.00  0.00     0.038 A 
HETATM   28  C   UNL     1      40.761 -17.348   1.451  1.00  0.00     0.011 A 
HETATM   29  C   UNL     1      40.107 -16.445   2.442  1.00  0.00     0.011 A 
ENDBRANCH  22  27
ENDBRANCH   1  18
TORSDOF 8
ENDMDL
