MODEL 1
REMARK VINA RESULT:      -9.2      0.000      0.000
REMARK  6 active torsions:
REMARK  status: ('A' for Active; 'I' for Inactive)
REMARK    1  A    between atoms: C_2  and  O_3 
REMARK    2  A    between atoms: O_3  and  C_4 
REMARK    3  A    between atoms: C_5  and  O_6 
REMARK    4  A    between atoms: O_6  and  C_7 
REMARK    5  A    between atoms: C_7  and  C_8 
REMARK    6  A    between atoms: C_18  and  C_19 
ROOT
HETATM    1  C   UNL     1      42.306 -14.271   5.757  1.00  0.00     0.103 A 
HETATM    2  C   UNL     1      41.141 -14.957   5.411  1.00  0.00     0.112 A 
HETATM    3  C   UNL     1      39.888 -14.363   5.537  1.00  0.00     0.041 A 
HETATM    4  C   UNL     1      39.806 -13.019   5.901  1.00  0.00     0.014 A 
HETATM    5  C   UNL     1      40.971 -12.259   6.137  1.00  0.00    -0.013 A 
HETATM    6  C   UNL     1      42.217 -12.921   6.104  1.00  0.00     0.050 A 
ENDROOT
BRANCH   5   7
HETATM    7  C   UNL     1      40.844 -10.749   6.339  1.00  0.00     0.219 C 
HETATM    8  N   UNL     1      39.629 -10.335   7.003  1.00  0.00    -0.332 N 
HETATM    9  C   UNL     1      39.466 -10.408   8.365  1.00  0.00     0.256 C 
HETATM   10  H   UNL     1      38.777 -10.298   6.466  1.00  0.00     0.165 HD
HETATM   11  O   UNL     1      38.358 -10.368   8.887  1.00  0.00    -0.267 OA
HETATM   12  C   UNL     1      40.693 -10.564   9.127  1.00  0.00     0.073 A 
HETATM   13  C   UNL     1      41.893 -10.453   8.463  1.00  0.00     0.088 A 
HETATM   14  C   UNL     1      40.881 -10.857  10.513  1.00  0.00    -0.023 A 
HETATM   15  S   UNL     1      43.234 -10.632   9.488  1.00  0.00    -0.074 SA
HETATM   16  N   UNL     1      41.968 -10.252   7.126  1.00  0.00    -0.358 N 
HETATM   17  C   UNL     1      42.227 -10.930  10.829  1.00  0.00     0.018 A 
HETATM   18  C   UNL     1      42.776 -11.278  12.167  1.00  0.00     0.281 C 
HETATM   19  N   UNL     1      41.707 -11.177  13.251  1.00  0.00    -0.070 N 
HETATM   20  C   UNL     1      40.382 -11.783  12.793  1.00  0.00     0.239 C 
HETATM   21  H   UNL     1      42.041 -11.759  14.030  1.00  0.00     0.279 HD
HETATM   22  C   UNL     1      41.568  -9.784  13.795  1.00  0.00     0.270 C 
HETATM   23  C   UNL     1      39.818 -11.078  11.546  1.00  0.00     0.068 C 
HETATM   24  H   UNL     1      42.873 -10.391   6.687  1.00  0.00     0.162 HD
ENDBRANCH   5   7
BRANCH   1  25
HETATM   25  O   UNL     1      43.491 -14.951   5.655  1.00  0.00    -0.349 OA
BRANCH  25  26
HETATM   26  C   UNL     1      44.182 -15.136   6.894  1.00  0.00     0.171 C 
HETATM   27  C   UNL     1      43.654 -16.403   7.542  1.00  0.00     0.034 C 
ENDBRANCH  25  26
ENDBRANCH   1  25
BRANCH   2  28
HETATM   28  O   UNL     1      41.248 -16.271   4.952  1.00  0.00    -0.272 OA
BRANCH  28  29
HETATM   29  C   UNL     1      41.460 -16.303   3.588  1.00  0.00     0.298 C 
HETATM   30  O   UNL     1      41.065 -15.514   2.740  1.00  0.00    -0.259 OA
BRANCH  29  31
HETATM   31  C   UNL     1      42.248 -17.509   3.248  1.00  0.00     0.040 A 
HETATM   32  C   UNL     1      42.994 -18.128   4.257  1.00  0.00     0.019 A 
HETATM   33  C   UNL     1      43.698 -19.304   3.984  1.00  0.00     0.020 A 
HETATM   34  C   UNL     1      43.638 -19.863   2.707  1.00  0.00     0.011 A 
HETATM   35 BR   UNL     1      44.564 -21.470   2.345  1.00  0.00    -0.051 Br
HETATM   36  C   UNL     1      42.889 -19.254   1.699  1.00  0.00     0.020 A 
HETATM   37  C   UNL     1      42.193 -18.074   1.966  1.00  0.00     0.019 A 
ENDBRANCH  29  31
ENDBRANCH  28  29
ENDBRANCH   2  28
TORSDOF 6
ENDMDL
MODEL 2
REMARK VINA RESULT:      -8.8      5.205      7.851
REMARK  6 active torsions:
REMARK  status: ('A' for Active; 'I' for Inactive)
REMARK    1  A    between atoms: C_2  and  O_3 
REMARK    2  A    between atoms: O_3  and  C_4 
REMARK    3  A    between atoms: C_5  and  O_6 
REMARK    4  A    between atoms: O_6  and  C_7 
REMARK    5  A    between atoms: C_7  and  C_8 
REMARK    6  A    between atoms: C_18  and  C_19 
ROOT
HETATM    1  C   UNL     1      40.686 -14.853   4.080  1.00  0.00     0.103 A 
HETATM    2  C   UNL     1      41.228 -16.071   3.667  1.00  0.00     0.112 A 
HETATM    3  C   UNL     1      40.691 -16.771   2.590  1.00  0.00     0.041 A 
HETATM    4  C   UNL     1      39.672 -16.187   1.837  1.00  0.00     0.014 A 
HETATM    5  C   UNL     1      39.186 -14.901   2.151  1.00  0.00    -0.013 A 
HETATM    6  C   UNL     1      39.677 -14.267   3.312  1.00  0.00     0.050 A 
ENDROOT
BRANCH   5   7
HETATM    7  C   UNL     1      38.212 -14.220   1.188  1.00  0.00     0.219 C 
HETATM    8  N   UNL     1      38.008 -12.812   1.439  1.00  0.00    -0.332 N 
HETATM    9  C   UNL     1      38.897 -11.848   1.029  1.00  0.00     0.256 C 
HETATM   10  H   UNL     1      37.393 -12.544   2.192  1.00  0.00     0.165 HD
HETATM   11  O   UNL     1      38.894 -10.721   1.508  1.00  0.00    -0.267 OA
HETATM   12  C   UNL     1      39.846 -12.275   0.016  1.00  0.00     0.073 A 
HETATM   13  C   UNL     1      39.676 -13.512  -0.561  1.00  0.00     0.088 A 
HETATM   14  C   UNL     1      41.005 -11.611  -0.493  1.00  0.00    -0.023 A 
HETATM   15  S   UNL     1      40.844 -13.857  -1.742  1.00  0.00    -0.074 SA
HETATM   16  N   UNL     1      38.687 -14.359  -0.185  1.00  0.00    -0.358 N 
HETATM   17  C   UNL     1      41.641 -12.381  -1.451  1.00  0.00     0.018 A 
HETATM   18  C   UNL     1      42.909 -12.018  -2.139  1.00  0.00     0.281 C 
HETATM   19  N   UNL     1      43.239 -10.539  -1.957  1.00  0.00    -0.070 N 
HETATM   20  C   UNL     1      42.998 -10.083  -0.520  1.00  0.00     0.239 C 
HETATM   21  H   UNL     1      44.249 -10.455  -2.125  1.00  0.00     0.279 HD
HETATM   22  C   UNL     1      42.567  -9.670  -2.980  1.00  0.00     0.270 C 
HETATM   23  C   UNL     1      41.532 -10.267  -0.087  1.00  0.00     0.068 C 
HETATM   24  H   UNL     1      38.756 -15.321  -0.503  1.00  0.00     0.162 HD
ENDBRANCH   5   7
BRANCH   1  25
HETATM   25  O   UNL     1      41.240 -14.260   5.184  1.00  0.00    -0.349 OA
BRANCH  25  26
HETATM   26  C   UNL     1      42.191 -13.231   4.895  1.00  0.00     0.171 C 
HETATM   27  C   UNL     1      43.538 -13.669   5.442  1.00  0.00     0.034 C 
ENDBRANCH  25  26
ENDBRANCH   1  25
BRANCH   2  28
HETATM   28  O   UNL     1      42.314 -16.594   4.370  1.00  0.00    -0.272 OA
BRANCH  28  29
HETATM   29  C   UNL     1      43.362 -16.883   3.519  1.00  0.00     0.298 C 
HETATM   30  O   UNL     1      43.820 -16.194   2.618  1.00  0.00    -0.259 OA
BRANCH  29  31
HETATM   31  C   UNL     1      43.877 -18.237   3.826  1.00  0.00     0.040 A 
HETATM   32  C   UNL     1      44.136 -18.567   5.162  1.00  0.00     0.019 A 
HETATM   33  C   UNL     1      44.562 -19.856   5.492  1.00  0.00     0.020 A 
HETATM   34  C   UNL     1      44.711 -20.812   4.486  1.00  0.00     0.011 A 
HETATM   35 BR   UNL     1      45.259 -22.564   4.936  1.00  0.00    -0.051 Br
HETATM   36  C   UNL     1      44.447 -20.491   3.154  1.00  0.00     0.020 A 
HETATM   37  C   UNL     1      44.030 -19.200   2.820  1.00  0.00     0.019 A 
ENDBRANCH  29  31
ENDBRANCH  28  29
ENDBRANCH   2  28
TORSDOF 6
ENDMDL
MODEL 3
REMARK VINA RESULT:      -8.6      5.367      8.509
REMARK  6 active torsions:
REMARK  status: ('A' for Active; 'I' for Inactive)
REMARK    1  A    between atoms: C_2  and  O_3 
REMARK    2  A    between atoms: O_3  and  C_4 
REMARK    3  A    between atoms: C_5  and  O_6 
REMARK    4  A    between atoms: O_6  and  C_7 
REMARK    5  A    between atoms: C_7  and  C_8 
REMARK    6  A    between atoms: C_18  and  C_19 
ROOT
HETATM    1  C   UNL     1      41.597 -14.339   3.390  1.00  0.00     0.103 A 
HETATM    2  C   UNL     1      41.822 -15.707   3.237  1.00  0.00     0.112 A 
HETATM    3  C   UNL     1      40.861 -16.538   2.666  1.00  0.00     0.041 A 
HETATM    4  C   UNL     1      39.705 -15.972   2.128  1.00  0.00     0.014 A 
HETATM    5  C   UNL     1      39.502 -14.575   2.152  1.00  0.00    -0.013 A 
HETATM    6  C   UNL     1      40.444 -13.777   2.834  1.00  0.00     0.050 A 
ENDROOT
BRANCH   5   7
HETATM    7  C   UNL     1      38.322 -13.984   1.381  1.00  0.00     0.219 C 
HETATM    8  N   UNL     1      38.271 -12.540   1.380  1.00  0.00    -0.332 N 
HETATM    9  C   UNL     1      39.046 -11.770   0.546  1.00  0.00     0.256 C 
HETATM   10  H   UNL     1      37.922 -12.072   2.201  1.00  0.00     0.165 HD
HETATM   11  O   UNL     1      39.241 -10.580   0.760  1.00  0.00    -0.267 OA
HETATM   12  C   UNL     1      39.630 -12.478  -0.581  1.00  0.00     0.073 A 
HETATM   13  C   UNL     1      39.235 -13.774  -0.816  1.00  0.00     0.088 A 
HETATM   14  C   UNL     1      40.617 -12.048  -1.521  1.00  0.00    -0.023 A 
HETATM   15  S   UNL     1      39.982 -14.456  -2.178  1.00  0.00    -0.074 SA
HETATM   16  N   UNL     1      38.361 -14.424  -0.010  1.00  0.00    -0.358 N 
HETATM   17  C   UNL     1      40.901 -13.046  -2.436  1.00  0.00     0.018 A 
HETATM   18  C   UNL     1      41.925 -12.957  -3.513  1.00  0.00     0.281 C 
HETATM   19  N   UNL     1      42.367 -11.515  -3.743  1.00  0.00    -0.070 N 
HETATM   20  C   UNL     1      42.586 -10.777  -2.424  1.00  0.00     0.239 C 
HETATM   21  H   UNL     1      43.285 -11.573  -4.201  1.00  0.00     0.279 HD
HETATM   22  C   UNL     1      41.466 -10.781  -4.694  1.00  0.00     0.270 C 
HETATM   23  C   UNL     1      41.307 -10.718  -1.569  1.00  0.00     0.068 C 
HETATM   24  H   UNL     1      38.285 -15.431  -0.127  1.00  0.00     0.162 HD
ENDBRANCH   5   7
BRANCH   1  25
HETATM   25  O   UNL     1      42.572 -13.606   4.014  1.00  0.00    -0.349 OA
BRANCH  25  26
HETATM   26  C   UNL     1      42.309 -13.310   5.389  1.00  0.00     0.171 C 
HETATM   27  C   UNL     1      43.516 -13.741   6.202  1.00  0.00     0.034 C 
ENDBRANCH  25  26
ENDBRANCH   1  25
BRANCH   2  28
HETATM   28  O   UNL     1      43.028 -16.243   3.691  1.00  0.00    -0.272 OA
BRANCH  28  29
HETATM   29  C   UNL     1      43.616 -17.030   2.721  1.00  0.00     0.298 C 
HETATM   30  O   UNL     1      43.842 -16.752   1.552  1.00  0.00    -0.259 OA
BRANCH  29  31
HETATM   31  C   UNL     1      43.930 -18.356   3.299  1.00  0.00     0.040 A 
HETATM   32  C   UNL     1      44.032 -19.455   2.437  1.00  0.00     0.019 A 
HETATM   33  C   UNL     1      44.390 -20.707   2.943  1.00  0.00     0.020 A 
HETATM   34  C   UNL     1      44.660 -20.851   4.304  1.00  0.00     0.011 A 
HETATM   35 BR   UNL     1      45.174 -22.538   4.982  1.00  0.00    -0.051 Br
HETATM   36  C   UNL     1      44.568 -19.758   5.166  1.00  0.00     0.020 A 
HETATM   37  C   UNL     1      44.200 -18.506   4.666  1.00  0.00     0.019 A 
ENDBRANCH  29  31
ENDBRANCH  28  29
ENDBRANCH   2  28
TORSDOF 6
ENDMDL
MODEL 4
REMARK VINA RESULT:      -8.0      5.298      8.241
REMARK  6 active torsions:
REMARK  status: ('A' for Active; 'I' for Inactive)
REMARK    1  A    between atoms: C_2  and  O_3 
REMARK    2  A    between atoms: O_3  and  C_4 
REMARK    3  A    between atoms: C_5  and  O_6 
REMARK    4  A    between atoms: O_6  and  C_7 
REMARK    5  A    between atoms: C_7  and  C_8 
REMARK    6  A    between atoms: C_18  and  C_19 
ROOT
HETATM    1  C   UNL     1      41.333 -15.288   3.927  1.00  0.00     0.103 A 
HETATM    2  C   UNL     1      42.654 -15.077   3.528  1.00  0.00     0.112 A 
HETATM    3  C   UNL     1      43.021 -13.935   2.822  1.00  0.00     0.041 A 
HETATM    4  C   UNL     1      42.076 -12.929   2.615  1.00  0.00     0.014 A 
HETATM    5  C   UNL     1      40.762 -13.055   3.115  1.00  0.00    -0.013 A 
HETATM    6  C   UNL     1      40.397 -14.270   3.731  1.00  0.00     0.050 A 
ENDROOT
BRANCH   5   7
HETATM    7  C   UNL     1      39.821 -11.852   3.038  1.00  0.00     0.219 C 
HETATM    8  N   UNL     1      40.332 -10.741   2.268  1.00  0.00    -0.332 N 
HETATM    9  C   UNL     1      40.290 -10.708   0.895  1.00  0.00     0.256 C 
HETATM   10  H   UNL     1      41.014 -10.134   2.695  1.00  0.00     0.165 HD
HETATM   11  O   UNL     1      40.992  -9.944   0.244  1.00  0.00    -0.267 OA
HETATM   12  C   UNL     1      39.377 -11.659   0.283  1.00  0.00     0.073 A 
HETATM   13  C   UNL     1      38.529 -12.370   1.099  1.00  0.00     0.088 A 
HETATM   14  C   UNL     1      39.219 -12.024  -1.090  1.00  0.00    -0.023 A 
HETATM   15  S   UNL     1      37.508 -13.418   0.238  1.00  0.00    -0.074 SA
HETATM   16  N   UNL     1      38.548 -12.249   2.448  1.00  0.00    -0.358 N 
HETATM   17  C   UNL     1      38.236 -12.986  -1.240  1.00  0.00     0.018 A 
HETATM   18  C   UNL     1      37.858 -13.633  -2.525  1.00  0.00     0.281 C 
HETATM   19  N   UNL     1      38.404 -12.859  -3.721  1.00  0.00    -0.070 N 
HETATM   20  C   UNL     1      39.847 -12.414  -3.490  1.00  0.00     0.239 C 
HETATM   21  H   UNL     1      38.426 -13.527  -4.501  1.00  0.00     0.279 HD
HETATM   22  C   UNL     1      37.496 -11.741  -4.147  1.00  0.00     0.270 C 
HETATM   23  C   UNL     1      39.985 -11.492  -2.264  1.00  0.00     0.068 C 
HETATM   24  H   UNL     1      38.046 -12.952   2.983  1.00  0.00     0.162 HD
ENDBRANCH   5   7
BRANCH   1  25
HETATM   25  O   UNL     1      41.050 -16.466   4.567  1.00  0.00    -0.349 OA
BRANCH  25  26
HETATM   26  C   UNL     1      40.715 -16.328   5.951  1.00  0.00     0.171 C 
HETATM   27  C   UNL     1      41.836 -16.942   6.769  1.00  0.00     0.034 C 
ENDBRANCH  25  26
ENDBRANCH   1  25
BRANCH   2  28
HETATM   28  O   UNL     1      43.609 -16.048   3.831  1.00  0.00    -0.272 OA
BRANCH  28  29
HETATM   29  C   UNL     1      43.735 -16.957   2.800  1.00  0.00     0.298 C 
HETATM   30  O   UNL     1      43.621 -16.762   1.598  1.00  0.00    -0.259 OA
BRANCH  29  31
HETATM   31  C   UNL     1      44.010 -18.297   3.366  1.00  0.00     0.040 A 
HETATM   32  C   UNL     1      44.094 -19.389   2.493  1.00  0.00     0.019 A 
HETATM   33  C   UNL     1      44.415 -20.655   2.988  1.00  0.00     0.020 A 
HETATM   34  C   UNL     1      44.667 -20.820   4.349  1.00  0.00     0.011 A 
HETATM   35 BR   UNL     1      45.131 -22.527   5.014  1.00  0.00    -0.051 Br
HETATM   36  C   UNL     1      44.593 -19.735   5.223  1.00  0.00     0.020 A 
HETATM   37  C   UNL     1      44.263 -18.469   4.734  1.00  0.00     0.019 A 
ENDBRANCH  29  31
ENDBRANCH  28  29
ENDBRANCH   2  28
TORSDOF 6
ENDMDL
MODEL 5
REMARK VINA RESULT:      -7.9      5.319      8.226
REMARK  6 active torsions:
REMARK  status: ('A' for Active; 'I' for Inactive)
REMARK    1  A    between atoms: C_2  and  O_3 
REMARK    2  A    between atoms: O_3  and  C_4 
REMARK    3  A    between atoms: C_5  and  O_6 
REMARK    4  A    between atoms: O_6  and  C_7 
REMARK    5  A    between atoms: C_7  and  C_8 
REMARK    6  A    between atoms: C_18  and  C_19 
ROOT
HETATM    1  C   UNL     1      42.880 -15.914   3.362  1.00  0.00     0.103 A 
HETATM    2  C   UNL     1      42.862 -15.620   4.726  1.00  0.00     0.112 A 
HETATM    3  C   UNL     1      41.826 -14.883   5.292  1.00  0.00     0.041 A 
HETATM    4  C   UNL     1      40.728 -14.536   4.506  1.00  0.00     0.014 A 
HETATM    5  C   UNL     1      40.654 -14.927   3.151  1.00  0.00    -0.013 A 
HETATM    6  C   UNL     1      41.769 -15.579   2.584  1.00  0.00     0.050 A 
ENDROOT
BRANCH   5   7
HETATM    7  C   UNL     1      39.352 -14.698   2.383  1.00  0.00     0.219 C 
HETATM    8  N   UNL     1      38.942 -13.315   2.298  1.00  0.00    -0.332 N 
HETATM    9  C   UNL     1      39.487 -12.434   1.396  1.00  0.00     0.256 C 
HETATM   10  H   UNL     1      38.500 -12.895   3.101  1.00  0.00     0.165 HD
HETATM   11  O   UNL     1      39.383 -11.221   1.533  1.00  0.00    -0.267 OA
HETATM   12  C   UNL     1      40.211 -13.046   0.295  1.00  0.00     0.073 A 
HETATM   13  C   UNL     1      40.148 -14.412   0.151  1.00  0.00     0.088 A 
HETATM   14  C   UNL     1      41.045 -12.448  -0.699  1.00  0.00    -0.023 A 
HETATM   15  S   UNL     1      41.021 -14.975  -1.192  1.00  0.00    -0.074 SA
HETATM   16  N   UNL     1      39.478 -15.205   1.021  1.00  0.00    -0.358 N 
HETATM   17  C   UNL     1      41.555 -13.401  -1.562  1.00  0.00     0.018 A 
HETATM   18  C   UNL     1      42.507 -13.132  -2.673  1.00  0.00     0.281 C 
HETATM   19  N   UNL     1      42.571 -11.643  -3.003  1.00  0.00    -0.070 N 
HETATM   20  C   UNL     1      42.620 -10.789  -1.737  1.00  0.00     0.239 C 
HETATM   21  H   UNL     1      43.468 -11.501  -3.485  1.00  0.00     0.279 HD
HETATM   22  C   UNL     1      41.501 -11.220  -3.967  1.00  0.00     0.270 C 
HETATM   23  C   UNL     1      41.380 -10.994  -0.847  1.00  0.00     0.068 C 
HETATM   24  H   UNL     1      39.653 -16.204   0.967  1.00  0.00     0.162 HD
ENDBRANCH   5   7
BRANCH   1  25
HETATM   25  O   UNL     1      43.966 -16.596   2.879  1.00  0.00    -0.349 OA
BRANCH  25  26
HETATM   26  C   UNL     1      43.822 -17.077   1.540  1.00  0.00     0.171 C 
HETATM   27  C   UNL     1      43.584 -18.575   1.602  1.00  0.00     0.034 C 
ENDBRANCH  25  26
ENDBRANCH   1  25
BRANCH   2  28
HETATM   28  O   UNL     1      43.922 -16.062   5.520  1.00  0.00    -0.272 OA
BRANCH  28  29
HETATM   29  C   UNL     1      43.473 -16.896   6.524  1.00  0.00     0.298 C 
HETATM   30  O   UNL     1      42.920 -16.593   7.573  1.00  0.00    -0.259 OA
BRANCH  29  31
HETATM   31  C   UNL     1      43.795 -18.297   6.171  1.00  0.00     0.040 A 
HETATM   32  C   UNL     1      44.693 -18.534   5.122  1.00  0.00     0.019 A 
HETATM   33  C   UNL     1      45.066 -19.842   4.806  1.00  0.00     0.020 A 
HETATM   34  C   UNL     1      44.553 -20.905   5.549  1.00  0.00     0.011 A 
HETATM   35 BR   UNL     1      45.082 -22.673   5.140  1.00  0.00    -0.051 Br
HETATM   36  C   UNL     1      43.665 -20.675   6.601  1.00  0.00     0.020 A 
HETATM   37  C   UNL     1      43.282 -19.369   6.913  1.00  0.00     0.019 A 
ENDBRANCH  29  31
ENDBRANCH  28  29
ENDBRANCH   2  28
TORSDOF 6
ENDMDL
MODEL 6
REMARK VINA RESULT:      -7.8      4.732      7.892
REMARK  6 active torsions:
REMARK  status: ('A' for Active; 'I' for Inactive)
REMARK    1  A    between atoms: C_2  and  O_3 
REMARK    2  A    between atoms: O_3  and  C_4 
REMARK    3  A    between atoms: C_5  and  O_6 
REMARK    4  A    between atoms: O_6  and  C_7 
REMARK    5  A    between atoms: C_7  and  C_8 
REMARK    6  A    between atoms: C_18  and  C_19 
ROOT
HETATM    1  C   UNL     1      41.110 -15.446   3.878  1.00  0.00     0.103 A 
HETATM    2  C   UNL     1      41.879 -15.484   5.041  1.00  0.00     0.112 A 
HETATM    3  C   UNL     1      42.353 -14.316   5.632  1.00  0.00     0.041 A 
HETATM    4  C   UNL     1      41.951 -13.082   5.119  1.00  0.00     0.014 A 
HETATM    5  C   UNL     1      41.072 -13.006   4.018  1.00  0.00    -0.013 A 
HETATM    6  C   UNL     1      40.698 -14.208   3.380  1.00  0.00     0.050 A 
ENDROOT
BRANCH   5   7
HETATM    7  C   UNL     1      40.504 -11.645   3.615  1.00  0.00     0.219 C 
HETATM    8  N   UNL     1      41.308 -10.921   2.658  1.00  0.00    -0.332 N 
HETATM    9  C   UNL     1      41.285 -11.194   1.311  1.00  0.00     0.256 C 
HETATM   10  H   UNL     1      42.130 -10.440   2.988  1.00  0.00     0.165 HD
HETATM   11  O   UNL     1      42.177 -10.819   0.560  1.00  0.00    -0.267 OA
HETATM   12  C   UNL     1      40.147 -11.977   0.860  1.00  0.00     0.073 A 
HETATM   13  C   UNL     1      39.129 -12.225   1.751  1.00  0.00     0.088 A 
HETATM   14  C   UNL     1      39.901 -12.591  -0.407  1.00  0.00    -0.023 A 
HETATM   15  S   UNL     1      37.862 -13.127   1.072  1.00  0.00    -0.074 SA
HETATM   16  N   UNL     1      39.173 -11.808   3.039  1.00  0.00    -0.358 N 
HETATM   17  C   UNL     1      38.689 -13.259  -0.411  1.00  0.00     0.018 A 
HETATM   18  C   UNL     1      38.153 -14.057  -1.546  1.00  0.00     0.281 C 
HETATM   19  N   UNL     1      38.901 -13.755  -2.842  1.00  0.00    -0.070 N 
HETATM   20  C   UNL     1      40.409 -13.676  -2.614  1.00  0.00     0.239 C 
HETATM   21  H   UNL     1      38.740 -14.565  -3.453  1.00  0.00     0.279 HD
HETATM   22  C   UNL     1      38.343 -12.563  -3.563  1.00  0.00     0.270 C 
HETATM   23  C   UNL     1      40.791 -12.570  -1.613  1.00  0.00     0.068 C 
HETATM   24  H   UNL     1      38.492 -12.207   3.679  1.00  0.00     0.162 HD
ENDBRANCH   5   7
BRANCH   1  25
HETATM   25  O   UNL     1      40.733 -16.646   3.333  1.00  0.00    -0.349 OA
BRANCH  25  26
HETATM   26  C   UNL     1      40.175 -16.556   2.019  1.00  0.00     0.171 C 
HETATM   27  C   UNL     1      40.931 -17.518   1.121  1.00  0.00     0.034 C 
ENDBRANCH  25  26
ENDBRANCH   1  25
BRANCH   2  28
HETATM   28  O   UNL     1      42.188 -16.725   5.600  1.00  0.00    -0.272 OA
BRANCH  28  29
HETATM   29  C   UNL     1      43.552 -16.942   5.598  1.00  0.00     0.298 C 
HETATM   30  O   UNL     1      44.421 -16.312   6.184  1.00  0.00    -0.259 OA
BRANCH  29  31
HETATM   31  C   UNL     1      43.859 -18.089   4.714  1.00  0.00     0.040 A 
HETATM   32  C   UNL     1      44.126 -19.333   5.298  1.00  0.00     0.019 A 
HETATM   33  C   UNL     1      44.358 -20.449   4.490  1.00  0.00     0.020 A 
HETATM   34  C   UNL     1      44.304 -20.318   3.102  1.00  0.00     0.011 A 
HETATM   35 BR   UNL     1      44.586 -21.834   2.009  1.00  0.00    -0.051 Br
HETATM   36  C   UNL     1      44.030 -19.083   2.514  1.00  0.00     0.020 A 
HETATM   37  C   UNL     1      43.808 -17.963   3.319  1.00  0.00     0.019 A 
ENDBRANCH  29  31
ENDBRANCH  28  29
ENDBRANCH   2  28
TORSDOF 6
ENDMDL
MODEL 7
REMARK VINA RESULT:      -7.6      6.014      9.293
REMARK  6 active torsions:
REMARK  status: ('A' for Active; 'I' for Inactive)
REMARK    1  A    between atoms: C_2  and  O_3 
REMARK    2  A    between atoms: O_3  and  C_4 
REMARK    3  A    between atoms: C_5  and  O_6 
REMARK    4  A    between atoms: O_6  and  C_7 
REMARK    5  A    between atoms: C_7  and  C_8 
REMARK    6  A    between atoms: C_18  and  C_19 
ROOT
HETATM    1  C   UNL     1      42.807 -14.739   2.544  1.00  0.00     0.103 A 
HETATM    2  C   UNL     1      42.690 -13.594   3.332  1.00  0.00     0.112 A 
HETATM    3  C   UNL     1      41.702 -12.645   3.084  1.00  0.00     0.041 A 
HETATM    4  C   UNL     1      40.740 -12.902   2.107  1.00  0.00     0.014 A 
HETATM    5  C   UNL     1      40.755 -14.109   1.375  1.00  0.00    -0.013 A 
HETATM    6  C   UNL     1      41.831 -14.998   1.579  1.00  0.00     0.050 A 
ENDROOT
BRANCH   5   7
HETATM    7  C   UNL     1      39.575 -14.435   0.459  1.00  0.00     0.219 C 
HETATM    8  N   UNL     1      38.630 -13.356   0.293  1.00  0.00    -0.332 N 
HETATM    9  C   UNL     1      38.847 -12.303  -0.562  1.00  0.00     0.256 C 
HETATM   10  H   UNL     1      37.963 -13.184   1.030  1.00  0.00     0.165 HD
HETATM   11  O   UNL     1      38.223 -11.253  -0.469  1.00  0.00    -0.267 OA
HETATM   12  C   UNL     1      39.883 -12.521  -1.558  1.00  0.00     0.073 A 
HETATM   13  C   UNL     1      40.423 -13.781  -1.675  1.00  0.00     0.088 A 
HETATM   14  C   UNL     1      40.491 -11.600  -2.466  1.00  0.00    -0.023 A 
HETATM   15  S   UNL     1      41.598 -13.885  -2.895  1.00  0.00    -0.074 SA
HETATM   16  N   UNL     1      40.059 -14.805  -0.867  1.00  0.00    -0.358 N 
HETATM   17  C   UNL     1      41.452 -12.224  -3.241  1.00  0.00     0.018 A 
HETATM   18  C   UNL     1      42.319 -11.546  -4.243  1.00  0.00     0.281 C 
HETATM   19  N   UNL     1      41.781 -10.163  -4.600  1.00  0.00    -0.070 N 
HETATM   20  C   UNL     1      41.319  -9.403  -3.359  1.00  0.00     0.239 C 
HETATM   21  H   UNL     1      42.581  -9.642  -4.981  1.00  0.00     0.279 HD
HETATM   22  C   UNL     1      40.750 -10.210  -5.690  1.00  0.00     0.270 C 
HETATM   23  C   UNL     1      40.191 -10.138  -2.611  1.00  0.00     0.068 C 
HETATM   24  H   UNL     1      40.647 -15.634  -0.877  1.00  0.00     0.162 HD
ENDBRANCH   5   7
BRANCH   1  25
HETATM   25  O   UNL     1      43.843 -15.592   2.823  1.00  0.00    -0.349 OA
BRANCH  25  26
HETATM   26  C   UNL     1      43.787 -16.845   2.134  1.00  0.00     0.171 C 
HETATM   27  C   UNL     1      43.789 -17.952   3.172  1.00  0.00     0.034 C 
ENDBRANCH  25  26
ENDBRANCH   1  25
BRANCH   2  28
HETATM   28  O   UNL     1      43.600 -13.400   4.372  1.00  0.00    -0.272 OA
BRANCH  28  29
HETATM   29  C   UNL     1      42.987 -13.543   5.600  1.00  0.00     0.298 C 
HETATM   30  O   UNL     1      42.398 -12.695   6.257  1.00  0.00    -0.259 OA
BRANCH  29  31
HETATM   31  C   UNL     1      43.169 -14.933   6.075  1.00  0.00     0.040 A 
HETATM   32  C   UNL     1      42.069 -15.798   6.050  1.00  0.00     0.019 A 
HETATM   33  C   UNL     1      42.223 -17.134   6.432  1.00  0.00     0.020 A 
HETATM   34  C   UNL     1      43.479 -17.600   6.820  1.00  0.00     0.011 A 
HETATM   35 BR   UNL     1      43.694 -19.414   7.306  1.00  0.00    -0.051 Br
HETATM   36  C   UNL     1      44.581 -16.744   6.838  1.00  0.00     0.020 A 
HETATM   37  C   UNL     1      44.428 -15.406   6.467  1.00  0.00     0.019 A 
ENDBRANCH  29  31
ENDBRANCH  28  29
ENDBRANCH   2  28
TORSDOF 6
ENDMDL
MODEL 8
REMARK VINA RESULT:      -7.6      5.789      8.586
REMARK  6 active torsions:
REMARK  status: ('A' for Active; 'I' for Inactive)
REMARK    1  A    between atoms: C_2  and  O_3 
REMARK    2  A    between atoms: O_3  and  C_4 
REMARK    3  A    between atoms: C_5  and  O_6 
REMARK    4  A    between atoms: O_6  and  C_7 
REMARK    5  A    between atoms: C_7  and  C_8 
REMARK    6  A    between atoms: C_18  and  C_19 
ROOT
HETATM    1  C   UNL     1      41.938 -13.297   2.532  1.00  0.00     0.103 A 
HETATM    2  C   UNL     1      42.088 -12.835   1.224  1.00  0.00     0.112 A 
HETATM    3  C   UNL     1      42.000 -13.701   0.137  1.00  0.00     0.041 A 
HETATM    4  C   UNL     1      41.636 -15.030   0.353  1.00  0.00     0.014 A 
HETATM    5  C   UNL     1      41.354 -15.502   1.653  1.00  0.00    -0.013 A 
HETATM    6  C   UNL     1      41.558 -14.625   2.739  1.00  0.00     0.050 A 
ENDROOT
BRANCH   5   7
HETATM    7  C   UNL     1      40.771 -16.905   1.822  1.00  0.00     0.219 C 
HETATM    8  N   UNL     1      41.713 -17.976   1.595  1.00  0.00    -0.332 N 
HETATM    9  C   UNL     1      42.627 -18.374   2.541  1.00  0.00     0.256 C 
HETATM   10  H   UNL     1      41.939 -18.224   0.644  1.00  0.00     0.165 HD
HETATM   11  O   UNL     1      43.614 -19.038   2.249  1.00  0.00    -0.267 OA
HETATM   12  C   UNL     1      42.348 -17.925   3.895  1.00  0.00     0.073 A 
HETATM   13  C   UNL     1      41.144 -17.310   4.145  1.00  0.00     0.088 A 
HETATM   14  C   UNL     1      43.162 -17.990   5.068  1.00  0.00    -0.023 A 
HETATM   15  S   UNL     1      40.954 -16.868   5.773  1.00  0.00    -0.074 SA
HETATM   16  N   UNL     1      40.236 -17.067   3.170  1.00  0.00    -0.358 N 
HETATM   17  C   UNL     1      42.514 -17.433   6.156  1.00  0.00     0.018 A 
HETATM   18  C   UNL     1      43.097 -17.280   7.517  1.00  0.00     0.281 C 
HETATM   19  N   UNL     1      44.345 -18.141   7.687  1.00  0.00    -0.070 N 
HETATM   20  C   UNL     1      45.251 -18.067   6.460  1.00  0.00     0.239 C 
HETATM   21  H   UNL     1      44.870 -17.722   8.464  1.00  0.00     0.279 HD
HETATM   22  C   UNL     1      44.022 -19.546   8.106  1.00  0.00     0.270 C 
HETATM   23  C   UNL     1      44.545 -18.558   5.183  1.00  0.00     0.068 C 
HETATM   24  H   UNL     1      39.477 -16.429   3.392  1.00  0.00     0.162 HD
ENDBRANCH   5   7
BRANCH   1  25
HETATM   25  O   UNL     1      42.097 -12.387   3.543  1.00  0.00    -0.349 OA
BRANCH  25  26
HETATM   26  C   UNL     1      40.878 -11.958   4.157  1.00  0.00     0.171 C 
HETATM   27  C   UNL     1      41.088 -10.549   4.683  1.00  0.00     0.034 C 
ENDBRANCH  25  26
ENDBRANCH   1  25
BRANCH   2  28
HETATM   28  O   UNL     1      42.353 -11.480   1.018  1.00  0.00    -0.272 OA
BRANCH  28  29
HETATM   29  C   UNL     1      41.240 -10.827   0.528  1.00  0.00     0.298 C 
HETATM   30  O   UNL     1      40.186 -10.588   1.101  1.00  0.00    -0.259 OA
BRANCH  29  31
HETATM   31  C   UNL     1      41.479 -10.455  -0.885  1.00  0.00     0.040 A 
HETATM   32  C   UNL     1      42.762 -10.038  -1.260  1.00  0.00     0.019 A 
HETATM   33  C   UNL     1      43.036  -9.741  -2.597  1.00  0.00     0.020 A 
HETATM   34  C   UNL     1      42.031  -9.878  -3.554  1.00  0.00     0.011 A 
HETATM   35 BR   UNL     1      42.410  -9.506  -5.368  1.00  0.00    -0.051 Br
HETATM   36  C   UNL     1      40.753 -10.301  -3.188  1.00  0.00     0.020 A 
HETATM   37  C   UNL     1      40.472 -10.589  -1.851  1.00  0.00     0.019 A 
ENDBRANCH  29  31
ENDBRANCH  28  29
ENDBRANCH   2  28
TORSDOF 6
ENDMDL
MODEL 9
REMARK VINA RESULT:      -7.5      6.784     10.254
REMARK  6 active torsions:
REMARK  status: ('A' for Active; 'I' for Inactive)
REMARK    1  A    between atoms: C_2  and  O_3 
REMARK    2  A    between atoms: O_3  and  C_4 
REMARK    3  A    between atoms: C_5  and  O_6 
REMARK    4  A    between atoms: O_6  and  C_7 
REMARK    5  A    between atoms: C_7  and  C_8 
REMARK    6  A    between atoms: C_18  and  C_19 
ROOT
HETATM    1  C   UNL     1      41.976 -13.819   0.616  1.00  0.00     0.103 A 
HETATM    2  C   UNL     1      41.922 -14.940   1.444  1.00  0.00     0.112 A 
HETATM    3  C   UNL     1      41.459 -16.165   0.972  1.00  0.00     0.041 A 
HETATM    4  C   UNL     1      41.157 -16.303  -0.383  1.00  0.00     0.014 A 
HETATM    5  C   UNL     1      41.320 -15.221  -1.275  1.00  0.00    -0.013 A 
HETATM    6  C   UNL     1      41.688 -13.968  -0.743  1.00  0.00     0.050 A 
ENDROOT
BRANCH   5   7
HETATM    7  C   UNL     1      41.167 -15.469  -2.776  1.00  0.00     0.219 C 
HETATM    8  N   UNL     1      39.848 -15.898  -3.181  1.00  0.00    -0.332 N 
HETATM    9  C   UNL     1      38.800 -15.024  -3.342  1.00  0.00     0.256 C 
HETATM   10  H   UNL     1      39.590 -16.861  -3.033  1.00  0.00     0.165 HD
HETATM   11  O   UNL     1      37.637 -15.406  -3.365  1.00  0.00    -0.267 OA
HETATM   12  C   UNL     1      39.175 -13.625  -3.452  1.00  0.00     0.073 A 
HETATM   13  C   UNL     1      40.510 -13.312  -3.560  1.00  0.00     0.088 A 
HETATM   14  C   UNL     1      38.357 -12.453  -3.439  1.00  0.00    -0.023 A 
HETATM   15  S   UNL     1      40.788 -11.644  -3.707  1.00  0.00    -0.074 SA
HETATM   16  N   UNL     1      41.483 -14.254  -3.519  1.00  0.00    -0.358 N 
HETATM   17  C   UNL     1      39.125 -11.308  -3.560  1.00  0.00     0.018 A 
HETATM   18  C   UNL     1      38.601  -9.915  -3.520  1.00  0.00     0.281 C 
HETATM   19  N   UNL     1      37.087  -9.884  -3.710  1.00  0.00    -0.070 N 
HETATM   20  C   UNL     1      36.396 -10.979  -2.900  1.00  0.00     0.239 C 
HETATM   21  H   UNL     1      36.774  -8.988  -3.317  1.00  0.00     0.279 HD
HETATM   22  C   UNL     1      36.690  -9.873  -5.158  1.00  0.00     0.270 C 
HETATM   23  C   UNL     1      36.865 -12.389  -3.304  1.00  0.00     0.068 C 
HETATM   24  H   UNL     1      42.437 -13.929  -3.394  1.00  0.00     0.162 HD
ENDBRANCH   5   7
BRANCH   1  25
HETATM   25  O   UNL     1      42.391 -12.640   1.178  1.00  0.00    -0.349 OA
BRANCH  25  26
HETATM   26  C   UNL     1      41.379 -11.633   1.270  1.00  0.00     0.171 C 
HETATM   27  C   UNL     1      40.959 -11.521   2.724  1.00  0.00     0.034 C 
ENDBRANCH  25  26
ENDBRANCH   1  25
BRANCH   2  28
HETATM   28  O   UNL     1      42.324 -14.811   2.775  1.00  0.00    -0.272 OA
BRANCH  28  29
HETATM   29  C   UNL     1      41.325 -15.220   3.635  1.00  0.00     0.298 C 
HETATM   30  O   UNL     1      40.154 -14.868   3.660  1.00  0.00    -0.259 OA
BRANCH  29  31
HETATM   31  C   UNL     1      41.890 -16.176   4.614  1.00  0.00     0.040 A 
HETATM   32  C   UNL     1      42.955 -16.992   4.215  1.00  0.00     0.019 A 
HETATM   33  C   UNL     1      43.551 -17.860   5.133  1.00  0.00     0.020 A 
HETATM   34  C   UNL     1      43.090 -17.895   6.449  1.00  0.00     0.011 A 
HETATM   35 BR   UNL     1      43.917 -19.046   7.700  1.00  0.00    -0.051 Br
HETATM   36  C   UNL     1      42.034 -17.078   6.855  1.00  0.00     0.020 A 
HETATM   37  C   UNL     1      41.429 -16.217   5.937  1.00  0.00     0.019 A 
ENDBRANCH  29  31
ENDBRANCH  28  29
ENDBRANCH   2  28
TORSDOF 6
ENDMDL
MODEL 10
REMARK VINA RESULT:      -7.4      5.182      7.839
REMARK  6 active torsions:
REMARK  status: ('A' for Active; 'I' for Inactive)
REMARK    1  A    between atoms: C_2  and  O_3 
REMARK    2  A    between atoms: O_3  and  C_4 
REMARK    3  A    between atoms: C_5  and  O_6 
REMARK    4  A    between atoms: O_6  and  C_7 
REMARK    5  A    between atoms: C_7  and  C_8 
REMARK    6  A    between atoms: C_18  and  C_19 
ROOT
HETATM    1  C   UNL     1      42.636 -14.292   2.269  1.00  0.00     0.103 A 
HETATM    2  C   UNL     1      42.751 -15.667   2.473  1.00  0.00     0.112 A 
HETATM    3  C   UNL     1      42.223 -16.579   1.562  1.00  0.00     0.041 A 
HETATM    4  C   UNL     1      41.677 -16.109   0.367  1.00  0.00     0.014 A 
HETATM    5  C   UNL     1      41.659 -14.729   0.072  1.00  0.00    -0.013 A 
HETATM    6  C   UNL     1      42.104 -13.830   1.063  1.00  0.00     0.050 A 
ENDROOT
BRANCH   5   7
HETATM    7  C   UNL     1      41.234 -14.276  -1.325  1.00  0.00     0.219 C 
HETATM    8  N   UNL     1      39.864 -14.585  -1.664  1.00  0.00    -0.332 N 
HETATM    9  C   UNL     1      38.803 -13.830  -1.228  1.00  0.00     0.256 C 
HETATM   10  H   UNL     1      39.640 -15.528  -1.942  1.00  0.00     0.165 HD
HETATM   11  O   UNL     1      37.655 -14.260  -1.239  1.00  0.00    -0.267 OA
HETATM   12  C   UNL     1      39.147 -12.508  -0.734  1.00  0.00     0.073 A 
HETATM   13  C   UNL     1      40.439 -12.065  -0.897  1.00  0.00     0.088 A 
HETATM   14  C   UNL     1      38.343 -11.549  -0.045  1.00  0.00    -0.023 A 
HETATM   15  S   UNL     1      40.681 -10.497  -0.294  1.00  0.00    -0.074 SA
HETATM   16  N   UNL     1      41.405 -12.833  -1.457  1.00  0.00    -0.358 N 
HETATM   17  C   UNL     1      39.073 -10.413   0.259  1.00  0.00     0.018 A 
HETATM   18  C   UNL     1      38.562  -9.244   1.026  1.00  0.00     0.281 C 
HETATM   19  N   UNL     1      37.039  -9.262   1.119  1.00  0.00    -0.070 N 
HETATM   20  C   UNL     1      36.511 -10.662   1.426  1.00  0.00     0.239 C 
HETATM   21  H   UNL     1      36.801  -8.676   1.929  1.00  0.00     0.279 HD
HETATM   22  C   UNL     1      36.382  -8.625  -0.071  1.00  0.00     0.270 C 
HETATM   23  C   UNL     1      36.901 -11.684   0.343  1.00  0.00     0.068 C 
HETATM   24  H   UNL     1      42.366 -12.519  -1.350  1.00  0.00     0.162 HD
ENDBRANCH   5   7
BRANCH   1  25
HETATM   25  O   UNL     1      43.134 -13.468   3.244  1.00  0.00    -0.349 OA
BRANCH  25  26
HETATM   26  C   UNL     1      42.159 -12.632   3.874  1.00  0.00     0.171 C 
HETATM   27  C   UNL     1      41.778 -13.270   5.198  1.00  0.00     0.034 C 
ENDBRANCH  25  26
ENDBRANCH   1  25
BRANCH   2  28
HETATM   28  O   UNL     1      43.390 -16.123   3.627  1.00  0.00    -0.272 OA
BRANCH  28  29
HETATM   29  C   UNL     1      42.582 -16.995   4.329  1.00  0.00     0.298 C 
HETATM   30  O   UNL     1      41.461 -16.797   4.777  1.00  0.00    -0.259 OA
BRANCH  29  31
HETATM   31  C   UNL     1      43.300 -18.276   4.518  1.00  0.00     0.040 A 
HETATM   32  C   UNL     1      43.343 -18.837   5.799  1.00  0.00     0.019 A 
HETATM   33  C   UNL     1      43.958 -20.076   5.999  1.00  0.00     0.020 A 
HETATM   34  C   UNL     1      44.511 -20.754   4.913  1.00  0.00     0.011 A 
HETATM   35 BR   UNL     1      45.315 -22.444   5.177  1.00  0.00    -0.051 Br
HETATM   36  C   UNL     1      44.464 -20.204   3.631  1.00  0.00     0.020 A 
HETATM   37  C   UNL     1      43.859 -18.961   3.430  1.00  0.00     0.019 A 
ENDBRANCH  29  31
ENDBRANCH  28  29
ENDBRANCH   2  28
TORSDOF 6
ENDMDL
