MODEL 1
REMARK VINA RESULT:      -9.8      0.000      0.000
REMARK  5 active torsions:
REMARK  status: ('A' for Active; 'I' for Inactive)
REMARK    1  A    between atoms: C_5  and  N_6 
REMARK       I    between atoms: N_6  and  C_7 
REMARK       I    between atoms: C_7  and  N_8 
REMARK    2  A    between atoms: N_8  and  C_9 
REMARK    3  A    between atoms: C_11  and  C_12 
REMARK       I    between atoms: C_12  and  N_13 
REMARK    4  A    between atoms: N_13  and  C_14 
REMARK    5  A    between atoms: C_14  and  C_15 
ROOT
HETATM    1  C   UNL     1      44.814 -13.955   7.335  1.00  0.00     0.175 A 
HETATM    2  S   UNL     1      44.398 -14.031   5.693  1.00  0.00    -0.044 SA
HETATM    3  C   UNL     1      43.567 -15.518   5.982  1.00  0.00     0.100 A 
HETATM    4  C   UNL     1      43.719 -15.870   7.320  1.00  0.00     0.056 A 
HETATM    5  C   UNL     1      43.155 -17.045   8.040  1.00  0.00     0.072 C 
HETATM    6  N   UNL     1      44.448 -14.963   8.085  1.00  0.00    -0.228 NA
ENDROOT
BRANCH   1   7
HETATM    7  N   UNL     1      45.471 -12.824   7.716  1.00  0.00    -0.287 N 
HETATM    8  C   UNL     1      45.120 -11.990   8.741  1.00  0.00     0.326 C 
HETATM    9  N   UNL     1      44.032 -12.357   9.487  1.00  0.00    -0.309 N 
HETATM   10  O   UNL     1      45.794 -10.973   8.898  1.00  0.00    -0.247 OA
HETATM   11  H   UNL     1      43.655 -13.275   9.268  1.00  0.00     0.170 HD
HETATM   12  H   UNL     1      46.237 -12.505   7.143  1.00  0.00     0.172 HD
BRANCH   9  13
HETATM   13  C   UNL     1      43.374 -11.629  10.497  1.00  0.00     0.036 A 
HETATM   14  C   UNL     1      43.635 -11.770  11.859  1.00  0.00     0.030 A 
HETATM   15  C   UNL     1      42.962 -10.978  12.797  1.00  0.00     0.009 A 
HETATM   16  C   UNL     1      42.019 -10.030  12.388  1.00  0.00    -0.062 A 
HETATM   17  C   UNL     1      41.295  -9.199  13.405  1.00  0.00     0.048 C 
HETATM   18  C   UNL     1      41.743  -9.899  11.023  1.00  0.00     0.009 A 
HETATM   19  C   UNL     1      42.421 -10.688  10.087  1.00  0.00     0.030 A 
ENDBRANCH   9  13
ENDBRANCH   1   7
BRANCH   3  20
HETATM   20  C   UNL     1      42.824 -16.120   4.887  1.00  0.00     0.260 C 
HETATM   21  N   UNL     1      43.499 -17.075   4.157  1.00  0.00    -0.352 N 
HETATM   22  H   UNL     1      44.501 -17.158   4.237  1.00  0.00     0.163 HD
HETATM   23  O   UNL     1      41.661 -15.826   4.616  1.00  0.00    -0.267 OA
BRANCH  21  24
HETATM   24  C   UNL     1      42.856 -17.857   3.126  1.00  0.00     0.163 C 
BRANCH  24  25
HETATM   25  C   UNL     1      43.457 -19.231   2.991  1.00  0.00    -0.019 A 
HETATM   26  C   UNL     1      44.322 -19.777   3.953  1.00  0.00     0.042 A 
HETATM   27 CL   UNL     1      44.808 -18.879   5.349  1.00  0.00    -0.084 Cl
HETATM   28  C   UNL     1      44.824 -21.074   3.807  1.00  0.00     0.024 A 
HETATM   29  C   UNL     1      44.474 -21.840   2.695  1.00  0.00     0.002 A 
HETATM   30  C   UNL     1      43.632 -21.306   1.724  1.00  0.00     0.001 A 
HETATM   31  C   UNL     1      43.132 -20.010   1.867  1.00  0.00     0.010 A 
ENDBRANCH  24  25
ENDBRANCH  21  24
ENDBRANCH   3  20
TORSDOF 5
ENDMDL
MODEL 2
REMARK VINA RESULT:      -9.6      2.782      3.746
REMARK  5 active torsions:
REMARK  status: ('A' for Active; 'I' for Inactive)
REMARK    1  A    between atoms: C_5  and  N_6 
REMARK       I    between atoms: N_6  and  C_7 
REMARK       I    between atoms: C_7  and  N_8 
REMARK    2  A    between atoms: N_8  and  C_9 
REMARK    3  A    between atoms: C_11  and  C_12 
REMARK       I    between atoms: C_12  and  N_13 
REMARK    4  A    between atoms: N_13  and  C_14 
REMARK    5  A    between atoms: C_14  and  C_15 
ROOT
HETATM    1  C   UNL     1      44.605 -14.422   6.879  1.00  0.00     0.175 A 
HETATM    2  S   UNL     1      43.666 -14.052   5.517  1.00  0.00    -0.044 SA
HETATM    3  C   UNL     1      42.698 -15.452   5.815  1.00  0.00     0.100 A 
HETATM    4  C   UNL     1      43.209 -16.129   6.919  1.00  0.00     0.056 A 
HETATM    5  C   UNL     1      42.692 -17.364   7.570  1.00  0.00     0.072 C 
HETATM    6  N   UNL     1      44.314 -15.528   7.516  1.00  0.00    -0.228 NA
ENDROOT
BRANCH   1   7
HETATM    7  N   UNL     1      45.562 -13.504   7.192  1.00  0.00    -0.287 N 
HETATM    8  C   UNL     1      45.543 -12.646   8.256  1.00  0.00     0.326 C 
HETATM    9  N   UNL     1      44.484 -12.756   9.117  1.00  0.00    -0.309 N 
HETATM   10  O   UNL     1      46.464 -11.834   8.343  1.00  0.00    -0.247 OA
HETATM   11  H   UNL     1      43.867 -13.543   8.935  1.00  0.00     0.170 HD
HETATM   12  H   UNL     1      46.318 -13.366   6.539  1.00  0.00     0.172 HD
BRANCH   9  13
HETATM   13  C   UNL     1      44.142 -11.923  10.199  1.00  0.00     0.036 A 
HETATM   14  C   UNL     1      44.006 -10.538  10.107  1.00  0.00     0.030 A 
HETATM   15  C   UNL     1      43.625  -9.786  11.225  1.00  0.00     0.009 A 
HETATM   16  C   UNL     1      43.371 -10.407  12.452  1.00  0.00    -0.062 A 
HETATM   17  C   UNL     1      42.977  -9.588  13.644  1.00  0.00     0.048 C 
HETATM   18  C   UNL     1      43.523 -11.794  12.550  1.00  0.00     0.009 A 
HETATM   19  C   UNL     1      43.899 -12.544  11.430  1.00  0.00     0.030 A 
ENDBRANCH   9  13
ENDBRANCH   1   7
BRANCH   3  20
HETATM   20  C   UNL     1      41.532 -15.680   4.978  1.00  0.00     0.260 C 
HETATM   21  N   UNL     1      41.747 -16.432   3.842  1.00  0.00    -0.352 N 
HETATM   22  H   UNL     1      42.686 -16.593   3.512  1.00  0.00     0.163 HD
HETATM   23  O   UNL     1      40.411 -15.253   5.247  1.00  0.00    -0.267 OA
BRANCH  21  24
HETATM   24  C   UNL     1      40.668 -16.856   2.980  1.00  0.00     0.163 C 
BRANCH  24  25
HETATM   25  C   UNL     1      40.529 -15.982   1.763  1.00  0.00    -0.019 A 
HETATM   26  C   UNL     1      41.398 -16.071   0.663  1.00  0.00     0.042 A 
HETATM   27 CL   UNL     1      42.737 -17.166   0.653  1.00  0.00    -0.084 Cl
HETATM   28  C   UNL     1      41.206 -15.267  -0.465  1.00  0.00     0.024 A 
HETATM   29  C   UNL     1      40.148 -14.359  -0.506  1.00  0.00     0.002 A 
HETATM   30  C   UNL     1      39.289 -14.246   0.584  1.00  0.00     0.001 A 
HETATM   31  C   UNL     1      39.481 -15.046   1.711  1.00  0.00     0.010 A 
ENDBRANCH  24  25
ENDBRANCH  21  24
ENDBRANCH   3  20
TORSDOF 5
ENDMDL
MODEL 3
REMARK VINA RESULT:      -9.5      1.463      1.912
REMARK  5 active torsions:
REMARK  status: ('A' for Active; 'I' for Inactive)
REMARK    1  A    between atoms: C_5  and  N_6 
REMARK       I    between atoms: N_6  and  C_7 
REMARK       I    between atoms: C_7  and  N_8 
REMARK    2  A    between atoms: N_8  and  C_9 
REMARK    3  A    between atoms: C_11  and  C_12 
REMARK       I    between atoms: C_12  and  N_13 
REMARK    4  A    between atoms: N_13  and  C_14 
REMARK    5  A    between atoms: C_14  and  C_15 
ROOT
HETATM    1  C   UNL     1      44.676 -14.052   6.561  1.00  0.00     0.175 A 
HETATM    2  S   UNL     1      44.766 -15.678   7.031  1.00  0.00    -0.044 SA
HETATM    3  C   UNL     1      43.454 -16.047   5.970  1.00  0.00     0.100 A 
HETATM    4  C   UNL     1      43.011 -14.872   5.370  1.00  0.00     0.056 A 
HETATM    5  C   UNL     1      41.931 -14.696   4.361  1.00  0.00     0.072 C 
HETATM    6  N   UNL     1      43.721 -13.729   5.728  1.00  0.00    -0.228 NA
ENDROOT
BRANCH   1   7
HETATM    7  N   UNL     1      45.639 -13.242   7.084  1.00  0.00    -0.287 N 
HETATM    8  C   UNL     1      45.549 -12.519   8.241  1.00  0.00     0.326 C 
HETATM    9  N   UNL     1      44.398 -12.663   8.968  1.00  0.00    -0.309 N 
HETATM   10  O   UNL     1      46.495 -11.785   8.524  1.00  0.00    -0.247 OA
HETATM   11  H   UNL     1      43.765 -13.381   8.626  1.00  0.00     0.170 HD
HETATM   12  H   UNL     1      46.468 -13.075   6.534  1.00  0.00     0.172 HD
BRANCH   9  13
HETATM   13  C   UNL     1      43.983 -11.946  10.106  1.00  0.00     0.036 A 
HETATM   14  C   UNL     1      43.948 -12.477  11.395  1.00  0.00     0.030 A 
HETATM   15  C   UNL     1      43.558 -11.683  12.480  1.00  0.00     0.009 A 
HETATM   16  C   UNL     1      43.200 -10.345  12.294  1.00  0.00    -0.062 A 
HETATM   17  C   UNL     1      42.771  -9.510  13.464  1.00  0.00     0.048 C 
HETATM   18  C   UNL     1      43.218  -9.815  11.000  1.00  0.00     0.009 A 
HETATM   19  C   UNL     1      43.612 -10.609   9.918  1.00  0.00     0.030 A 
ENDBRANCH   9  13
ENDBRANCH   1   7
BRANCH   3  20
HETATM   20  C   UNL     1      43.063 -17.438   5.810  1.00  0.00     0.260 C 
HETATM   21  N   UNL     1      44.093 -18.333   5.613  1.00  0.00    -0.352 N 
HETATM   22  H   UNL     1      45.011 -18.000   5.360  1.00  0.00     0.163 HD
HETATM   23  O   UNL     1      41.896 -17.823   5.857  1.00  0.00    -0.267 OA
BRANCH  21  24
HETATM   24  C   UNL     1      43.879 -19.761   5.570  1.00  0.00     0.163 C 
BRANCH  24  25
HETATM   25  C   UNL     1      43.995 -20.316   4.176  1.00  0.00    -0.019 A 
HETATM   26  C   UNL     1      44.563 -21.572   3.905  1.00  0.00     0.042 A 
HETATM   27 CL   UNL     1      45.227 -22.557   5.163  1.00  0.00    -0.084 Cl
HETATM   28  C   UNL     1      44.613 -22.066   2.598  1.00  0.00     0.024 A 
HETATM   29  C   UNL     1      44.102 -21.309   1.543  1.00  0.00     0.002 A 
HETATM   30  C   UNL     1      43.552 -20.055   1.793  1.00  0.00     0.001 A 
HETATM   31  C   UNL     1      43.505 -19.559   3.097  1.00  0.00     0.010 A 
ENDBRANCH  24  25
ENDBRANCH  21  24
ENDBRANCH   3  20
TORSDOF 5
ENDMDL
MODEL 4
REMARK VINA RESULT:      -9.4      2.939      3.568
REMARK  5 active torsions:
REMARK  status: ('A' for Active; 'I' for Inactive)
REMARK    1  A    between atoms: C_5  and  N_6 
REMARK       I    between atoms: N_6  and  C_7 
REMARK       I    between atoms: C_7  and  N_8 
REMARK    2  A    between atoms: N_8  and  C_9 
REMARK    3  A    between atoms: C_11  and  C_12 
REMARK       I    between atoms: C_12  and  N_13 
REMARK    4  A    between atoms: N_13  and  C_14 
REMARK    5  A    between atoms: C_14  and  C_15 
ROOT
HETATM    1  C   UNL     1      41.540 -14.077   5.648  1.00  0.00     0.175 A 
HETATM    2  S   UNL     1      41.463 -15.766   5.534  1.00  0.00    -0.044 SA
HETATM    3  C   UNL     1      43.098 -15.868   6.084  1.00  0.00     0.100 A 
HETATM    4  C   UNL     1      43.596 -14.581   6.265  1.00  0.00     0.056 A 
HETATM    5  C   UNL     1      44.938 -14.168   6.759  1.00  0.00     0.072 C 
HETATM    6  N   UNL     1      42.688 -13.559   6.002  1.00  0.00    -0.228 NA
ENDROOT
BRANCH   1   7
HETATM    7  N   UNL     1      40.374 -13.423   5.385  1.00  0.00    -0.287 N 
HETATM    8  C   UNL     1      39.867 -12.358   6.077  1.00  0.00     0.326 C 
HETATM    9  N   UNL     1      40.633 -11.872   7.103  1.00  0.00    -0.309 N 
HETATM   10  O   UNL     1      38.762 -11.937   5.737  1.00  0.00    -0.247 OA
HETATM   11  H   UNL     1      41.557 -12.287   7.179  1.00  0.00     0.170 HD
HETATM   12  H   UNL     1      39.768 -13.803   4.673  1.00  0.00     0.172 HD
BRANCH   9  13
HETATM   13  C   UNL     1      40.302 -10.890   8.056  1.00  0.00     0.036 A 
HETATM   14  C   UNL     1      39.188 -10.957   8.893  1.00  0.00     0.030 A 
HETATM   15  C   UNL     1      38.952  -9.955   9.842  1.00  0.00     0.009 A 
HETATM   16  C   UNL     1      39.826  -8.872   9.971  1.00  0.00    -0.062 A 
HETATM   17  C   UNL     1      39.553  -7.799  10.982  1.00  0.00     0.048 C 
HETATM   18  C   UNL     1      40.934  -8.794   9.121  1.00  0.00     0.009 A 
HETATM   19  C   UNL     1      41.171  -9.799   8.177  1.00  0.00     0.030 A 
ENDBRANCH   9  13
ENDBRANCH   1   7
BRANCH   3  20
HETATM   20  C   UNL     1      43.666 -17.184   6.328  1.00  0.00     0.260 C 
HETATM   21  N   UNL     1      43.926 -17.942   5.206  1.00  0.00    -0.352 N 
HETATM   22  H   UNL     1      43.522 -17.686   4.318  1.00  0.00     0.163 HD
HETATM   23  O   UNL     1      43.923 -17.614   7.451  1.00  0.00    -0.267 OA
BRANCH  21  24
HETATM   24  C   UNL     1      44.611 -19.212   5.273  1.00  0.00     0.163 C 
BRANCH  24  25
HETATM   25  C   UNL     1      44.383 -20.052   4.044  1.00  0.00    -0.019 A 
HETATM   26  C   UNL     1      44.650 -21.430   4.008  1.00  0.00     0.042 A 
HETATM   27 CL   UNL     1      45.319 -22.259   5.371  1.00  0.00    -0.084 Cl
HETATM   28  C   UNL     1      44.384 -22.179   2.858  1.00  0.00     0.024 A 
HETATM   29  C   UNL     1      43.853 -21.560   1.726  1.00  0.00     0.002 A 
HETATM   30  C   UNL     1      43.600 -20.191   1.740  1.00  0.00     0.001 A 
HETATM   31  C   UNL     1      43.869 -19.442   2.887  1.00  0.00     0.010 A 
ENDBRANCH  24  25
ENDBRANCH  21  24
ENDBRANCH   3  20
TORSDOF 5
ENDMDL
MODEL 5
REMARK VINA RESULT:      -9.4      4.851      8.034
REMARK  5 active torsions:
REMARK  status: ('A' for Active; 'I' for Inactive)
REMARK    1  A    between atoms: C_5  and  N_6 
REMARK       I    between atoms: N_6  and  C_7 
REMARK       I    between atoms: C_7  and  N_8 
REMARK    2  A    between atoms: N_8  and  C_9 
REMARK    3  A    between atoms: C_11  and  C_12 
REMARK       I    between atoms: C_12  and  N_13 
REMARK    4  A    between atoms: N_13  and  C_14 
REMARK    5  A    between atoms: C_14  and  C_15 
ROOT
HETATM    1  C   UNL     1      42.164 -13.613   3.954  1.00  0.00     0.175 A 
HETATM    2  S   UNL     1      43.647 -14.424   4.076  1.00  0.00    -0.044 SA
HETATM    3  C   UNL     1      42.922 -15.568   5.148  1.00  0.00     0.100 A 
HETATM    4  C   UNL     1      41.597 -15.205   5.371  1.00  0.00     0.056 A 
HETATM    5  C   UNL     1      40.569 -15.903   6.191  1.00  0.00     0.072 C 
HETATM    6  N   UNL     1      41.177 -14.070   4.681  1.00  0.00    -0.228 NA
ENDROOT
BRANCH   1   7
HETATM    7  N   UNL     1      42.142 -12.571   3.076  1.00  0.00    -0.287 N 
HETATM    8  C   UNL     1      41.633 -12.591   1.807  1.00  0.00     0.326 C 
HETATM    9  N   UNL     1      41.042 -13.757   1.400  1.00  0.00    -0.309 N 
HETATM   10  O   UNL     1      41.762 -11.572   1.130  1.00  0.00    -0.247 OA
HETATM   11  H   UNL     1      40.946 -14.463   2.125  1.00  0.00     0.170 HD
HETATM   12  H   UNL     1      42.625 -11.724   3.334  1.00  0.00     0.172 HD
BRANCH   9  13
HETATM   13  C   UNL     1      40.567 -14.100   0.120  1.00  0.00     0.036 A 
HETATM   14  C   UNL     1      39.422 -13.555  -0.461  1.00  0.00     0.030 A 
HETATM   15  C   UNL     1      39.040 -13.923  -1.757  1.00  0.00     0.009 A 
HETATM   16  C   UNL     1      39.796 -14.840  -2.493  1.00  0.00    -0.062 A 
HETATM   17  C   UNL     1      39.366 -15.235  -3.874  1.00  0.00     0.048 C 
HETATM   18  C   UNL     1      40.934 -15.401  -1.905  1.00  0.00     0.009 A 
HETATM   19  C   UNL     1      41.318 -15.028  -0.612  1.00  0.00     0.030 A 
ENDBRANCH   9  13
ENDBRANCH   1   7
BRANCH   3  20
HETATM   20  C   UNL     1      43.714 -16.706   5.587  1.00  0.00     0.260 C 
HETATM   21  N   UNL     1      43.550 -17.867   4.862  1.00  0.00    -0.352 N 
HETATM   22  H   UNL     1      42.763 -17.968   4.240  1.00  0.00     0.163 HD
HETATM   23  O   UNL     1      44.499 -16.660   6.533  1.00  0.00    -0.267 OA
BRANCH  21  24
HETATM   24  C   UNL     1      44.361 -19.041   5.090  1.00  0.00     0.163 C 
BRANCH  24  25
HETATM   25  C   UNL     1      44.288 -20.018   3.946  1.00  0.00    -0.019 A 
HETATM   26  C   UNL     1      44.572 -21.385   4.098  1.00  0.00     0.042 A 
HETATM   27 CL   UNL     1      45.083 -22.041   5.615  1.00  0.00    -0.084 Cl
HETATM   28  C   UNL     1      44.451 -22.263   3.017  1.00  0.00     0.024 A 
HETATM   29  C   UNL     1      44.052 -21.786   1.769  1.00  0.00     0.002 A 
HETATM   30  C   UNL     1      43.786 -20.431   1.597  1.00  0.00     0.001 A 
HETATM   31  C   UNL     1      43.909 -19.552   2.675  1.00  0.00     0.010 A 
ENDBRANCH  24  25
ENDBRANCH  21  24
ENDBRANCH   3  20
TORSDOF 5
ENDMDL
MODEL 6
REMARK VINA RESULT:      -9.3      2.180      2.657
REMARK  5 active torsions:
REMARK  status: ('A' for Active; 'I' for Inactive)
REMARK    1  A    between atoms: C_5  and  N_6 
REMARK       I    between atoms: N_6  and  C_7 
REMARK       I    between atoms: C_7  and  N_8 
REMARK    2  A    between atoms: N_8  and  C_9 
REMARK    3  A    between atoms: C_11  and  C_12 
REMARK       I    between atoms: C_12  and  N_13 
REMARK    4  A    between atoms: N_13  and  C_14 
REMARK    5  A    between atoms: C_14  and  C_15 
ROOT
HETATM    1  C   UNL     1      42.129 -12.112   6.568  1.00  0.00     0.175 A 
HETATM    2  S   UNL     1      40.939 -13.030   5.785  1.00  0.00    -0.044 SA
HETATM    3  C   UNL     1      41.997 -14.395   5.795  1.00  0.00     0.100 A 
HETATM    4  C   UNL     1      43.213 -14.020   6.359  1.00  0.00     0.056 A 
HETATM    5  C   UNL     1      44.416 -14.861   6.612  1.00  0.00     0.072 C 
HETATM    6  N   UNL     1      43.276 -12.699   6.792  1.00  0.00    -0.228 NA
ENDROOT
BRANCH   1   7
HETATM    7  N   UNL     1      41.754 -10.849   6.915  1.00  0.00    -0.287 N 
HETATM    8  C   UNL     1      41.830 -10.295   8.163  1.00  0.00     0.326 C 
HETATM    9  N   UNL     1      42.384 -11.070   9.146  1.00  0.00    -0.309 N 
HETATM   10  O   UNL     1      41.380  -9.159   8.305  1.00  0.00    -0.247 OA
HETATM   11  H   UNL     1      42.784 -11.947   8.824  1.00  0.00     0.170 HD
HETATM   12  H   UNL     1      41.288 -10.285   6.220  1.00  0.00     0.172 HD
BRANCH   9  13
HETATM   13  C   UNL     1      42.461 -10.812  10.529  1.00  0.00     0.036 A 
HETATM   14  C   UNL     1      43.575 -10.260  11.161  1.00  0.00     0.030 A 
HETATM   15  C   UNL     1      43.554 -10.000  12.536  1.00  0.00     0.009 A 
HETATM   16  C   UNL     1      42.419 -10.283  13.301  1.00  0.00    -0.062 A 
HETATM   17  C   UNL     1      42.416 -10.012  14.776  1.00  0.00     0.048 C 
HETATM   18  C   UNL     1      41.307 -10.852  12.672  1.00  0.00     0.009 A 
HETATM   19  C   UNL     1      41.328 -11.107  11.296  1.00  0.00     0.030 A 
ENDBRANCH   9  13
ENDBRANCH   1   7
BRANCH   3  20
HETATM   20  C   UNL     1      41.491 -15.668   5.310  1.00  0.00     0.260 C 
HETATM   21  N   UNL     1      42.126 -16.182   4.199  1.00  0.00    -0.352 N 
HETATM   22  H   UNL     1      42.724 -15.594   3.641  1.00  0.00     0.163 HD
HETATM   23  O   UNL     1      40.566 -16.277   5.845  1.00  0.00    -0.267 OA
BRANCH  21  24
HETATM   24  C   UNL     1      41.828 -17.497   3.678  1.00  0.00     0.163 C 
BRANCH  24  25
HETATM   25  C   UNL     1      42.879 -18.510   4.046  1.00  0.00    -0.019 A 
HETATM   26  C   UNL     1      43.684 -19.149   3.089  1.00  0.00     0.042 A 
HETATM   27 CL   UNL     1      43.485 -18.854   1.396  1.00  0.00    -0.084 Cl
HETATM   28  C   UNL     1      44.677 -20.053   3.479  1.00  0.00     0.024 A 
HETATM   29  C   UNL     1      44.874 -20.336   4.831  1.00  0.00     0.002 A 
HETATM   30  C   UNL     1      44.072 -19.725   5.791  1.00  0.00     0.001 A 
HETATM   31  C   UNL     1      43.079 -18.825   5.402  1.00  0.00     0.010 A 
ENDBRANCH  24  25
ENDBRANCH  21  24
ENDBRANCH   3  20
TORSDOF 5
ENDMDL
MODEL 7
REMARK VINA RESULT:      -9.1      6.108      9.478
REMARK  5 active torsions:
REMARK  status: ('A' for Active; 'I' for Inactive)
REMARK    1  A    between atoms: C_5  and  N_6 
REMARK       I    between atoms: N_6  and  C_7 
REMARK       I    between atoms: C_7  and  N_8 
REMARK    2  A    between atoms: N_8  and  C_9 
REMARK    3  A    between atoms: C_11  and  C_12 
REMARK       I    between atoms: C_12  and  N_13 
REMARK    4  A    between atoms: N_13  and  C_14 
REMARK    5  A    between atoms: C_14  and  C_15 
ROOT
HETATM    1  C   UNL     1      41.158 -15.966   0.011  1.00  0.00     0.175 A 
HETATM    2  S   UNL     1      42.135 -17.071   0.846  1.00  0.00    -0.044 SA
HETATM    3  C   UNL     1      41.519 -16.469   2.344  1.00  0.00     0.100 A 
HETATM    4  C   UNL     1      40.641 -15.421   2.084  1.00  0.00     0.056 A 
HETATM    5  C   UNL     1      39.843 -14.618   3.052  1.00  0.00     0.072 C 
HETATM    6  N   UNL     1      40.450 -15.137   0.734  1.00  0.00    -0.228 NA
ENDROOT
BRANCH   1   7
HETATM    7  N   UNL     1      41.189 -16.074  -1.347  1.00  0.00    -0.287 N 
HETATM    8  C   UNL     1      41.462 -15.070  -2.234  1.00  0.00     0.326 C 
HETATM    9  N   UNL     1      41.785 -13.851  -1.701  1.00  0.00    -0.309 N 
HETATM   10  O   UNL     1      41.377 -15.335  -3.432  1.00  0.00    -0.247 OA
HETATM   11  H   UNL     1      41.894 -13.842  -0.691  1.00  0.00     0.170 HD
HETATM   12  H   UNL     1      40.895 -16.946  -1.760  1.00  0.00     0.172 HD
BRANCH   9  13
HETATM   13  C   UNL     1      41.974 -12.624  -2.366  1.00  0.00     0.036 A 
HETATM   14  C   UNL     1      42.791 -11.597  -1.896  1.00  0.00     0.030 A 
HETATM   15  C   UNL     1      42.953 -10.422  -2.639  1.00  0.00     0.009 A 
HETATM   16  C   UNL     1      42.303 -10.256  -3.866  1.00  0.00    -0.062 A 
HETATM   17  C   UNL     1      42.476  -8.986  -4.645  1.00  0.00     0.048 C 
HETATM   18  C   UNL     1      41.470 -11.278  -4.331  1.00  0.00     0.009 A 
HETATM   19  C   UNL     1      41.313 -12.454  -3.589  1.00  0.00     0.030 A 
ENDBRANCH   9  13
ENDBRANCH   1   7
BRANCH   3  20
HETATM   20  C   UNL     1      41.920 -17.131   3.574  1.00  0.00     0.260 C 
HETATM   21  N   UNL     1      43.278 -17.288   3.756  1.00  0.00    -0.352 N 
HETATM   22  H   UNL     1      43.909 -17.169   2.979  1.00  0.00     0.163 HD
HETATM   23  O   UNL     1      41.122 -17.523   4.424  1.00  0.00    -0.267 OA
BRANCH  21  24
HETATM   24  C   UNL     1      43.839 -17.805   4.983  1.00  0.00     0.163 C 
BRANCH  24  25
HETATM   25  C   UNL     1      44.162 -19.273   4.892  1.00  0.00    -0.019 A 
HETATM   26  C   UNL     1      44.140 -20.124   6.009  1.00  0.00     0.042 A 
HETATM   27 CL   UNL     1      43.789 -19.529   7.594  1.00  0.00    -0.084 Cl
HETATM   28  C   UNL     1      44.406 -21.490   5.870  1.00  0.00     0.024 A 
HETATM   29  C   UNL     1      44.706 -22.021   4.616  1.00  0.00     0.002 A 
HETATM   30  C   UNL     1      44.750 -21.187   3.502  1.00  0.00     0.001 A 
HETATM   31  C   UNL     1      44.486 -19.823   3.640  1.00  0.00     0.010 A 
ENDBRANCH  24  25
ENDBRANCH  21  24
ENDBRANCH   3  20
TORSDOF 5
ENDMDL
MODEL 8
REMARK VINA RESULT:      -9.1      3.093      3.729
REMARK  5 active torsions:
REMARK  status: ('A' for Active; 'I' for Inactive)
REMARK    1  A    between atoms: C_5  and  N_6 
REMARK       I    between atoms: N_6  and  C_7 
REMARK       I    between atoms: C_7  and  N_8 
REMARK    2  A    between atoms: N_8  and  C_9 
REMARK    3  A    between atoms: C_11  and  C_12 
REMARK       I    between atoms: C_12  and  N_13 
REMARK    4  A    between atoms: N_13  and  C_14 
REMARK    5  A    between atoms: C_14  and  C_15 
ROOT
HETATM    1  C   UNL     1      40.609 -11.836   6.449  1.00  0.00     0.175 A 
HETATM    2  S   UNL     1      39.556 -13.067   5.948  1.00  0.00    -0.044 SA
HETATM    3  C   UNL     1      40.916 -14.051   5.539  1.00  0.00     0.100 A 
HETATM    4  C   UNL     1      42.084 -13.330   5.773  1.00  0.00     0.056 A 
HETATM    5  C   UNL     1      43.495 -13.772   5.603  1.00  0.00     0.072 C 
HETATM    6  N   UNL     1      41.890 -12.052   6.290  1.00  0.00    -0.228 NA
ENDROOT
BRANCH   1   7
HETATM    7  N   UNL     1      40.007 -10.745   7.000  1.00  0.00    -0.287 N 
HETATM    8  C   UNL     1      40.178 -10.283   8.275  1.00  0.00     0.326 C 
HETATM    9  N   UNL     1      41.081 -10.955   9.056  1.00  0.00    -0.309 N 
HETATM   10  O   UNL     1      39.497  -9.319   8.623  1.00  0.00    -0.247 OA
HETATM   11  H   UNL     1      41.615 -11.670   8.571  1.00  0.00     0.170 HD
HETATM   12  H   UNL     1      39.296 -10.274   6.462  1.00  0.00     0.172 HD
BRANCH   9  13
HETATM   13  C   UNL     1      41.349 -10.787  10.428  1.00  0.00     0.036 A 
HETATM   14  C   UNL     1      40.504 -11.220  11.449  1.00  0.00     0.030 A 
HETATM   15  C   UNL     1      40.865 -11.048  12.791  1.00  0.00     0.009 A 
HETATM   16  C   UNL     1      42.078 -10.443  13.133  1.00  0.00    -0.062 A 
HETATM   17  C   UNL     1      42.445 -10.253  14.575  1.00  0.00     0.048 C 
HETATM   18  C   UNL     1      42.919  -9.993  12.111  1.00  0.00     0.009 A 
HETATM   19  C   UNL     1      42.559 -10.170  10.771  1.00  0.00     0.030 A 
ENDBRANCH   9  13
ENDBRANCH   1   7
BRANCH   3  20
HETATM   20  C   UNL     1      40.676 -15.416   5.101  1.00  0.00     0.260 C 
HETATM   21  N   UNL     1      40.577 -15.600   3.738  1.00  0.00    -0.352 N 
HETATM   22  H   UNL     1      40.440 -14.808   3.129  1.00  0.00     0.163 HD
HETATM   23  O   UNL     1      40.579 -16.368   5.873  1.00  0.00    -0.267 OA
BRANCH  21  24
HETATM   24  C   UNL     1      40.473 -16.912   3.140  1.00  0.00     0.163 C 
BRANCH  24  25
HETATM   25  C   UNL     1      41.805 -17.436   2.674  1.00  0.00    -0.019 A 
HETATM   26  C   UNL     1      42.301 -17.201   1.381  1.00  0.00     0.042 A 
HETATM   27 CL   UNL     1      41.382 -16.330   0.203  1.00  0.00    -0.084 Cl
HETATM   28  C   UNL     1      43.562 -17.672   1.004  1.00  0.00     0.024 A 
HETATM   29  C   UNL     1      44.342 -18.390   1.912  1.00  0.00     0.002 A 
HETATM   30  C   UNL     1      43.857 -18.646   3.191  1.00  0.00     0.001 A 
HETATM   31  C   UNL     1      42.596 -18.179   3.567  1.00  0.00     0.010 A 
ENDBRANCH  24  25
ENDBRANCH  21  24
ENDBRANCH   3  20
TORSDOF 5
ENDMDL
MODEL 9
REMARK VINA RESULT:      -9.0      2.892     10.240
REMARK  5 active torsions:
REMARK  status: ('A' for Active; 'I' for Inactive)
REMARK    1  A    between atoms: C_5  and  N_6 
REMARK       I    between atoms: N_6  and  C_7 
REMARK       I    between atoms: C_7  and  N_8 
REMARK    2  A    between atoms: N_8  and  C_9 
REMARK    3  A    between atoms: C_11  and  C_12 
REMARK       I    between atoms: C_12  and  N_13 
REMARK    4  A    between atoms: N_13  and  C_14 
REMARK    5  A    between atoms: C_14  and  C_15 
ROOT
HETATM    1  C   UNL     1      41.313 -14.596   4.434  1.00  0.00     0.175 A 
HETATM    2  S   UNL     1      40.460 -13.217   4.927  1.00  0.00    -0.044 SA
HETATM    3  C   UNL     1      41.793 -12.761   5.926  1.00  0.00     0.100 A 
HETATM    4  C   UNL     1      42.779 -13.740   5.842  1.00  0.00     0.056 A 
HETATM    5  C   UNL     1      44.117 -13.768   6.495  1.00  0.00     0.072 C 
HETATM    6  N   UNL     1      42.484 -14.796   4.984  1.00  0.00    -0.228 NA
ENDROOT
BRANCH   1   7
HETATM    7  N   UNL     1      40.697 -15.351   3.482  1.00  0.00    -0.287 N 
HETATM    8  C   UNL     1      41.087 -16.589   3.051  1.00  0.00     0.326 C 
HETATM    9  N   UNL     1      42.173 -17.142   3.675  1.00  0.00    -0.309 N 
HETATM   10  O   UNL     1      40.447 -17.094   2.130  1.00  0.00    -0.247 OA
HETATM   11  H   UNL     1      42.518 -16.619   4.475  1.00  0.00     0.170 HD
HETATM   12  H   UNL     1      39.934 -14.937   2.969  1.00  0.00     0.172 HD
BRANCH   9  13
HETATM   13  C   UNL     1      42.866 -18.323   3.347  1.00  0.00     0.036 A 
HETATM   14  C   UNL     1      43.714 -19.001   4.222  1.00  0.00     0.030 A 
HETATM   15  C   UNL     1      44.336 -20.192   3.828  1.00  0.00     0.009 A 
HETATM   16  C   UNL     1      44.119 -20.725   2.554  1.00  0.00    -0.062 A 
HETATM   17  C   UNL     1      44.803 -21.994   2.141  1.00  0.00     0.048 C 
HETATM   18  C   UNL     1      43.283 -20.037   1.669  1.00  0.00     0.009 A 
HETATM   19  C   UNL     1      42.658 -18.850   2.066  1.00  0.00     0.030 A 
ENDBRANCH   9  13
ENDBRANCH   1   7
BRANCH   3  20
HETATM   20  C   UNL     1      41.737 -11.482   6.616  1.00  0.00     0.260 C 
HETATM   21  N   UNL     1      42.031 -11.513   7.963  1.00  0.00    -0.352 N 
HETATM   22  H   UNL     1      42.041 -12.392   8.458  1.00  0.00     0.163 HD
HETATM   23  O   UNL     1      41.462 -10.422   6.057  1.00  0.00    -0.267 OA
BRANCH  21  24
HETATM   24  C   UNL     1      42.147 -10.312   8.757  1.00  0.00     0.163 C 
BRANCH  24  25
HETATM   25  C   UNL     1      42.230 -10.605  10.231  1.00  0.00    -0.019 A 
HETATM   26  C   UNL     1      43.452 -10.694  10.918  1.00  0.00     0.042 A 
HETATM   27 CL   UNL     1      44.966 -10.526  10.099  1.00  0.00    -0.084 Cl
HETATM   28  C   UNL     1      43.480 -10.927  12.296  1.00  0.00     0.024 A 
HETATM   29  C   UNL     1      42.288 -11.081  13.005  1.00  0.00     0.002 A 
HETATM   30  C   UNL     1      41.070 -11.013  12.336  1.00  0.00     0.001 A 
HETATM   31  C   UNL     1      41.041 -10.783  10.959  1.00  0.00     0.010 A 
ENDBRANCH  24  25
ENDBRANCH  21  24
ENDBRANCH   3  20
TORSDOF 5
ENDMDL
MODEL 10
REMARK VINA RESULT:      -9.0      4.221      7.462
REMARK  5 active torsions:
REMARK  status: ('A' for Active; 'I' for Inactive)
REMARK    1  A    between atoms: C_5  and  N_6 
REMARK       I    between atoms: N_6  and  C_7 
REMARK       I    between atoms: C_7  and  N_8 
REMARK    2  A    between atoms: N_8  and  C_9 
REMARK    3  A    between atoms: C_11  and  C_12 
REMARK       I    between atoms: C_12  and  N_13 
REMARK    4  A    between atoms: N_13  and  C_14 
REMARK    5  A    between atoms: C_14  and  C_15 
ROOT
HETATM    1  C   UNL     1      41.614 -14.227   4.645  1.00  0.00     0.175 A 
HETATM    2  S   UNL     1      41.848 -15.895   4.456  1.00  0.00    -0.044 SA
HETATM    3  C   UNL     1      43.206 -15.815   5.522  1.00  0.00     0.100 A 
HETATM    4  C   UNL     1      43.406 -14.492   5.903  1.00  0.00     0.056 A 
HETATM    5  C   UNL     1      44.428 -13.939   6.834  1.00  0.00     0.072 C 
HETATM    6  N   UNL     1      42.485 -13.587   5.382  1.00  0.00    -0.228 NA
ENDROOT
BRANCH   1   7
HETATM    7  N   UNL     1      40.510 -13.722   4.025  1.00  0.00    -0.287 N 
HETATM    8  C   UNL     1      40.436 -13.287   2.731  1.00  0.00     0.326 C 
HETATM    9  N   UNL     1      41.568 -13.420   1.972  1.00  0.00    -0.309 N 
HETATM   10  O   UNL     1      39.371 -12.795   2.360  1.00  0.00    -0.247 OA
HETATM   11  H   UNL     1      42.324 -13.931   2.420  1.00  0.00     0.170 HD
HETATM   12  H   UNL     1      39.686 -13.560   4.583  1.00  0.00     0.172 HD
BRANCH   9  13
HETATM   13  C   UNL     1      41.816 -12.937   0.673  1.00  0.00     0.036 A 
HETATM   14  C   UNL     1      41.732 -13.716  -0.480  1.00  0.00     0.030 A 
HETATM   15  C   UNL     1      41.957 -13.147  -1.739  1.00  0.00     0.009 A 
HETATM   16  C   UNL     1      42.266 -11.790  -1.866  1.00  0.00    -0.062 A 
HETATM   17  C   UNL     1      42.518 -11.198  -3.221  1.00  0.00     0.048 C 
HETATM   18  C   UNL     1      42.367 -11.010  -0.710  1.00  0.00     0.009 A 
HETATM   19  C   UNL     1      42.137 -11.580   0.548  1.00  0.00     0.030 A 
ENDBRANCH   9  13
ENDBRANCH   1   7
BRANCH   3  20
HETATM   20  C   UNL     1      43.864 -17.055   5.899  1.00  0.00     0.260 C 
HETATM   21  N   UNL     1      43.824 -18.066   4.961  1.00  0.00    -0.352 N 
HETATM   22  H   UNL     1      43.179 -18.013   4.189  1.00  0.00     0.163 HD
HETATM   23  O   UNL     1      44.441 -17.216   6.973  1.00  0.00    -0.267 OA
BRANCH  21  24
HETATM   24  C   UNL     1      44.544 -19.307   5.131  1.00  0.00     0.163 C 
BRANCH  24  25
HETATM   25  C   UNL     1      44.402 -20.219   3.942  1.00  0.00    -0.019 A 
HETATM   26  C   UNL     1      44.677 -21.594   4.005  1.00  0.00     0.042 A 
HETATM   27 CL   UNL     1      45.257 -22.337   5.455  1.00  0.00    -0.084 Cl
HETATM   28  C   UNL     1      44.492 -22.411   2.885  1.00  0.00     0.024 A 
HETATM   29  C   UNL     1      44.036 -21.863   1.686  1.00  0.00     0.002 A 
HETATM   30  C   UNL     1      43.776 -20.498   1.603  1.00  0.00     0.001 A 
HETATM   31  C   UNL     1      43.964 -19.681   2.719  1.00  0.00     0.010 A 
ENDBRANCH  24  25
ENDBRANCH  21  24
ENDBRANCH   3  20
TORSDOF 5
ENDMDL
