MODEL 1
REMARK VINA RESULT:     -10.2      0.000      0.000
REMARK  6 active torsions:
REMARK  status: ('A' for Active; 'I' for Inactive)
REMARK    1  A    between atoms: C_9  and  C_10 
REMARK       I    between atoms: C_10  and  N_11 
REMARK    2  A    between atoms: N_11  and  N_12 
REMARK       I    between atoms: N_12  and  C_13 
REMARK       I    between atoms: C_13  and  N_14 
REMARK    3  A    between atoms: N_14  and  C_15 
REMARK    4  A    between atoms: C_15  and  C_16 
REMARK    5  A    between atoms: C_16  and  C_17 
REMARK    6  A    between atoms: C_16  and  C_27 
ROOT
HETATM    1  N   UNL     1      44.651 -15.033   7.078  1.00  0.00    -0.249 N 
HETATM    2  C   UNL     1      44.147 -16.311   6.992  1.00  0.00     0.334 C 
HETATM    3  N   UNL     1      45.016 -17.152   6.344  1.00  0.00    -0.341 N 
HETATM    4  O   UNL     1      43.049 -16.640   7.424  1.00  0.00    -0.246 OA
HETATM    5  H   UNL     1      45.655 -14.887   7.045  1.00  0.00     0.192 HD
HETATM    6  H   UNL     1      45.604 -16.701   5.656  1.00  0.00     0.164 HD
ENDROOT
BRANCH   1   7
HETATM    7  N   UNL     1      43.908 -14.062   7.762  1.00  0.00    -0.261 N 
HETATM    8  C   UNL     1      44.529 -12.859   8.033  1.00  0.00     0.291 C 
HETATM    9  O   UNL     1      45.734 -12.673   7.943  1.00  0.00    -0.264 OA
HETATM   10  H   UNL     1      42.894 -14.076   7.623  1.00  0.00     0.190 HD
BRANCH   8  11
HETATM   11  C   UNL     1      43.553 -11.741   8.422  1.00  0.00     0.157 A 
HETATM   12  C   UNL     1      43.536 -11.161   9.786  1.00  0.00     0.016 A 
HETATM   13  C   UNL     1      44.307 -11.631  10.856  1.00  0.00     0.015 A 
HETATM   14  C   UNL     1      42.688 -10.072   9.996  1.00  0.00     0.046 A 
HETATM   15  C   UNL     1      44.252 -10.995  12.101  1.00  0.00     0.001 A 
HETATM   16  C   UNL     1      43.425  -9.891  12.293  1.00  0.00     0.001 A 
HETATM   17  C   UNL     1      42.634  -9.431  11.242  1.00  0.00     0.018 A 
HETATM   18  C   UNL     1      41.823  -9.606   8.901  1.00  0.00     0.272 A 
HETATM   19  O   UNL     1      41.062  -8.655   9.042  1.00  0.00    -0.266 OA
HETATM   20  N   UNL     1      41.910 -10.307   7.723  1.00  0.00    -0.242 N 
HETATM   21  N   UNL     1      42.767 -11.331   7.463  1.00  0.00    -0.166 NA
HETATM   22  H   UNL     1      41.321  -9.996   6.955  1.00  0.00     0.192 HD
ENDBRANCH   8  11
ENDBRANCH   1   7
BRANCH   3  23
HETATM   23  C   UNL     1      44.629 -18.521   6.042  1.00  0.00     0.139 C 
BRANCH  23  24
HETATM   24  C   UNL     1      44.252 -18.797   4.567  1.00  0.00     0.079 C 
BRANCH  24  25
HETATM   25  C   UNL     1      42.918 -18.205   4.160  1.00  0.00    -0.020 A 
HETATM   26  C   UNL     1      42.599 -17.645   2.874  1.00  0.00    -0.001 A 
HETATM   27  C   UNL     1      41.274 -17.210   2.918  1.00  0.00     0.042 A 
HETATM   28  C   UNL     1      43.317 -17.466   1.671  1.00  0.00     0.014 A 
HETATM   29  C   UNL     1      40.632 -16.608   1.830  1.00  0.00     0.030 A 
HETATM   30  N   UNL     1      40.798 -17.492   4.176  1.00  0.00    -0.365 N 
HETATM   31  C   UNL     1      41.368 -16.444   0.652  1.00  0.00     0.002 A 
HETATM   32  C   UNL     1      42.691 -16.867   0.572  1.00  0.00     0.001 A 
HETATM   33  H   UNL     1      39.861 -17.285   4.492  1.00  0.00     0.165 HD
HETATM   34  C   UNL     1      41.773 -18.087   4.928  1.00  0.00     0.097 A 
ENDBRANCH  24  25
BRANCH  24  35
HETATM   35  C   UNL     1      44.410 -20.250   4.128  1.00  0.00    -0.007 A 
HETATM   36  S   UNL     1      44.702 -21.533   5.232  1.00  0.00    -0.106 SA
HETATM   37  C   UNL     1      44.727 -22.701   3.987  1.00  0.00     0.050 A 
HETATM   38  C   UNL     1      44.515 -22.140   2.749  1.00  0.00     0.008 A 
HETATM   39  C   UNL     1      44.330 -20.731   2.830  1.00  0.00     0.016 A 
ENDBRANCH  24  35
ENDBRANCH  23  24
ENDBRANCH   3  23
TORSDOF 6
ENDMDL
MODEL 2
REMARK VINA RESULT:     -10.1      5.868      9.726
REMARK  6 active torsions:
REMARK  status: ('A' for Active; 'I' for Inactive)
REMARK    1  A    between atoms: C_9  and  C_10 
REMARK       I    between atoms: C_10  and  N_11 
REMARK    2  A    between atoms: N_11  and  N_12 
REMARK       I    between atoms: N_12  and  C_13 
REMARK       I    between atoms: C_13  and  N_14 
REMARK    3  A    between atoms: N_14  and  C_15 
REMARK    4  A    between atoms: C_15  and  C_16 
REMARK    5  A    between atoms: C_16  and  C_17 
REMARK    6  A    between atoms: C_16  and  C_27 
ROOT
HETATM    1  N   UNL     1      39.256 -16.205   1.929  1.00  0.00    -0.249 N 
HETATM    2  C   UNL     1      39.308 -14.832   2.009  1.00  0.00     0.334 C 
HETATM    3  N   UNL     1      38.332 -14.247   1.243  1.00  0.00    -0.341 N 
HETATM    4  O   UNL     1      40.139 -14.218   2.668  1.00  0.00    -0.246 OA
HETATM    5  H   UNL     1      38.383 -16.661   1.689  1.00  0.00     0.192 HD
HETATM    6  H   UNL     1      38.058 -14.781   0.430  1.00  0.00     0.164 HD
ENDROOT
BRANCH   1   7
HETATM    7  N   UNL     1      40.153 -16.957   2.699  1.00  0.00    -0.261 N 
HETATM    8  C   UNL     1      41.383 -17.247   2.143  1.00  0.00     0.291 C 
HETATM    9  O   UNL     1      41.649 -17.110   0.958  1.00  0.00    -0.264 OA
HETATM   10  H   UNL     1      40.078 -16.863   3.716  1.00  0.00     0.190 HD
BRANCH   8  11
HETATM   11  C   UNL     1      42.422 -17.721   3.168  1.00  0.00     0.157 A 
HETATM   12  C   UNL     1      43.164 -18.992   2.994  1.00  0.00     0.016 A 
HETATM   13  C   UNL     1      42.925 -19.914   1.968  1.00  0.00     0.015 A 
HETATM   14  C   UNL     1      44.166 -19.269   3.926  1.00  0.00     0.046 A 
HETATM   15  C   UNL     1      43.705 -21.072   1.861  1.00  0.00     0.001 A 
HETATM   16  C   UNL     1      44.720 -21.325   2.780  1.00  0.00     0.001 A 
HETATM   17  C   UNL     1      44.949 -20.427   3.820  1.00  0.00     0.018 A 
HETATM   18  C   UNL     1      44.386 -18.343   5.049  1.00  0.00     0.272 A 
HETATM   19  O   UNL     1      45.253 -18.548   5.891  1.00  0.00    -0.266 OA
HETATM   20  N   UNL     1      43.555 -17.249   5.101  1.00  0.00    -0.242 N 
HETATM   21  N   UNL     1      42.613 -16.916   4.179  1.00  0.00    -0.166 NA
HETATM   22  H   UNL     1      43.697 -16.598   5.869  1.00  0.00     0.192 HD
ENDBRANCH   8  11
ENDBRANCH   1   7
BRANCH   3  23
HETATM   23  C   UNL     1      38.281 -12.800   1.092  1.00  0.00     0.139 C 
BRANCH  23  24
HETATM   24  C   UNL     1      38.985 -12.237  -0.165  1.00  0.00     0.079 C 
BRANCH  24  25
HETATM   25  C   UNL     1      39.767 -13.276  -0.941  1.00  0.00    -0.020 A 
HETATM   26  C   UNL     1      39.246 -14.120  -1.984  1.00  0.00    -0.001 A 
HETATM   27  C   UNL     1      40.288 -14.933  -2.431  1.00  0.00     0.042 A 
HETATM   28  C   UNL     1      37.980 -14.269  -2.590  1.00  0.00     0.014 A 
HETATM   29  C   UNL     1      40.132 -15.883  -3.446  1.00  0.00     0.030 A 
HETATM   30  N   UNL     1      41.402 -14.602  -1.697  1.00  0.00    -0.365 N 
HETATM   31  C   UNL     1      38.868 -16.008  -4.029  1.00  0.00     0.002 A 
HETATM   32  C   UNL     1      37.805 -15.214  -3.609  1.00  0.00     0.001 A 
HETATM   33  H   UNL     1      42.308 -15.034  -1.809  1.00  0.00     0.165 HD
HETATM   34  C   UNL     1      41.102 -13.612  -0.802  1.00  0.00     0.097 A 
ENDBRANCH  24  25
BRANCH  24  35
HETATM   35  C   UNL     1      39.781 -10.956   0.071  1.00  0.00    -0.007 A 
HETATM   36  S   UNL     1      40.404 -10.512   1.609  1.00  0.00    -0.106 SA
HETATM   37  C   UNL     1      41.101  -9.077   0.998  1.00  0.00     0.050 A 
HETATM   38  C   UNL     1      40.874  -8.928  -0.350  1.00  0.00     0.008 A 
HETATM   39  C   UNL     1      40.118 -10.009  -0.884  1.00  0.00     0.016 A 
ENDBRANCH  24  35
ENDBRANCH  23  24
ENDBRANCH   3  23
TORSDOF 6
ENDMDL
MODEL 3
REMARK VINA RESULT:      -9.8      5.940      9.989
REMARK  6 active torsions:
REMARK  status: ('A' for Active; 'I' for Inactive)
REMARK    1  A    between atoms: C_9  and  C_10 
REMARK       I    between atoms: C_10  and  N_11 
REMARK    2  A    between atoms: N_11  and  N_12 
REMARK       I    between atoms: N_12  and  C_13 
REMARK       I    between atoms: C_13  and  N_14 
REMARK    3  A    between atoms: N_14  and  C_15 
REMARK    4  A    between atoms: C_15  and  C_16 
REMARK    5  A    between atoms: C_16  and  C_17 
REMARK    6  A    between atoms: C_16  and  C_27 
ROOT
HETATM    1  N   UNL     1      41.781 -15.660  -1.004  1.00  0.00    -0.249 N 
HETATM    2  C   UNL     1      41.546 -15.885   0.333  1.00  0.00     0.334 C 
HETATM    3  N   UNL     1      42.110 -17.065   0.750  1.00  0.00    -0.341 N 
HETATM    4  O   UNL     1      40.897 -15.132   1.048  1.00  0.00    -0.246 OA
HETATM    5  H   UNL     1      42.585 -16.087  -1.451  1.00  0.00     0.192 HD
HETATM    6  H   UNL     1      42.177 -17.775   0.034  1.00  0.00     0.164 HD
ENDROOT
BRANCH   1   7
HETATM    7  N   UNL     1      41.319 -14.467  -1.575  1.00  0.00    -0.261 N 
HETATM    8  C   UNL     1      41.087 -14.460  -2.936  1.00  0.00     0.291 C 
HETATM    9  O   UNL     1      41.482 -15.326  -3.703  1.00  0.00    -0.264 OA
HETATM   10  H   UNL     1      40.761 -13.854  -0.974  1.00  0.00     0.190 HD
BRANCH   8  11
HETATM   11  C   UNL     1      40.235 -13.274  -3.406  1.00  0.00     0.157 A 
HETATM   12  C   UNL     1      40.851 -12.022  -3.905  1.00  0.00     0.016 A 
HETATM   13  C   UNL     1      42.225 -11.758  -3.898  1.00  0.00     0.015 A 
HETATM   14  C   UNL     1      39.983 -11.053  -4.413  1.00  0.00     0.046 A 
HETATM   15  C   UNL     1      42.719 -10.560  -4.426  1.00  0.00     0.001 A 
HETATM   16  C   UNL     1      41.848  -9.612  -4.957  1.00  0.00     0.001 A 
HETATM   17  C   UNL     1      40.476  -9.853  -4.945  1.00  0.00     0.018 A 
HETATM   18  C   UNL     1      38.531 -11.286  -4.368  1.00  0.00     0.272 A 
HETATM   19  O   UNL     1      37.734 -10.461  -4.801  1.00  0.00    -0.266 OA
HETATM   20  N   UNL     1      38.127 -12.470  -3.801  1.00  0.00    -0.242 N 
HETATM   21  N   UNL     1      38.943 -13.461  -3.353  1.00  0.00    -0.166 NA
HETATM   22  H   UNL     1      37.127 -12.648  -3.765  1.00  0.00     0.192 HD
ENDBRANCH   8  11
ENDBRANCH   1   7
BRANCH   3  23
HETATM   23  C   UNL     1      41.882 -17.554   2.102  1.00  0.00     0.139 C 
BRANCH  23  24
HETATM   24  C   UNL     1      42.926 -17.112   3.155  1.00  0.00     0.079 C 
BRANCH  24  25
HETATM   25  C   UNL     1      43.626 -18.267   3.839  1.00  0.00    -0.020 A 
HETATM   26  C   UNL     1      43.829 -19.580   3.285  1.00  0.00    -0.001 A 
HETATM   27  C   UNL     1      44.508 -20.340   4.238  1.00  0.00     0.042 A 
HETATM   28  C   UNL     1      43.498 -20.194   2.058  1.00  0.00     0.014 A 
HETATM   29  C   UNL     1      44.870 -21.677   4.030  1.00  0.00     0.030 A 
HETATM   30  N   UNL     1      44.715 -19.531   5.329  1.00  0.00    -0.365 N 
HETATM   31  C   UNL     1      44.529 -22.258   2.806  1.00  0.00     0.002 A 
HETATM   32  C   UNL     1      43.853 -21.529   1.832  1.00  0.00     0.001 A 
HETATM   33  H   UNL     1      45.186 -19.821   6.174  1.00  0.00     0.165 HD
HETATM   34  C   UNL     1      44.190 -18.289   5.103  1.00  0.00     0.097 A 
ENDBRANCH  24  25
BRANCH  24  35
HETATM   35  C   UNL     1      42.431 -16.056   4.140  1.00  0.00    -0.007 A 
HETATM   36  S   UNL     1      43.286 -14.601   4.457  1.00  0.00    -0.106 SA
HETATM   37  C   UNL     1      42.109 -14.062   5.570  1.00  0.00     0.050 A 
HETATM   38  C   UNL     1      41.077 -14.960   5.705  1.00  0.00     0.008 A 
HETATM   39  C   UNL     1      41.260 -16.106   4.880  1.00  0.00     0.016 A 
ENDBRANCH  24  35
ENDBRANCH  23  24
ENDBRANCH   3  23
TORSDOF 6
ENDMDL
MODEL 4
REMARK VINA RESULT:      -9.7      5.536      9.980
REMARK  6 active torsions:
REMARK  status: ('A' for Active; 'I' for Inactive)
REMARK    1  A    between atoms: C_9  and  C_10 
REMARK       I    between atoms: C_10  and  N_11 
REMARK    2  A    between atoms: N_11  and  N_12 
REMARK       I    between atoms: N_12  and  C_13 
REMARK       I    between atoms: C_13  and  N_14 
REMARK    3  A    between atoms: N_14  and  C_15 
REMARK    4  A    between atoms: C_15  and  C_16 
REMARK    5  A    between atoms: C_16  and  C_17 
REMARK    6  A    between atoms: C_16  and  C_27 
ROOT
HETATM    1  N   UNL     1      41.857 -15.423  -0.386  1.00  0.00    -0.249 N 
HETATM    2  C   UNL     1      41.918 -16.475   0.499  1.00  0.00     0.334 C 
HETATM    3  N   UNL     1      43.189 -16.644   0.989  1.00  0.00    -0.341 N 
HETATM    4  O   UNL     1      40.959 -17.178   0.790  1.00  0.00    -0.246 OA
HETATM    5  H   UNL     1      42.540 -14.675  -0.327  1.00  0.00     0.192 HD
HETATM    6  H   UNL     1      43.925 -16.359   0.358  1.00  0.00     0.164 HD
ENDROOT
BRANCH   1   7
HETATM    7  N   UNL     1      40.615 -15.080  -0.938  1.00  0.00    -0.261 N 
HETATM    8  C   UNL     1      40.617 -14.393  -2.135  1.00  0.00     0.291 C 
HETATM    9  O   UNL     1      41.604 -13.856  -2.616  1.00  0.00    -0.264 OA
HETATM   10  H   UNL     1      39.829 -15.701  -0.723  1.00  0.00     0.190 HD
BRANCH   8  11
HETATM   11  C   UNL     1      39.257 -14.401  -2.847  1.00  0.00     0.157 A 
HETATM   12  C   UNL     1      38.341 -13.238  -2.790  1.00  0.00     0.016 A 
HETATM   13  C   UNL     1      38.564 -12.092  -2.018  1.00  0.00     0.015 A 
HETATM   14  C   UNL     1      37.184 -13.309  -3.568  1.00  0.00     0.046 A 
HETATM   15  C   UNL     1      37.659 -11.025  -2.057  1.00  0.00     0.001 A 
HETATM   16  C   UNL     1      36.522 -11.094  -2.858  1.00  0.00     0.001 A 
HETATM   17  C   UNL     1      36.278 -12.240  -3.610  1.00  0.00     0.018 A 
HETATM   18  C   UNL     1      36.901 -14.533  -4.335  1.00  0.00     0.272 A 
HETATM   19  O   UNL     1      35.896 -14.639  -5.029  1.00  0.00    -0.266 OA
HETATM   20  N   UNL     1      37.821 -15.547  -4.213  1.00  0.00    -0.242 N 
HETATM   21  N   UNL     1      38.987 -15.490  -3.516  1.00  0.00    -0.166 NA
HETATM   22  H   UNL     1      37.642 -16.398  -4.740  1.00  0.00     0.192 HD
ENDBRANCH   8  11
ENDBRANCH   1   7
BRANCH   3  23
HETATM   23  C   UNL     1      43.501 -17.774   1.852  1.00  0.00     0.139 C 
BRANCH  23  24
HETATM   24  C   UNL     1      43.859 -17.417   3.314  1.00  0.00     0.079 C 
BRANCH  24  25
HETATM   25  C   UNL     1      44.171 -18.623   4.176  1.00  0.00    -0.020 A 
HETATM   26  C   UNL     1      44.299 -19.980   3.715  1.00  0.00    -0.001 A 
HETATM   27  C   UNL     1      44.584 -20.778   4.824  1.00  0.00     0.042 A 
HETATM   28  C   UNL     1      44.198 -20.606   2.454  1.00  0.00     0.014 A 
HETATM   29  C   UNL     1      44.771 -22.162   4.739  1.00  0.00     0.030 A 
HETATM   30  N   UNL     1      44.631 -19.948   5.918  1.00  0.00    -0.365 N 
HETATM   31  C   UNL     1      44.667 -22.755   3.477  1.00  0.00     0.002 A 
HETATM   32  C   UNL     1      44.384 -21.990   2.350  1.00  0.00     0.001 A 
HETATM   33  H   UNL     1      44.820 -20.256   6.861  1.00  0.00     0.165 HD
HETATM   34  C   UNL     1      44.384 -18.656   5.543  1.00  0.00     0.097 A 
ENDBRANCH  24  25
BRANCH  24  35
HETATM   35  C   UNL     1      42.894 -16.445   3.988  1.00  0.00    -0.007 A 
HETATM   36  S   UNL     1      41.277 -16.862   4.391  1.00  0.00    -0.106 SA
HETATM   37  C   UNL     1      40.965 -15.322   5.057  1.00  0.00     0.050 A 
HETATM   38  C   UNL     1      42.062 -14.496   4.985  1.00  0.00     0.008 A 
HETATM   39  C   UNL     1      43.173 -15.143   4.373  1.00  0.00     0.016 A 
ENDBRANCH  24  35
ENDBRANCH  23  24
ENDBRANCH   3  23
TORSDOF 6
ENDMDL
MODEL 5
REMARK VINA RESULT:      -9.7      3.043     10.817
REMARK  6 active torsions:
REMARK  status: ('A' for Active; 'I' for Inactive)
REMARK    1  A    between atoms: C_9  and  C_10 
REMARK       I    between atoms: C_10  and  N_11 
REMARK    2  A    between atoms: N_11  and  N_12 
REMARK       I    between atoms: N_12  and  C_13 
REMARK       I    between atoms: C_13  and  N_14 
REMARK    3  A    between atoms: N_14  and  C_15 
REMARK    4  A    between atoms: C_15  and  C_16 
REMARK    5  A    between atoms: C_16  and  C_17 
REMARK    6  A    between atoms: C_16  and  C_27 
ROOT
HETATM    1  N   UNL     1      43.337 -14.077   6.576  1.00  0.00    -0.249 N 
HETATM    2  C   UNL     1      44.009 -13.441   7.594  1.00  0.00     0.334 C 
HETATM    3  N   UNL     1      43.378 -12.279   7.963  1.00  0.00    -0.341 N 
HETATM    4  O   UNL     1      45.050 -13.856   8.088  1.00  0.00    -0.246 OA
HETATM    5  H   UNL     1      42.344 -13.913   6.451  1.00  0.00     0.192 HD
HETATM    6  H   UNL     1      42.864 -11.826   7.221  1.00  0.00     0.164 HD
ENDROOT
BRANCH   1   7
HETATM    7  N   UNL     1      43.821 -15.310   6.118  1.00  0.00    -0.261 N 
HETATM    8  C   UNL     1      42.978 -16.400   6.210  1.00  0.00     0.291 C 
HETATM    9  O   UNL     1      41.952 -16.419   6.874  1.00  0.00    -0.264 OA
HETATM   10  H   UNL     1      44.515 -15.282   5.365  1.00  0.00     0.190 HD
BRANCH   8  11
HETATM   11  C   UNL     1      43.424 -17.592   5.353  1.00  0.00     0.157 A 
HETATM   12  C   UNL     1      43.421 -17.531   3.872  1.00  0.00     0.016 A 
HETATM   13  C   UNL     1      42.923 -16.457   3.125  1.00  0.00     0.015 A 
HETATM   14  C   UNL     1      43.954 -18.630   3.196  1.00  0.00     0.046 A 
HETATM   15  C   UNL     1      42.997 -16.473   1.727  1.00  0.00     0.001 A 
HETATM   16  C   UNL     1      43.557 -17.561   1.063  1.00  0.00     0.001 A 
HETATM   17  C   UNL     1      44.031 -18.647   1.796  1.00  0.00     0.018 A 
HETATM   18  C   UNL     1      44.421 -19.796   3.964  1.00  0.00     0.272 A 
HETATM   19  O   UNL     1      44.895 -20.782   3.411  1.00  0.00    -0.266 OA
HETATM   20  N   UNL     1      44.280 -19.715   5.328  1.00  0.00    -0.242 N 
HETATM   21  N   UNL     1      43.823 -18.639   6.023  1.00  0.00    -0.166 NA
HETATM   22  H   UNL     1      44.602 -20.511   5.874  1.00  0.00     0.192 HD
ENDBRANCH   8  11
ENDBRANCH   1   7
BRANCH   3  23
HETATM   23  C   UNL     1      43.984 -11.391   8.944  1.00  0.00     0.139 C 
BRANCH  23  24
HETATM   24  C   UNL     1      43.022 -10.380   9.611  1.00  0.00     0.079 C 
BRANCH  24  25
HETATM   25  C   UNL     1      42.954 -10.509  11.118  1.00  0.00    -0.020 A 
HETATM   26  C   UNL     1      42.697  -9.440  12.047  1.00  0.00    -0.001 A 
HETATM   27  C   UNL     1      42.724  -9.981  13.332  1.00  0.00     0.042 A 
HETATM   28  C   UNL     1      42.443  -8.058  11.913  1.00  0.00     0.014 A 
HETATM   29  C   UNL     1      42.514  -9.216  14.486  1.00  0.00     0.030 A 
HETATM   30  N   UNL     1      42.985 -11.323  13.201  1.00  0.00    -0.365 N 
HETATM   31  C   UNL     1      42.264  -7.851  14.323  1.00  0.00     0.002 A 
HETATM   32  C   UNL     1      42.229  -7.277  13.055  1.00  0.00     0.001 A 
HETATM   33  H   UNL     1      43.061 -11.969  13.974  1.00  0.00     0.165 HD
HETATM   34  C   UNL     1      43.125 -11.651  11.881  1.00  0.00     0.097 A 
ENDBRANCH  24  25
BRANCH  24  35
HETATM   35  C   UNL     1      41.643 -10.289   8.964  1.00  0.00    -0.007 A 
HETATM   36  S   UNL     1      41.352  -9.441   7.499  1.00  0.00    -0.106 SA
HETATM   37  C   UNL     1      39.691  -9.838   7.510  1.00  0.00     0.050 A 
HETATM   38  C   UNL     1      39.351 -10.604   8.600  1.00  0.00     0.008 A 
HETATM   39  C   UNL     1      40.474 -10.867   9.434  1.00  0.00     0.016 A 
ENDBRANCH  24  35
ENDBRANCH  23  24
ENDBRANCH   3  23
TORSDOF 6
ENDMDL
MODEL 6
REMARK VINA RESULT:      -9.6      2.785      4.819
REMARK  6 active torsions:
REMARK  status: ('A' for Active; 'I' for Inactive)
REMARK    1  A    between atoms: C_9  and  C_10 
REMARK       I    between atoms: C_10  and  N_11 
REMARK    2  A    between atoms: N_11  and  N_12 
REMARK       I    between atoms: N_12  and  C_13 
REMARK       I    between atoms: C_13  and  N_14 
REMARK    3  A    between atoms: N_14  and  C_15 
REMARK    4  A    between atoms: C_15  and  C_16 
REMARK    5  A    between atoms: C_16  and  C_17 
REMARK    6  A    between atoms: C_16  and  C_27 
ROOT
HETATM    1  N   UNL     1      44.346 -13.925   6.391  1.00  0.00    -0.249 N 
HETATM    2  C   UNL     1      43.405 -13.768   5.399  1.00  0.00     0.334 C 
HETATM    3  N   UNL     1      43.907 -14.119   4.171  1.00  0.00    -0.341 N 
HETATM    4  O   UNL     1      42.271 -13.348   5.595  1.00  0.00    -0.246 OA
HETATM    5  H   UNL     1      45.106 -14.584   6.263  1.00  0.00     0.192 HD
HETATM    6  H   UNL     1      44.903 -13.979   4.068  1.00  0.00     0.164 HD
ENDROOT
BRANCH   1   7
HETATM    7  N   UNL     1      43.975 -13.662   7.717  1.00  0.00    -0.261 N 
HETATM    8  C   UNL     1      44.791 -12.827   8.453  1.00  0.00     0.291 C 
HETATM    9  O   UNL     1      45.922 -12.505   8.120  1.00  0.00    -0.264 OA
HETATM   10  H   UNL     1      42.973 -13.690   7.929  1.00  0.00     0.190 HD
BRANCH   8  11
HETATM   11  C   UNL     1      44.127 -12.292   9.729  1.00  0.00     0.157 A 
HETATM   12  C   UNL     1      43.099 -11.225   9.683  1.00  0.00     0.016 A 
HETATM   13  C   UNL     1      42.719 -10.542   8.522  1.00  0.00     0.015 A 
HETATM   14  C   UNL     1      42.480 -10.896  10.890  1.00  0.00     0.046 A 
HETATM   15  C   UNL     1      41.709  -9.574   8.570  1.00  0.00     0.001 A 
HETATM   16  C   UNL     1      41.077  -9.273   9.774  1.00  0.00     0.001 A 
HETATM   17  C   UNL     1      41.467  -9.929  10.940  1.00  0.00     0.018 A 
HETATM   18  C   UNL     1      42.914 -11.558  12.131  1.00  0.00     0.272 A 
HETATM   19  O   UNL     1      42.399 -11.298  13.213  1.00  0.00    -0.266 OA
HETATM   20  N   UNL     1      43.935 -12.469  12.004  1.00  0.00    -0.242 N 
HETATM   21  N   UNL     1      44.518 -12.859  10.839  1.00  0.00    -0.166 NA
HETATM   22  H   UNL     1      44.244 -12.938  12.851  1.00  0.00     0.192 HD
ENDBRANCH   8  11
ENDBRANCH   1   7
BRANCH   3  23
HETATM   23  C   UNL     1      43.116 -13.918   2.966  1.00  0.00     0.139 C 
BRANCH  23  24
HETATM   24  C   UNL     1      42.087 -15.030   2.652  1.00  0.00     0.079 C 
BRANCH  24  25
HETATM   25  C   UNL     1      42.714 -16.320   2.168  1.00  0.00    -0.020 A 
HETATM   26  C   UNL     1      43.212 -17.383   3.001  1.00  0.00    -0.001 A 
HETATM   27  C   UNL     1      43.710 -18.380   2.163  1.00  0.00     0.042 A 
HETATM   28  C   UNL     1      43.286 -17.589   4.396  1.00  0.00     0.014 A 
HETATM   29  C   UNL     1      44.276 -19.567   2.643  1.00  0.00     0.030 A 
HETATM   30  N   UNL     1      43.525 -17.952   0.870  1.00  0.00    -0.365 N 
HETATM   31  C   UNL     1      44.335 -19.744   4.028  1.00  0.00     0.002 A 
HETATM   32  C   UNL     1      43.848 -18.770   4.894  1.00  0.00     0.001 A 
HETATM   33  H   UNL     1      43.793 -18.477   0.050  1.00  0.00     0.165 HD
HETATM   34  C   UNL     1      42.931 -16.720   0.861  1.00  0.00     0.097 A 
ENDBRANCH  24  25
BRANCH  24  35
HETATM   35  C   UNL     1      40.911 -14.585   1.786  1.00  0.00    -0.007 A 
HETATM   36  S   UNL     1      39.293 -15.081   2.080  1.00  0.00    -0.106 SA
HETATM   37  C   UNL     1      38.696 -14.182   0.757  1.00  0.00     0.050 A 
HETATM   38  C   UNL     1      39.697 -13.509   0.097  1.00  0.00     0.008 A 
HETATM   39  C   UNL     1      40.971 -13.738   0.690  1.00  0.00     0.016 A 
ENDBRANCH  24  35
ENDBRANCH  23  24
ENDBRANCH   3  23
TORSDOF 6
ENDMDL
MODEL 7
REMARK VINA RESULT:      -9.6      4.843      9.124
REMARK  6 active torsions:
REMARK  status: ('A' for Active; 'I' for Inactive)
REMARK    1  A    between atoms: C_9  and  C_10 
REMARK       I    between atoms: C_10  and  N_11 
REMARK    2  A    between atoms: N_11  and  N_12 
REMARK       I    between atoms: N_12  and  C_13 
REMARK       I    between atoms: C_13  and  N_14 
REMARK    3  A    between atoms: N_14  and  C_15 
REMARK    4  A    between atoms: C_15  and  C_16 
REMARK    5  A    between atoms: C_16  and  C_17 
REMARK    6  A    between atoms: C_16  and  C_27 
ROOT
HETATM    1  N   UNL     1      41.593 -17.149   0.939  1.00  0.00    -0.249 N 
HETATM    2  C   UNL     1      40.601 -16.441   1.576  1.00  0.00     0.334 C 
HETATM    3  N   UNL     1      40.071 -15.472   0.761  1.00  0.00    -0.341 N 
HETATM    4  O   UNL     1      40.254 -16.643   2.734  1.00  0.00    -0.246 OA
HETATM    5  H   UNL     1      41.601 -17.203  -0.074  1.00  0.00     0.192 HD
HETATM    6  H   UNL     1      40.716 -15.101   0.076  1.00  0.00     0.164 HD
ENDROOT
BRANCH   1   7
HETATM    7  N   UNL     1      42.200 -18.214   1.617  1.00  0.00    -0.261 N 
HETATM    8  C   UNL     1      43.537 -18.086   1.940  1.00  0.00     0.291 C 
HETATM    9  O   UNL     1      44.277 -17.235   1.469  1.00  0.00    -0.264 OA
HETATM   10  H   UNL     1      41.596 -18.780   2.221  1.00  0.00     0.190 HD
BRANCH   8  11
HETATM   11  C   UNL     1      44.011 -19.094   2.994  1.00  0.00     0.157 A 
HETATM   12  C   UNL     1      43.837 -18.845   4.445  1.00  0.00     0.016 A 
HETATM   13  C   UNL     1      43.339 -17.655   4.989  1.00  0.00     0.015 A 
HETATM   14  C   UNL     1      44.200 -19.879   5.309  1.00  0.00     0.046 A 
HETATM   15  C   UNL     1      43.174 -17.524   6.373  1.00  0.00     0.001 A 
HETATM   16  C   UNL     1      43.512 -18.572   7.225  1.00  0.00     0.001 A 
HETATM   17  C   UNL     1      44.033 -19.751   6.696  1.00  0.00     0.018 A 
HETATM   18  C   UNL     1      44.787 -21.111   4.758  1.00  0.00     0.272 A 
HETATM   19  O   UNL     1      45.122 -22.043   5.481  1.00  0.00    -0.266 OA
HETATM   20  N   UNL     1      44.949 -21.145   3.394  1.00  0.00    -0.242 N 
HETATM   21  N   UNL     1      44.551 -20.184   2.518  1.00  0.00    -0.166 NA
HETATM   22  H   UNL     1      45.350 -21.991   2.998  1.00  0.00     0.192 HD
ENDBRANCH   8  11
ENDBRANCH   1   7
BRANCH   3  23
HETATM   23  C   UNL     1      39.088 -14.531   1.275  1.00  0.00     0.139 C 
BRANCH  23  24
HETATM   24  C   UNL     1      39.650 -13.164   1.733  1.00  0.00     0.079 C 
BRANCH  24  25
HETATM   25  C   UNL     1      40.163 -13.163   3.158  1.00  0.00    -0.020 A 
HETATM   26  C   UNL     1      41.507 -13.469   3.573  1.00  0.00    -0.001 A 
HETATM   27  C   UNL     1      41.556 -13.358   4.963  1.00  0.00     0.042 A 
HETATM   28  C   UNL     1      42.689 -13.832   2.893  1.00  0.00     0.014 A 
HETATM   29  C   UNL     1      42.720 -13.590   5.705  1.00  0.00     0.030 A 
HETATM   30  N   UNL     1      40.299 -12.998   5.384  1.00  0.00    -0.365 N 
HETATM   31  C   UNL     1      43.875 -13.947   5.005  1.00  0.00     0.002 A 
HETATM   32  C   UNL     1      43.863 -14.067   3.619  1.00  0.00     0.001 A 
HETATM   33  H   UNL     1      40.042 -12.845   6.349  1.00  0.00     0.165 HD
HETATM   34  C   UNL     1      39.457 -12.879   4.313  1.00  0.00     0.097 A 
ENDBRANCH  24  25
BRANCH  24  35
HETATM   35  C   UNL     1      38.749 -11.970   1.430  1.00  0.00    -0.007 A 
HETATM   36  S   UNL     1      39.320 -10.350   1.408  1.00  0.00    -0.106 SA
HETATM   37  C   UNL     1      37.780  -9.732   1.007  1.00  0.00     0.050 A 
HETATM   38  C   UNL     1      36.840 -10.728   0.886  1.00  0.00     0.008 A 
HETATM   39  C   UNL     1      37.398 -12.015   1.125  1.00  0.00     0.016 A 
ENDBRANCH  24  35
ENDBRANCH  23  24
ENDBRANCH   3  23
TORSDOF 6
ENDMDL
MODEL 8
REMARK VINA RESULT:      -9.4      5.390      9.562
REMARK  6 active torsions:
REMARK  status: ('A' for Active; 'I' for Inactive)
REMARK    1  A    between atoms: C_9  and  C_10 
REMARK       I    between atoms: C_10  and  N_11 
REMARK    2  A    between atoms: N_11  and  N_12 
REMARK       I    between atoms: N_12  and  C_13 
REMARK       I    between atoms: C_13  and  N_14 
REMARK    3  A    between atoms: N_14  and  C_15 
REMARK    4  A    between atoms: C_15  and  C_16 
REMARK    5  A    between atoms: C_16  and  C_17 
REMARK    6  A    between atoms: C_16  and  C_27 
ROOT
HETATM    1  N   UNL     1      41.233 -14.241   1.467  1.00  0.00    -0.249 N 
HETATM    2  C   UNL     1      41.968 -15.389   1.277  1.00  0.00     0.334 C 
HETATM    3  N   UNL     1      42.961 -15.510   2.216  1.00  0.00    -0.341 N 
HETATM    4  O   UNL     1      41.765 -16.186   0.369  1.00  0.00    -0.246 OA
HETATM    5  H   UNL     1      41.189 -13.819   2.388  1.00  0.00     0.192 HD
HETATM    6  H   UNL     1      43.318 -14.631   2.567  1.00  0.00     0.164 HD
ENDROOT
BRANCH   1   7
HETATM    7  N   UNL     1      40.141 -13.995   0.623  1.00  0.00    -0.261 N 
HETATM    8  C   UNL     1      40.268 -12.978  -0.303  1.00  0.00     0.291 C 
HETATM    9  O   UNL     1      41.149 -12.132  -0.276  1.00  0.00    -0.264 OA
HETATM   10  H   UNL     1      39.540 -14.794   0.403  1.00  0.00     0.190 HD
BRANCH   8  11
HETATM   11  C   UNL     1      39.212 -13.030  -1.415  1.00  0.00     0.157 A 
HETATM   12  C   UNL     1      39.177 -14.132  -2.405  1.00  0.00     0.016 A 
HETATM   13  C   UNL     1      40.136 -15.148  -2.493  1.00  0.00     0.015 A 
HETATM   14  C   UNL     1      38.106 -14.140  -3.301  1.00  0.00     0.046 A 
HETATM   15  C   UNL     1      39.999 -16.171  -3.438  1.00  0.00     0.001 A 
HETATM   16  C   UNL     1      38.912 -16.186  -4.308  1.00  0.00     0.001 A 
HETATM   17  C   UNL     1      37.966 -15.165  -4.247  1.00  0.00     0.018 A 
HETATM   18  C   UNL     1      37.125 -13.043  -3.266  1.00  0.00     0.272 A 
HETATM   19  O   UNL     1      36.171 -13.009  -4.035  1.00  0.00    -0.266 OA
HETATM   20  N   UNL     1      37.352 -12.060  -2.333  1.00  0.00    -0.242 N 
HETATM   21  N   UNL     1      38.347 -12.052  -1.406  1.00  0.00    -0.166 NA
HETATM   22  H   UNL     1      36.681 -11.297  -2.293  1.00  0.00     0.192 HD
ENDBRANCH   8  11
ENDBRANCH   1   7
BRANCH   3  23
HETATM   23  C   UNL     1      43.929 -16.593   2.129  1.00  0.00     0.139 C 
BRANCH  23  24
HETATM   24  C   UNL     1      43.916 -17.595   3.308  1.00  0.00     0.079 C 
BRANCH  24  25
HETATM   25  C   UNL     1      43.935 -19.045   2.873  1.00  0.00    -0.020 A 
HETATM   26  C   UNL     1      44.288 -20.170   3.698  1.00  0.00    -0.001 A 
HETATM   27  C   UNL     1      44.180 -21.320   2.915  1.00  0.00     0.042 A 
HETATM   28  C   UNL     1      44.690 -20.318   5.043  1.00  0.00     0.014 A 
HETATM   29  C   UNL     1      44.454 -22.603   3.403  1.00  0.00     0.030 A 
HETATM   30  N   UNL     1      43.777 -20.920   1.664  1.00  0.00    -0.365 N 
HETATM   31  C   UNL     1      44.849 -22.719   4.738  1.00  0.00     0.002 A 
HETATM   32  C   UNL     1      44.966 -21.594   5.549  1.00  0.00     0.001 A 
HETATM   33  H   UNL     1      43.618 -21.547   0.887  1.00  0.00     0.165 HD
HETATM   34  C   UNL     1      43.628 -19.562   1.626  1.00  0.00     0.097 A 
ENDBRANCH  24  25
BRANCH  24  35
HETATM   35  C   UNL     1      42.860 -17.313   4.373  1.00  0.00    -0.007 A 
HETATM   36  S   UNL     1      43.166 -16.345   5.759  1.00  0.00    -0.106 SA
HETATM   37  C   UNL     1      41.573 -16.540   6.342  1.00  0.00     0.050 A 
HETATM   38  C   UNL     1      40.810 -17.321   5.506  1.00  0.00     0.008 A 
HETATM   39  C   UNL     1      41.549 -17.763   4.372  1.00  0.00     0.016 A 
ENDBRANCH  24  35
ENDBRANCH  23  24
ENDBRANCH   3  23
TORSDOF 6
ENDMDL
MODEL 9
REMARK VINA RESULT:      -9.3      5.637      9.243
REMARK  6 active torsions:
REMARK  status: ('A' for Active; 'I' for Inactive)
REMARK    1  A    between atoms: C_9  and  C_10 
REMARK       I    between atoms: C_10  and  N_11 
REMARK    2  A    between atoms: N_11  and  N_12 
REMARK       I    between atoms: N_12  and  C_13 
REMARK       I    between atoms: C_13  and  N_14 
REMARK    3  A    between atoms: N_14  and  C_15 
REMARK    4  A    between atoms: C_15  and  C_16 
REMARK    5  A    between atoms: C_16  and  C_17 
REMARK    6  A    between atoms: C_16  and  C_27 
ROOT
HETATM    1  N   UNL     1      39.926 -15.101   0.388  1.00  0.00    -0.249 N 
HETATM    2  C   UNL     1      40.833 -16.126   0.529  1.00  0.00     0.334 C 
HETATM    3  N   UNL     1      40.708 -16.743   1.749  1.00  0.00    -0.341 N 
HETATM    4  O   UNL     1      41.658 -16.428  -0.324  1.00  0.00    -0.246 OA
HETATM    5  H   UNL     1      39.065 -15.114   0.925  1.00  0.00     0.192 HD
HETATM    6  H   UNL     1      40.373 -16.144   2.491  1.00  0.00     0.164 HD
ENDROOT
BRANCH   1   7
HETATM    7  N   UNL     1      39.884 -14.402  -0.826  1.00  0.00    -0.261 N 
HETATM    8  C   UNL     1      39.453 -13.091  -0.792  1.00  0.00     0.291 C 
HETATM    9  O   UNL     1      38.881 -12.581   0.160  1.00  0.00    -0.264 OA
HETATM   10  H   UNL     1      40.559 -14.684  -1.543  1.00  0.00     0.190 HD
BRANCH   8  11
HETATM   11  C   UNL     1      39.800 -12.300  -2.061  1.00  0.00     0.157 A 
HETATM   12  C   UNL     1      40.986 -11.413  -2.126  1.00  0.00     0.016 A 
HETATM   13  C   UNL     1      41.822 -11.128  -1.040  1.00  0.00     0.015 A 
HETATM   14  C   UNL     1      41.270 -10.833  -3.363  1.00  0.00     0.046 A 
HETATM   15  C   UNL     1      42.943 -10.307  -1.206  1.00  0.00     0.001 A 
HETATM   16  C   UNL     1      43.234  -9.756  -2.451  1.00  0.00     0.001 A 
HETATM   17  C   UNL     1      42.394 -10.012  -3.532  1.00  0.00     0.018 A 
HETATM   18  C   UNL     1      40.365 -11.069  -4.499  1.00  0.00     0.272 A 
HETATM   19  O   UNL     1      40.576 -10.578  -5.603  1.00  0.00    -0.266 OA
HETATM   20  N   UNL     1      39.269 -11.857  -4.244  1.00  0.00    -0.242 N 
HETATM   21  N   UNL     1      38.993 -12.488  -3.071  1.00  0.00    -0.166 NA
HETATM   22  H   UNL     1      38.635 -12.033  -5.019  1.00  0.00     0.192 HD
ENDBRANCH   8  11
ENDBRANCH   1   7
BRANCH   3  23
HETATM   23  C   UNL     1      41.648 -17.778   2.151  1.00  0.00     0.139 C 
BRANCH  23  24
HETATM   24  C   UNL     1      42.959 -17.273   2.798  1.00  0.00     0.079 C 
BRANCH  24  25
HETATM   25  C   UNL     1      43.682 -18.327   3.610  1.00  0.00    -0.020 A 
HETATM   26  C   UNL     1      43.896 -19.695   3.219  1.00  0.00    -0.001 A 
HETATM   27  C   UNL     1      44.596 -20.325   4.249  1.00  0.00     0.042 A 
HETATM   28  C   UNL     1      43.558 -20.459   2.081  1.00  0.00     0.014 A 
HETATM   29  C   UNL     1      44.972 -21.673   4.202  1.00  0.00     0.030 A 
HETATM   30  N   UNL     1      44.805 -19.386   5.229  1.00  0.00    -0.365 N 
HETATM   31  C   UNL     1      44.625 -22.404   3.063  1.00  0.00     0.002 A 
HETATM   32  C   UNL     1      43.928 -21.808   2.016  1.00  0.00     0.001 A 
HETATM   33  H   UNL     1      45.290 -19.564   6.097  1.00  0.00     0.165 HD
HETATM   34  C   UNL     1      44.262 -18.186   4.859  1.00  0.00     0.097 A 
ENDBRANCH  24  25
BRANCH  24  35
HETATM   35  C   UNL     1      42.835 -15.943   3.536  1.00  0.00    -0.007 A 
HETATM   36  S   UNL     1      41.854 -15.737   4.931  1.00  0.00    -0.106 SA
HETATM   37  C   UNL     1      42.286 -14.092   5.086  1.00  0.00     0.050 A 
HETATM   38  C   UNL     1      43.162 -13.694   4.103  1.00  0.00     0.008 A 
HETATM   39  C   UNL     1      43.481 -14.759   3.214  1.00  0.00     0.016 A 
ENDBRANCH  24  35
ENDBRANCH  23  24
ENDBRANCH   3  23
TORSDOF 6
ENDMDL
MODEL 10
REMARK VINA RESULT:      -9.2      6.104     10.154
REMARK  6 active torsions:
REMARK  status: ('A' for Active; 'I' for Inactive)
REMARK    1  A    between atoms: C_9  and  C_10 
REMARK       I    between atoms: C_10  and  N_11 
REMARK    2  A    between atoms: N_11  and  N_12 
REMARK       I    between atoms: N_12  and  C_13 
REMARK       I    between atoms: C_13  and  N_14 
REMARK    3  A    between atoms: N_14  and  C_15 
REMARK    4  A    between atoms: C_15  and  C_16 
REMARK    5  A    between atoms: C_16  and  C_17 
REMARK    6  A    between atoms: C_16  and  C_27 
ROOT
HETATM    1  N   UNL     1      40.126 -16.317   1.045  1.00  0.00    -0.249 N 
HETATM    2  C   UNL     1      39.463 -15.237   1.582  1.00  0.00     0.334 C 
HETATM    3  N   UNL     1      38.747 -14.562   0.625  1.00  0.00    -0.341 N 
HETATM    4  O   UNL     1      39.528 -14.915   2.762  1.00  0.00    -0.246 OA
HETATM    5  H   UNL     1      39.779 -16.749   0.196  1.00  0.00     0.192 HD
HETATM    6  H   UNL     1      39.136 -14.614  -0.306  1.00  0.00     0.164 HD
ENDROOT
BRANCH   1   7
HETATM    7  N   UNL     1      40.862 -17.147   1.902  1.00  0.00    -0.261 N 
HETATM    8  C   UNL     1      42.235 -17.160   1.752  1.00  0.00     0.291 C 
HETATM    9  O   UNL     1      42.824 -16.700   0.785  1.00  0.00    -0.264 OA
HETATM   10  H   UNL     1      40.462 -17.323   2.828  1.00  0.00     0.190 HD
BRANCH   8  11
HETATM   11  C   UNL     1      42.974 -17.774   2.949  1.00  0.00     0.157 A 
HETATM   12  C   UNL     1      43.479 -19.167   2.922  1.00  0.00     0.016 A 
HETATM   13  C   UNL     1      43.247 -20.073   1.880  1.00  0.00     0.015 A 
HETATM   14  C   UNL     1      44.237 -19.583   4.018  1.00  0.00     0.046 A 
HETATM   15  C   UNL     1      43.797 -21.359   1.925  1.00  0.00     0.001 A 
HETATM   16  C   UNL     1      44.575 -21.755   3.010  1.00  0.00     0.001 A 
HETATM   17  C   UNL     1      44.791 -20.870   4.063  1.00  0.00     0.018 A 
HETATM   18  C   UNL     1      44.436 -18.665   5.151  1.00  0.00     0.272 A 
HETATM   19  O   UNL     1      45.092 -18.990   6.134  1.00  0.00    -0.266 OA
HETATM   20  N   UNL     1      43.832 -17.436   5.045  1.00  0.00    -0.242 N 
HETATM   21  N   UNL     1      43.141 -16.975   3.968  1.00  0.00    -0.166 NA
HETATM   22  H   UNL     1      43.963 -16.788   5.818  1.00  0.00     0.192 HD
ENDBRANCH   8  11
ENDBRANCH   1   7
BRANCH   3  23
HETATM   23  C   UNL     1      38.065 -13.320   0.955  1.00  0.00     0.139 C 
BRANCH  23  24
HETATM   24  C   UNL     1      37.863 -12.338  -0.223  1.00  0.00     0.079 C 
BRANCH  24  25
HETATM   25  C   UNL     1      38.592 -12.745  -1.486  1.00  0.00    -0.020 A 
HETATM   26  C   UNL     1      40.012 -12.664  -1.707  1.00  0.00    -0.001 A 
HETATM   27  C   UNL     1      40.267 -13.132  -2.996  1.00  0.00     0.042 A 
HETATM   28  C   UNL     1      41.107 -12.235  -0.926  1.00  0.00     0.014 A 
HETATM   29  C   UNL     1      41.554 -13.192  -3.544  1.00  0.00     0.030 A 
HETATM   30  N   UNL     1      39.059 -13.487  -3.544  1.00  0.00    -0.365 N 
HETATM   31  C   UNL     1      42.619 -12.761  -2.748  1.00  0.00     0.002 A 
HETATM   32  C   UNL     1      42.401 -12.289  -1.457  1.00  0.00     0.001 A 
HETATM   33  H   UNL     1      38.941 -13.861  -4.476  1.00  0.00     0.165 HD
HETATM   34  C   UNL     1      38.049 -13.259  -2.651  1.00  0.00     0.097 A 
ENDBRANCH  24  25
BRANCH  24  35
HETATM   35  C   UNL     1      38.072 -10.867   0.129  1.00  0.00    -0.007 A 
HETATM   36  S   UNL     1      38.635 -10.346   1.666  1.00  0.00    -0.106 SA
HETATM   37  C   UNL     1      38.587  -8.701   1.210  1.00  0.00     0.050 A 
HETATM   38  C   UNL     1      38.157  -8.537  -0.086  1.00  0.00     0.008 A 
HETATM   39  C   UNL     1      37.864  -9.783  -0.709  1.00  0.00     0.016 A 
ENDBRANCH  24  35
ENDBRANCH  23  24
ENDBRANCH   3  23
TORSDOF 6
ENDMDL
