MODEL 1
REMARK VINA RESULT:      -7.8      0.000      0.000
REMARK  5 active torsions:
REMARK  status: ('A' for Active; 'I' for Inactive)
REMARK    1  A    between atoms: N_1  and  C_5 
REMARK    2  A    between atoms: C_5  and  C_6 
REMARK    3  A    between atoms: C_6  and  C_7 
REMARK    4  A    between atoms: C_6  and  C_20 
REMARK       I    between atoms: C_7  and  N_9 
REMARK    5  A    between atoms: N_9  and  C_10 
ROOT
HETATM    1  C   UNL     1      43.433 -17.104   2.193  1.00  0.00     0.232 C 
HETATM    2  O   UNL     1      44.437 -17.023   1.485  1.00  0.00    -0.272 OA
HETATM    3  N   UNL     1      42.254 -16.407   2.035  1.00  0.00    -0.327 N 
HETATM    4  H   UNL     1      41.616 -16.374   2.826  1.00  0.00     0.169 HD
ENDROOT
BRANCH   1   5
HETATM    5  C   UNL     1      43.459 -18.010   3.421  1.00  0.00     0.136 C 
BRANCH   5   6
HETATM    6  C   UNL     1      42.112 -17.901   4.167  1.00  0.00     0.248 C 
BRANCH   6   7
HETATM    7  N   UNL     1      42.285 -17.624   5.624  1.00  0.00    -0.078 N 
HETATM    8  H   UNL     1      41.347 -17.464   6.042  1.00  0.00     0.274 HD
HETATM    9  H   UNL     1      42.723 -18.408   6.124  1.00  0.00     0.274 HD
HETATM   10  H   UNL     1      42.841 -16.779   5.797  1.00  0.00     0.274 HD
ENDBRANCH   6   7
ENDBRANCH   5   6
BRANCH   5  11
HETATM   11  C   UNL     1      43.802 -19.462   3.128  1.00  0.00    -0.043 A 
HETATM   12  C   UNL     1      44.538 -20.188   4.081  1.00  0.00     0.008 A 
HETATM   13  C   UNL     1      44.847 -21.531   3.869  1.00  0.00     0.001 A 
HETATM   14  C   UNL     1      44.428 -22.169   2.706  1.00  0.00     0.000 A 
HETATM   15  C   UNL     1      43.698 -21.463   1.752  1.00  0.00     0.001 A 
HETATM   16  C   UNL     1      43.383 -20.119   1.959  1.00  0.00     0.008 A 
ENDBRANCH   5  11
ENDBRANCH   1   5
BRANCH   3  17
HETATM   17  C   UNL     1      41.887 -15.607   0.930  1.00  0.00     0.035 A 
HETATM   18  C   UNL     1      41.890 -14.221   1.114  1.00  0.00     0.030 A 
HETATM   19  C   UNL     1      41.516 -13.365   0.073  1.00  0.00     0.016 A 
HETATM   20  C   UNL     1      41.109 -13.888  -1.163  1.00  0.00    -0.008 A 
HETATM   21  C   UNL     1      40.707 -13.083  -2.233  1.00  0.00     0.128 A 
HETATM   22  C   UNL     1      41.086 -15.283  -1.356  1.00  0.00    -0.021 A 
HETATM   23  N   UNL     1      40.291 -13.555  -3.430  1.00  0.00    -0.272 NA
HETATM   24  C   UNL     1      40.270 -14.894  -3.579  1.00  0.00     0.117 A 
HETATM   25  C   UNL     1      40.654 -15.786  -2.589  1.00  0.00     0.031 A 
HETATM   26  C   UNL     1      41.486 -16.130  -0.303  1.00  0.00     0.042 A 
ENDBRANCH   3  17
TORSDOF 5
ENDMDL
MODEL 2
REMARK VINA RESULT:      -7.7      3.677      7.498
REMARK  5 active torsions:
REMARK  status: ('A' for Active; 'I' for Inactive)
REMARK    1  A    between atoms: N_1  and  C_5 
REMARK    2  A    between atoms: C_5  and  C_6 
REMARK    3  A    between atoms: C_6  and  C_7 
REMARK    4  A    between atoms: C_6  and  C_20 
REMARK       I    between atoms: C_7  and  N_9 
REMARK    5  A    between atoms: N_9  and  C_10 
ROOT
HETATM    1  C   UNL     1      42.598 -16.200   5.792  1.00  0.00     0.232 C 
HETATM    2  O   UNL     1      41.894 -16.865   6.554  1.00  0.00    -0.272 OA
HETATM    3  N   UNL     1      43.572 -16.678   4.941  1.00  0.00    -0.327 N 
HETATM    4  H   UNL     1      44.244 -16.010   4.571  1.00  0.00     0.169 HD
ENDROOT
BRANCH   1   5
HETATM    5  C   UNL     1      42.464 -14.680   5.793  1.00  0.00     0.136 C 
BRANCH   5   6
HETATM    6  C   UNL     1      43.825 -14.046   6.153  1.00  0.00     0.248 C 
BRANCH   6   7
HETATM    7  N   UNL     1      44.160 -14.197   7.600  1.00  0.00    -0.078 N 
HETATM    8  H   UNL     1      45.193 -14.262   7.694  1.00  0.00     0.274 HD
HETATM    9  H   UNL     1      43.843 -13.397   8.163  1.00  0.00     0.274 HD
HETATM   10  H   UNL     1      43.766 -15.054   8.005  1.00  0.00     0.274 HD
ENDBRANCH   6   7
ENDBRANCH   5   6
BRANCH   5  11
HETATM   11  C   UNL     1      41.917 -14.094   4.501  1.00  0.00    -0.043 A 
HETATM   12  C   UNL     1      40.537 -14.187   4.249  1.00  0.00     0.008 A 
HETATM   13  C   UNL     1      39.985 -13.635   3.093  1.00  0.00     0.001 A 
HETATM   14  C   UNL     1      40.801 -12.984   2.173  1.00  0.00     0.000 A 
HETATM   15  C   UNL     1      42.171 -12.884   2.408  1.00  0.00     0.001 A 
HETATM   16  C   UNL     1      42.728 -13.432   3.565  1.00  0.00     0.008 A 
ENDBRANCH   5  11
ENDBRANCH   1   5
BRANCH   3  17
HETATM   17  C   UNL     1      43.830 -18.030   4.627  1.00  0.00     0.035 A 
HETATM   18  C   UNL     1      44.419 -18.818   5.620  1.00  0.00     0.030 A 
HETATM   19  C   UNL     1      44.725 -20.160   5.375  1.00  0.00     0.016 A 
HETATM   20  C   UNL     1      44.469 -20.728   4.118  1.00  0.00    -0.008 A 
HETATM   21  C   UNL     1      44.770 -22.057   3.809  1.00  0.00     0.128 A 
HETATM   22  C   UNL     1      43.891 -19.941   3.103  1.00  0.00    -0.021 A 
HETATM   23  N   UNL     1      44.554 -22.630   2.604  1.00  0.00    -0.272 NA
HETATM   24  C   UNL     1      44.010 -21.847   1.650  1.00  0.00     0.117 A 
HETATM   25  C   UNL     1      43.664 -20.520   1.848  1.00  0.00     0.031 A 
HETATM   26  C   UNL     1      43.569 -18.596   3.374  1.00  0.00     0.042 A 
ENDBRANCH   3  17
TORSDOF 5
ENDMDL
MODEL 3
REMARK VINA RESULT:      -7.6      3.014      3.628
REMARK  5 active torsions:
REMARK  status: ('A' for Active; 'I' for Inactive)
REMARK    1  A    between atoms: N_1  and  C_5 
REMARK    2  A    between atoms: C_5  and  C_6 
REMARK    3  A    between atoms: C_6  and  C_7 
REMARK    4  A    between atoms: C_6  and  C_20 
REMARK       I    between atoms: C_7  and  N_9 
REMARK    5  A    between atoms: N_9  and  C_10 
ROOT
HETATM    1  C   UNL     1      42.981 -17.918   4.479  1.00  0.00     0.232 C 
HETATM    2  O   UNL     1      42.038 -18.258   5.195  1.00  0.00    -0.272 OA
HETATM    3  N   UNL     1      42.935 -17.037   3.418  1.00  0.00    -0.327 N 
HETATM    4  H   UNL     1      43.713 -17.049   2.763  1.00  0.00     0.169 HD
ENDROOT
BRANCH   1   5
HETATM    5  C   UNL     1      44.352 -18.549   4.705  1.00  0.00     0.136 C 
BRANCH   5   6
HETATM    6  C   UNL     1      44.736 -18.417   6.195  1.00  0.00     0.248 C 
BRANCH   6   7
HETATM    7  N   UNL     1      44.422 -17.066   6.749  1.00  0.00    -0.078 N 
HETATM    8  H   UNL     1      43.785 -16.579   6.087  1.00  0.00     0.274 HD
HETATM    9  H   UNL     1      43.949 -17.115   7.660  1.00  0.00     0.274 HD
HETATM   10  H   UNL     1      45.259 -16.481   6.849  1.00  0.00     0.274 HD
ENDBRANCH   6   7
ENDBRANCH   5   6
BRANCH   5  11
HETATM   11  C   UNL     1      44.468 -19.992   4.240  1.00  0.00    -0.043 A 
HETATM   12  C   UNL     1      44.732 -20.989   5.194  1.00  0.00     0.008 A 
HETATM   13  C   UNL     1      44.814 -22.330   4.819  1.00  0.00     0.001 A 
HETATM   14  C   UNL     1      44.635 -22.693   3.488  1.00  0.00     0.000 A 
HETATM   15  C   UNL     1      44.374 -21.716   2.530  1.00  0.00     0.001 A 
HETATM   16  C   UNL     1      44.288 -20.373   2.900  1.00  0.00     0.008 A 
ENDBRANCH   5  11
ENDBRANCH   1   5
BRANCH   3  17
HETATM   17  C   UNL     1      41.853 -16.206   3.056  1.00  0.00     0.035 A 
HETATM   18  C   UNL     1      40.884 -16.749   2.207  1.00  0.00     0.030 A 
HETATM   19  C   UNL     1      39.795 -15.979   1.786  1.00  0.00     0.016 A 
HETATM   20  C   UNL     1      39.674 -14.642   2.192  1.00  0.00    -0.008 A 
HETATM   21  C   UNL     1      38.619 -13.818   1.789  1.00  0.00     0.128 A 
HETATM   22  C   UNL     1      40.652 -14.078   3.034  1.00  0.00    -0.021 A 
HETATM   23  N   UNL     1      38.482 -12.521   2.145  1.00  0.00    -0.272 NA
HETATM   24  C   UNL     1      39.440 -12.008   2.943  1.00  0.00     0.117 A 
HETATM   25  C   UNL     1      40.525 -12.734   3.409  1.00  0.00     0.031 A 
HETATM   26  C   UNL     1      41.732 -14.874   3.465  1.00  0.00     0.042 A 
ENDBRANCH   3  17
TORSDOF 5
ENDMDL
MODEL 4
REMARK VINA RESULT:      -7.6      1.588      1.904
REMARK  5 active torsions:
REMARK  status: ('A' for Active; 'I' for Inactive)
REMARK    1  A    between atoms: N_1  and  C_5 
REMARK    2  A    between atoms: C_5  and  C_6 
REMARK    3  A    between atoms: C_6  and  C_7 
REMARK    4  A    between atoms: C_6  and  C_20 
REMARK       I    between atoms: C_7  and  N_9 
REMARK    5  A    between atoms: N_9  and  C_10 
ROOT
HETATM    1  C   UNL     1      43.254 -17.760   3.735  1.00  0.00     0.232 C 
HETATM    2  O   UNL     1      42.070 -17.959   4.015  1.00  0.00    -0.272 OA
HETATM    3  N   UNL     1      43.739 -16.914   2.760  1.00  0.00    -0.327 N 
HETATM    4  H   UNL     1      44.703 -17.040   2.464  1.00  0.00     0.169 HD
ENDROOT
BRANCH   1   5
HETATM    5  C   UNL     1      44.335 -18.546   4.471  1.00  0.00     0.136 C 
BRANCH   5   6
HETATM    6  C   UNL     1      44.109 -18.423   5.994  1.00  0.00     0.248 C 
BRANCH   6   7
HETATM    7  N   UNL     1      45.276 -17.810   6.696  1.00  0.00    -0.078 N 
HETATM    8  H   UNL     1      45.192 -18.015   7.712  1.00  0.00     0.274 HD
HETATM    9  H   UNL     1      46.174 -18.190   6.372  1.00  0.00     0.274 HD
HETATM   10  H   UNL     1      45.300 -16.789   6.594  1.00  0.00     0.274 HD
ENDBRANCH   6   7
ENDBRANCH   5   6
BRANCH   5  11
HETATM   11  C   UNL     1      44.449 -20.004   4.055  1.00  0.00    -0.043 A 
HETATM   12  C   UNL     1      44.754 -20.964   5.035  1.00  0.00     0.008 A 
HETATM   13  C   UNL     1      44.837 -22.316   4.706  1.00  0.00     0.001 A 
HETATM   14  C   UNL     1      44.617 -22.730   3.396  1.00  0.00     0.000 A 
HETATM   15  C   UNL     1      44.315 -21.791   2.412  1.00  0.00     0.001 A 
HETATM   16  C   UNL     1      44.228 -20.436   2.736  1.00  0.00     0.008 A 
ENDBRANCH   5  11
ENDBRANCH   1   5
BRANCH   3  17
HETATM   17  C   UNL     1      42.999 -15.968   2.017  1.00  0.00     0.035 A 
HETATM   18  C   UNL     1      42.822 -14.703   2.586  1.00  0.00     0.030 A 
HETATM   19  C   UNL     1      42.081 -13.722   1.920  1.00  0.00     0.016 A 
HETATM   20  C   UNL     1      41.484 -14.002   0.682  1.00  0.00    -0.008 A 
HETATM   21  C   UNL     1      40.717 -13.068  -0.021  1.00  0.00     0.128 A 
HETATM   22  C   UNL     1      41.640 -15.277   0.106  1.00  0.00    -0.021 A 
HETATM   23  N   UNL     1      40.112 -13.311  -1.204  1.00  0.00    -0.272 NA
HETATM   24  C   UNL     1      40.272 -14.544  -1.725  1.00  0.00     0.117 A 
HETATM   25  C   UNL     1      41.017 -15.545  -1.119  1.00  0.00     0.031 A 
HETATM   26  C   UNL     1      42.408 -16.248   0.780  1.00  0.00     0.042 A 
ENDBRANCH   3  17
TORSDOF 5
ENDMDL
MODEL 5
REMARK VINA RESULT:      -7.5      1.970      7.382
REMARK  5 active torsions:
REMARK  status: ('A' for Active; 'I' for Inactive)
REMARK    1  A    between atoms: N_1  and  C_5 
REMARK    2  A    between atoms: C_5  and  C_6 
REMARK    3  A    between atoms: C_6  and  C_7 
REMARK    4  A    between atoms: C_6  and  C_20 
REMARK       I    between atoms: C_7  and  N_9 
REMARK    5  A    between atoms: N_9  and  C_10 
ROOT
HETATM    1  C   UNL     1      41.085 -15.693   1.558  1.00  0.00     0.232 C 
HETATM    2  O   UNL     1      40.108 -16.358   1.909  1.00  0.00    -0.272 OA
HETATM    3  N   UNL     1      42.407 -15.952   1.856  1.00  0.00    -0.327 N 
HETATM    4  H   UNL     1      43.074 -15.195   1.729  1.00  0.00     0.169 HD
ENDROOT
BRANCH   1   5
HETATM    5  C   UNL     1      40.865 -14.410   0.763  1.00  0.00     0.136 C 
BRANCH   5   6
HETATM    6  C   UNL     1      42.118 -13.515   0.879  1.00  0.00     0.248 C 
BRANCH   6   7
HETATM    7  N   UNL     1      41.945 -12.417   1.876  1.00  0.00    -0.078 N 
HETATM    8  H   UNL     1      42.469 -12.669   2.737  1.00  0.00     0.274 HD
HETATM    9  H   UNL     1      42.311 -11.518   1.538  1.00  0.00     0.274 HD
HETATM   10  H   UNL     1      40.963 -12.286   2.146  1.00  0.00     0.274 HD
ENDBRANCH   6   7
ENDBRANCH   5   6
BRANCH   5  11
HETATM   11  C   UNL     1      40.486 -14.627  -0.694  1.00  0.00    -0.043 A 
HETATM   12  C   UNL     1      39.489 -13.813  -1.260  1.00  0.00     0.008 A 
HETATM   13  C   UNL     1      39.132 -13.954  -2.601  1.00  0.00     0.001 A 
HETATM   14  C   UNL     1      39.762 -14.907  -3.394  1.00  0.00     0.000 A 
HETATM   15  C   UNL     1      40.751 -15.722  -2.848  1.00  0.00     0.001 A 
HETATM   16  C   UNL     1      41.115 -15.584  -1.507  1.00  0.00     0.008 A 
ENDBRANCH   5  11
ENDBRANCH   1   5
BRANCH   3  17
HETATM   17  C   UNL     1      42.926 -17.121   2.453  1.00  0.00     0.035 A 
HETATM   18  C   UNL     1      43.426 -17.009   3.754  1.00  0.00     0.030 A 
HETATM   19  C   UNL     1      43.977 -18.118   4.402  1.00  0.00     0.016 A 
HETATM   20  C   UNL     1      44.058 -19.355   3.745  1.00  0.00    -0.008 A 
HETATM   21  C   UNL     1      44.615 -20.494   4.335  1.00  0.00     0.128 A 
HETATM   22  C   UNL     1      43.573 -19.478   2.429  1.00  0.00    -0.021 A 
HETATM   23  N   UNL     1      44.726 -21.694   3.724  1.00  0.00    -0.272 NA
HETATM   24  C   UNL     1      44.262 -21.777   2.462  1.00  0.00     0.117 A 
HETATM   25  C   UNL     1      43.683 -20.715   1.782  1.00  0.00     0.031 A 
HETATM   26  C   UNL     1      43.001 -18.355   1.798  1.00  0.00     0.042 A 
ENDBRANCH   3  17
TORSDOF 5
ENDMDL
MODEL 6
REMARK VINA RESULT:      -7.5      3.902      5.088
REMARK  5 active torsions:
REMARK  status: ('A' for Active; 'I' for Inactive)
REMARK    1  A    between atoms: N_1  and  C_5 
REMARK    2  A    between atoms: C_5  and  C_6 
REMARK    3  A    between atoms: C_6  and  C_7 
REMARK    4  A    between atoms: C_6  and  C_20 
REMARK       I    between atoms: C_7  and  N_9 
REMARK    5  A    between atoms: N_9  and  C_10 
ROOT
HETATM    1  C   UNL     1      42.995 -17.548   4.826  1.00  0.00     0.232 C 
HETATM    2  O   UNL     1      42.047 -18.097   5.391  1.00  0.00    -0.272 OA
HETATM    3  N   UNL     1      43.002 -16.287   4.266  1.00  0.00    -0.327 N 
HETATM    4  H   UNL     1      43.751 -16.066   3.615  1.00  0.00     0.169 HD
ENDROOT
BRANCH   1   5
HETATM    5  C   UNL     1      44.301 -18.316   4.647  1.00  0.00     0.136 C 
BRANCH   5   6
HETATM    6  C   UNL     1      44.895 -18.645   6.034  1.00  0.00     0.248 C 
BRANCH   6   7
HETATM    7  N   UNL     1      44.520 -17.638   7.070  1.00  0.00    -0.078 N 
HETATM    8  H   UNL     1      44.620 -16.689   6.657  1.00  0.00     0.274 HD
HETATM    9  H   UNL     1      43.548 -17.742   7.387  1.00  0.00     0.274 HD
HETATM   10  H   UNL     1      45.135 -17.676   7.892  1.00  0.00     0.274 HD
ENDBRANCH   6   7
ENDBRANCH   5   6
BRANCH   5  11
HETATM   11  C   UNL     1      44.184 -19.569   3.794  1.00  0.00    -0.043 A 
HETATM   12  C   UNL     1      43.565 -19.474   2.536  1.00  0.00     0.008 A 
HETATM   13  C   UNL     1      43.465 -20.590   1.705  1.00  0.00     0.001 A 
HETATM   14  C   UNL     1      43.980 -21.815   2.118  1.00  0.00     0.000 A 
HETATM   15  C   UNL     1      44.596 -21.926   3.362  1.00  0.00     0.001 A 
HETATM   16  C   UNL     1      44.701 -20.812   4.197  1.00  0.00     0.008 A 
ENDBRANCH   5  11
ENDBRANCH   1   5
BRANCH   3  17
HETATM   17  C   UNL     1      41.998 -15.302   4.390  1.00  0.00     0.035 A 
HETATM   18  C   UNL     1      40.929 -15.359   3.491  1.00  0.00     0.030 A 
HETATM   19  C   UNL     1      39.909 -14.404   3.537  1.00  0.00     0.016 A 
HETATM   20  C   UNL     1      39.959 -13.359   4.472  1.00  0.00    -0.008 A 
HETATM   21  C   UNL     1      38.979 -12.365   4.553  1.00  0.00     0.128 A 
HETATM   22  C   UNL     1      41.038 -13.280   5.372  1.00  0.00    -0.021 A 
HETATM   23  N   UNL     1      39.006 -11.335   5.427  1.00  0.00    -0.272 NA
HETATM   24  C   UNL     1      40.057 -11.281   6.269  1.00  0.00     0.117 A 
HETATM   25  C   UNL     1      41.081 -12.216   6.282  1.00  0.00     0.031 A 
HETATM   26  C   UNL     1      42.047 -14.263   5.326  1.00  0.00     0.042 A 
ENDBRANCH   3  17
TORSDOF 5
ENDMDL
MODEL 7
REMARK VINA RESULT:      -7.4      2.369      7.819
REMARK  5 active torsions:
REMARK  status: ('A' for Active; 'I' for Inactive)
REMARK    1  A    between atoms: N_1  and  C_5 
REMARK    2  A    between atoms: C_5  and  C_6 
REMARK    3  A    between atoms: C_6  and  C_7 
REMARK    4  A    between atoms: C_6  and  C_20 
REMARK       I    between atoms: C_7  and  N_9 
REMARK    5  A    between atoms: N_9  and  C_10 
ROOT
HETATM    1  C   UNL     1      41.235 -15.974   1.343  1.00  0.00     0.232 C 
HETATM    2  O   UNL     1      40.246 -16.550   1.800  1.00  0.00    -0.272 OA
HETATM    3  N   UNL     1      42.556 -16.272   1.603  1.00  0.00    -0.327 N 
HETATM    4  H   UNL     1      43.251 -15.567   1.374  1.00  0.00     0.169 HD
ENDROOT
BRANCH   1   5
HETATM    5  C   UNL     1      41.037 -14.761   0.438  1.00  0.00     0.136 C 
BRANCH   5   6
HETATM    6  C   UNL     1      41.029 -15.220  -1.036  1.00  0.00     0.248 C 
BRANCH   6   7
HETATM    7  N   UNL     1      41.910 -14.380  -1.901  1.00  0.00    -0.078 N 
HETATM    8  H   UNL     1      42.000 -14.843  -2.827  1.00  0.00     0.274 HD
HETATM    9  H   UNL     1      41.527 -13.438  -2.056  1.00  0.00     0.274 HD
HETATM   10  H   UNL     1      42.858 -14.285  -1.517  1.00  0.00     0.274 HD
ENDBRANCH   6   7
ENDBRANCH   5   6
BRANCH   5  11
HETATM   11  C   UNL     1      39.803 -13.931   0.756  1.00  0.00    -0.043 A 
HETATM   12  C   UNL     1      39.844 -13.056   1.855  1.00  0.00     0.008 A 
HETATM   13  C   UNL     1      38.748 -12.251   2.165  1.00  0.00     0.001 A 
HETATM   14  C   UNL     1      37.598 -12.307   1.384  1.00  0.00     0.000 A 
HETATM   15  C   UNL     1      37.542 -13.170   0.291  1.00  0.00     0.001 A 
HETATM   16  C   UNL     1      38.637 -13.976  -0.025  1.00  0.00     0.008 A 
ENDBRANCH   5  11
ENDBRANCH   1   5
BRANCH   3  17
HETATM   17  C   UNL     1      43.048 -17.406   2.286  1.00  0.00     0.035 A 
HETATM   18  C   UNL     1      43.514 -17.216   3.591  1.00  0.00     0.030 A 
HETATM   19  C   UNL     1      44.037 -18.287   4.322  1.00  0.00     0.016 A 
HETATM   20  C   UNL     1      44.124 -19.563   3.746  1.00  0.00    -0.008 A 
HETATM   21  C   UNL     1      44.655 -20.667   4.420  1.00  0.00     0.128 A 
HETATM   22  C   UNL     1      43.673 -19.764   2.427  1.00  0.00    -0.021 A 
HETATM   23  N   UNL     1      44.771 -21.904   3.889  1.00  0.00    -0.272 NA
HETATM   24  C   UNL     1      44.340 -22.062   2.622  1.00  0.00     0.117 A 
HETATM   25  C   UNL     1      43.790 -21.040   1.862  1.00  0.00     0.031 A 
HETATM   26  C   UNL     1      43.130 -18.679   1.712  1.00  0.00     0.042 A 
ENDBRANCH   3  17
TORSDOF 5
ENDMDL
MODEL 8
REMARK VINA RESULT:      -7.3      2.048      7.602
REMARK  5 active torsions:
REMARK  status: ('A' for Active; 'I' for Inactive)
REMARK    1  A    between atoms: N_1  and  C_5 
REMARK    2  A    between atoms: C_5  and  C_6 
REMARK    3  A    between atoms: C_6  and  C_7 
REMARK    4  A    between atoms: C_6  and  C_20 
REMARK       I    between atoms: C_7  and  N_9 
REMARK    5  A    between atoms: N_9  and  C_10 
ROOT
HETATM    1  C   UNL     1      40.984 -15.528   1.317  1.00  0.00     0.232 C 
HETATM    2  O   UNL     1      40.054 -16.213   1.746  1.00  0.00    -0.272 OA
HETATM    3  N   UNL     1      42.330 -15.738   1.532  1.00  0.00    -0.327 N 
HETATM    4  H   UNL     1      42.963 -14.964   1.346  1.00  0.00     0.169 HD
ENDROOT
BRANCH   1   5
HETATM    5  C   UNL     1      40.671 -14.272   0.509  1.00  0.00     0.136 C 
BRANCH   5   6
HETATM    6  C   UNL     1      41.880 -13.312   0.567  1.00  0.00     0.248 C 
BRANCH   6   7
HETATM    7  N   UNL     1      41.724 -12.259   1.614  1.00  0.00    -0.078 N 
HETATM    8  H   UNL     1      41.484 -12.722   2.513  1.00  0.00     0.274 HD
HETATM    9  H   UNL     1      42.586 -11.718   1.758  1.00  0.00     0.274 HD
HETATM   10  H   UNL     1      40.963 -11.604   1.398  1.00  0.00     0.274 HD
ENDBRANCH   6   7
ENDBRANCH   5   6
BRANCH   5  11
HETATM   11  C   UNL     1      40.253 -14.533  -0.929  1.00  0.00    -0.043 A 
HETATM   12  C   UNL     1      41.024 -15.415  -1.706  1.00  0.00     0.008 A 
HETATM   13  C   UNL     1      40.660 -15.711  -3.019  1.00  0.00     0.001 A 
HETATM   14  C   UNL     1      39.524 -15.132  -3.576  1.00  0.00     0.000 A 
HETATM   15  C   UNL     1      38.750 -14.255  -2.819  1.00  0.00     0.001 A 
HETATM   16  C   UNL     1      39.107 -13.957  -1.503  1.00  0.00     0.008 A 
ENDBRANCH   5  11
ENDBRANCH   1   5
BRANCH   3  17
HETATM   17  C   UNL     1      42.924 -16.875   2.120  1.00  0.00     0.035 A 
HETATM   18  C   UNL     1      43.347 -17.894   1.260  1.00  0.00     0.030 A 
HETATM   19  C   UNL     1      43.923 -19.061   1.770  1.00  0.00     0.016 A 
HETATM   20  C   UNL     1      44.063 -19.237   3.155  1.00  0.00    -0.008 A 
HETATM   21  C   UNL     1      44.614 -20.389   3.724  1.00  0.00     0.128 A 
HETATM   22  C   UNL     1      43.626 -18.225   4.033  1.00  0.00    -0.021 A 
HETATM   23  N   UNL     1      44.745 -20.597   5.053  1.00  0.00    -0.272 NA
HETATM   24  C   UNL     1      44.309 -19.616   5.866  1.00  0.00     0.117 A 
HETATM   25  C   UNL     1      43.754 -18.429   5.413  1.00  0.00     0.031 A 
HETATM   26  C   UNL     1      43.067 -17.046   3.501  1.00  0.00     0.042 A 
ENDBRANCH   3  17
TORSDOF 5
ENDMDL
MODEL 9
REMARK VINA RESULT:      -7.3      1.922      2.295
REMARK  5 active torsions:
REMARK  status: ('A' for Active; 'I' for Inactive)
REMARK    1  A    between atoms: N_1  and  C_5 
REMARK    2  A    between atoms: C_5  and  C_6 
REMARK    3  A    between atoms: C_6  and  C_7 
REMARK    4  A    between atoms: C_6  and  C_20 
REMARK       I    between atoms: C_7  and  N_9 
REMARK    5  A    between atoms: N_9  and  C_10 
ROOT
HETATM    1  C   UNL     1      42.486 -16.562   3.257  1.00  0.00     0.232 C 
HETATM    2  O   UNL     1      43.322 -15.697   2.991  1.00  0.00    -0.272 OA
HETATM    3  N   UNL     1      41.193 -16.633   2.782  1.00  0.00    -0.327 N 
HETATM    4  H   UNL     1      40.542 -17.237   3.277  1.00  0.00     0.169 HD
ENDROOT
BRANCH   1   5
HETATM    5  C   UNL     1      42.842 -17.658   4.257  1.00  0.00     0.136 C 
BRANCH   5   6
HETATM    6  C   UNL     1      41.600 -17.997   5.109  1.00  0.00     0.248 C 
BRANCH   6   7
HETATM    7  N   UNL     1      41.453 -17.095   6.290  1.00  0.00    -0.078 N 
HETATM    8  H   UNL     1      42.325 -16.538   6.389  1.00  0.00     0.274 HD
HETATM    9  H   UNL     1      40.670 -16.437   6.188  1.00  0.00     0.274 HD
HETATM   10  H   UNL     1      41.327 -17.616   7.166  1.00  0.00     0.274 HD
ENDBRANCH   6   7
ENDBRANCH   5   6
BRANCH   5  11
HETATM   11  C   UNL     1      43.433 -18.913   3.635  1.00  0.00    -0.043 A 
HETATM   12  C   UNL     1      44.340 -19.678   4.390  1.00  0.00     0.008 A 
HETATM   13  C   UNL     1      44.882 -20.854   3.872  1.00  0.00     0.001 A 
HETATM   14  C   UNL     1      44.529 -21.283   2.597  1.00  0.00     0.000 A 
HETATM   15  C   UNL     1      43.632 -20.536   1.836  1.00  0.00     0.001 A 
HETATM   16  C   UNL     1      43.084 -19.359   2.349  1.00  0.00     0.008 A 
ENDBRANCH   5  11
ENDBRANCH   1   5
BRANCH   3  17
HETATM   17  C   UNL     1      40.626 -15.849   1.754  1.00  0.00     0.035 A 
HETATM   18  C   UNL     1      41.281 -15.841   0.518  1.00  0.00     0.030 A 
HETATM   19  C   UNL     1      40.793 -15.070  -0.541  1.00  0.00     0.016 A 
HETATM   20  C   UNL     1      39.651 -14.273  -0.369  1.00  0.00    -0.008 A 
HETATM   21  C   UNL     1      39.127 -13.467  -1.385  1.00  0.00     0.128 A 
HETATM   22  C   UNL     1      38.991 -14.259   0.875  1.00  0.00    -0.021 A 
HETATM   23  N   UNL     1      38.042 -12.673  -1.247  1.00  0.00    -0.272 NA
HETATM   24  C   UNL     1      37.439 -12.674  -0.042  1.00  0.00     0.117 A 
HETATM   25  C   UNL     1      37.867 -13.439   1.033  1.00  0.00     0.031 A 
HETATM   26  C   UNL     1      39.485 -15.058   1.925  1.00  0.00     0.042 A 
ENDBRANCH   3  17
TORSDOF 5
ENDMDL
MODEL 10
REMARK VINA RESULT:      -7.2      3.381      4.780
REMARK  5 active torsions:
REMARK  status: ('A' for Active; 'I' for Inactive)
REMARK    1  A    between atoms: N_1  and  C_5 
REMARK    2  A    between atoms: C_5  and  C_6 
REMARK    3  A    between atoms: C_6  and  C_7 
REMARK    4  A    between atoms: C_6  and  C_20 
REMARK       I    between atoms: C_7  and  N_9 
REMARK    5  A    between atoms: N_9  and  C_10 
ROOT
HETATM    1  C   UNL     1      42.444 -16.564   3.034  1.00  0.00     0.232 C 
HETATM    2  O   UNL     1      43.412 -15.812   3.162  1.00  0.00    -0.272 OA
HETATM    3  N   UNL     1      41.154 -16.327   3.459  1.00  0.00    -0.327 N 
HETATM    4  H   UNL     1      40.526 -17.124   3.524  1.00  0.00     0.169 HD
ENDROOT
BRANCH   1   5
HETATM    5  C   UNL     1      42.649 -17.938   2.402  1.00  0.00     0.136 C 
BRANCH   5   6
HETATM    6  C   UNL     1      43.295 -17.768   1.009  1.00  0.00     0.248 C 
BRANCH   6   7
HETATM    7  N   UNL     1      42.711 -16.627   0.244  1.00  0.00    -0.078 N 
HETATM    8  H   UNL     1      42.281 -15.964   0.919  1.00  0.00     0.274 HD
HETATM    9  H   UNL     1      43.419 -16.112  -0.295  1.00  0.00     0.274 HD
HETATM   10  H   UNL     1      41.969 -16.927  -0.400  1.00  0.00     0.274 HD
ENDBRANCH   6   7
ENDBRANCH   5   6
BRANCH   5  11
HETATM   11  C   UNL     1      43.444 -18.914   3.254  1.00  0.00    -0.043 A 
HETATM   12  C   UNL     1      43.377 -18.797   4.654  1.00  0.00     0.008 A 
HETATM   13  C   UNL     1      44.063 -19.690   5.476  1.00  0.00     0.001 A 
HETATM   14  C   UNL     1      44.825 -20.711   4.916  1.00  0.00     0.000 A 
HETATM   15  C   UNL     1      44.902 -20.839   3.531  1.00  0.00     0.001 A 
HETATM   16  C   UNL     1      44.215 -19.950   2.702  1.00  0.00     0.008 A 
ENDBRANCH   5  11
ENDBRANCH   1   5
BRANCH   3  17
HETATM   17  C   UNL     1      40.636 -15.109   3.950  1.00  0.00     0.035 A 
HETATM   18  C   UNL     1      40.678 -14.906   5.333  1.00  0.00     0.030 A 
HETATM   19  C   UNL     1      40.163 -13.734   5.896  1.00  0.00     0.016 A 
HETATM   20  C   UNL     1      39.575 -12.756   5.081  1.00  0.00    -0.008 A 
HETATM   21  C   UNL     1      39.027 -11.573   5.588  1.00  0.00     0.128 A 
HETATM   22  C   UNL     1      39.512 -12.954   3.688  1.00  0.00    -0.021 A 
HETATM   23  N   UNL     1      38.437 -10.620   4.834  1.00  0.00    -0.272 NA
HETATM   24  C   UNL     1      38.383 -10.844   3.506  1.00  0.00     0.117 A 
HETATM   25  C   UNL     1      38.901 -11.976   2.894  1.00  0.00     0.031 A 
HETATM   26  C   UNL     1      40.054 -14.132   3.136  1.00  0.00     0.042 A 
ENDBRANCH   3  17
TORSDOF 5
ENDMDL
