MODEL 1
REMARK VINA RESULT:      -8.6      0.000      0.000
REMARK  7 active torsions:
REMARK  status: ('A' for Active; 'I' for Inactive)
REMARK    1  A    between atoms: O_2  and  C_3 
REMARK    2  A    between atoms: C_5  and  C_6 
REMARK    3  A    between atoms: C_6  and  C_7 
REMARK       I    between atoms: C_7  and  N_8 
REMARK    4  A    between atoms: N_8  and  C_9 
REMARK    5  A    between atoms: C_9  and  C_10 
REMARK    6  A    between atoms: C_13  and  N_14 
REMARK       I    between atoms: N_14  and  C_15 
REMARK    7  A    between atoms: C_15  and  C_16 
ROOT
HETATM    1  C   UNL     1      42.332 -15.504   3.496  1.00  0.00    -0.040 A 
HETATM    2  C   UNL     1      42.118 -16.101   4.743  1.00  0.00     0.011 A 
HETATM    3  C   UNL     1      42.576 -15.490   5.917  1.00  0.00     0.030 A 
HETATM    4  C   UNL     1      43.247 -14.268   5.864  1.00  0.00     0.035 A 
HETATM    5  C   UNL     1      43.478 -13.678   4.617  1.00  0.00     0.030 A 
HETATM    6  C   UNL     1      43.025 -14.288   3.443  1.00  0.00     0.011 A 
ENDROOT
BRANCH   1   7
HETATM    7  C   UNL     1      41.783 -16.121   2.238  1.00  0.00     0.161 C 
BRANCH   7   8
HETATM    8  N   UNL     1      42.197 -17.502   2.136  1.00  0.00    -0.357 N 
HETATM    9  C   UNL     1      43.464 -17.829   1.707  1.00  0.00     0.222 C 
HETATM   10  O   UNL     1      44.286 -16.992   1.347  1.00  0.00    -0.273 OA
HETATM   11  H   UNL     1      41.671 -18.191   2.658  1.00  0.00     0.162 HD
BRANCH   9  12
HETATM   12  C   UNL     1      43.751 -19.319   1.698  1.00  0.00     0.141 C 
BRANCH  12  13
HETATM   13  C   UNL     1      44.086 -19.952   3.029  1.00  0.00    -0.047 A 
HETATM   14  C   UNL     1      44.095 -19.250   4.244  1.00  0.00     0.044 A 
HETATM   15  C   UNL     1      44.417 -19.888   5.449  1.00  0.00     0.068 A 
HETATM   16  C   UNL     1      44.740 -21.245   5.443  1.00  0.00     0.037 A 
HETATM   17  C   UNL     1      44.739 -21.956   4.243  1.00  0.00     0.003 A 
HETATM   18  C   UNL     1      44.413 -21.316   3.047  1.00  0.00     0.007 A 
BRANCH  15  19
HETATM   19  O   UNL     1      44.378 -19.079   6.552  1.00  0.00    -0.356 OA
HETATM   20  C   UNL     1      43.831 -19.638   7.740  1.00  0.00     0.210 C 
ENDBRANCH  15  19
ENDBRANCH  12  13
ENDBRANCH   9  12
ENDBRANCH   7   8
ENDBRANCH   1   7
BRANCH   4  21
HETATM   21  N   UNL     1      43.687 -13.561   6.998  1.00  0.00    -0.321 N 
HETATM   22  C   UNL     1      44.985 -13.328   7.417  1.00  0.00     0.279 C 
HETATM   23  O   UNL     1      46.000 -13.643   6.806  1.00  0.00    -0.265 OA
HETATM   24  H   UNL     1      42.974 -13.202   7.623  1.00  0.00     0.169 HD
BRANCH  22  25
HETATM   25  C   UNL     1      45.040 -12.655   8.705  1.00  0.00     0.142 A 
HETATM   26  O   UNL     1      44.351 -13.181   9.771  1.00  0.00    -0.317 OA
HETATM   27  C   UNL     1      44.597 -12.377  10.839  1.00  0.00     0.143 A 
HETATM   28  C   UNL     1      45.426 -11.340  10.483  1.00  0.00     0.027 A 
HETATM   29  C   UNL     1      45.711 -11.516   9.108  1.00  0.00     0.045 A 
ENDBRANCH  22  25
ENDBRANCH   4  21
TORSDOF 7
ENDMDL
MODEL 2
REMARK VINA RESULT:      -8.1      1.308      1.515
REMARK  7 active torsions:
REMARK  status: ('A' for Active; 'I' for Inactive)
REMARK    1  A    between atoms: O_2  and  C_3 
REMARK    2  A    between atoms: C_5  and  C_6 
REMARK    3  A    between atoms: C_6  and  C_7 
REMARK       I    between atoms: C_7  and  N_8 
REMARK    4  A    between atoms: N_8  and  C_9 
REMARK    5  A    between atoms: C_9  and  C_10 
REMARK    6  A    between atoms: C_13  and  N_14 
REMARK       I    between atoms: N_14  and  C_15 
REMARK    7  A    between atoms: C_15  and  C_16 
ROOT
HETATM    1  C   UNL     1      41.256 -14.717   3.601  1.00  0.00    -0.040 A 
HETATM    2  C   UNL     1      40.971 -15.202   4.882  1.00  0.00     0.011 A 
HETATM    3  C   UNL     1      41.628 -14.684   6.005  1.00  0.00     0.030 A 
HETATM    4  C   UNL     1      42.573 -13.668   5.867  1.00  0.00     0.035 A 
HETATM    5  C   UNL     1      42.872 -13.193   4.585  1.00  0.00     0.030 A 
HETATM    6  C   UNL     1      42.220 -13.712   3.462  1.00  0.00     0.011 A 
ENDROOT
BRANCH   1   7
HETATM    7  C   UNL     1      40.504 -15.221   2.398  1.00  0.00     0.161 C 
BRANCH   7   8
HETATM    8  N   UNL     1      40.751 -16.632   2.208  1.00  0.00    -0.357 N 
HETATM    9  C   UNL     1      41.890 -17.070   1.569  1.00  0.00     0.222 C 
HETATM   10  O   UNL     1      42.724 -16.308   1.088  1.00  0.00    -0.273 OA
HETATM   11  H   UNL     1      40.250 -17.282   2.801  1.00  0.00     0.162 HD
BRANCH   9  12
HETATM   12  C   UNL     1      42.016 -18.580   1.491  1.00  0.00     0.141 C 
BRANCH  12  13
HETATM   13  C   UNL     1      43.043 -19.221   2.397  1.00  0.00    -0.047 A 
HETATM   14  C   UNL     1      43.419 -18.694   3.642  1.00  0.00     0.044 A 
HETATM   15  C   UNL     1      44.380 -19.330   4.440  1.00  0.00     0.068 A 
HETATM   16  C   UNL     1      44.978 -20.505   3.988  1.00  0.00     0.037 A 
HETATM   17  C   UNL     1      44.618 -21.040   2.751  1.00  0.00     0.003 A 
HETATM   18  C   UNL     1      43.658 -20.405   1.964  1.00  0.00     0.007 A 
BRANCH  15  19
HETATM   19  O   UNL     1      44.639 -18.704   5.629  1.00  0.00    -0.356 OA
HETATM   20  C   UNL     1      44.099 -17.399   5.800  1.00  0.00     0.210 C 
ENDBRANCH  15  19
ENDBRANCH  12  13
ENDBRANCH   9  12
ENDBRANCH   7   8
ENDBRANCH   1   7
BRANCH   4  21
HETATM   21  N   UNL     1      43.234 -13.054   6.946  1.00  0.00    -0.321 N 
HETATM   22  C   UNL     1      44.470 -13.361   7.486  1.00  0.00     0.279 C 
HETATM   23  O   UNL     1      45.253 -14.196   7.047  1.00  0.00    -0.265 OA
HETATM   24  H   UNL     1      42.738 -12.313   7.430  1.00  0.00     0.169 HD
BRANCH  22  25
HETATM   25  C   UNL     1      44.766 -12.579   8.675  1.00  0.00     0.142 A 
HETATM   26  O   UNL     1      45.632 -11.517   8.587  1.00  0.00    -0.317 OA
HETATM   27  C   UNL     1      45.704 -10.957   9.823  1.00  0.00     0.143 A 
HETATM   28  C   UNL     1      44.905 -11.639  10.710  1.00  0.00     0.027 A 
HETATM   29  C   UNL     1      44.302 -12.685   9.973  1.00  0.00     0.045 A 
ENDBRANCH  22  25
ENDBRANCH   4  21
TORSDOF 7
ENDMDL
MODEL 3
REMARK VINA RESULT:      -7.9      3.440      7.256
REMARK  7 active torsions:
REMARK  status: ('A' for Active; 'I' for Inactive)
REMARK    1  A    between atoms: O_2  and  C_3 
REMARK    2  A    between atoms: C_5  and  C_6 
REMARK    3  A    between atoms: C_6  and  C_7 
REMARK       I    between atoms: C_7  and  N_8 
REMARK    4  A    between atoms: N_8  and  C_9 
REMARK    5  A    between atoms: C_9  and  C_10 
REMARK    6  A    between atoms: C_13  and  N_14 
REMARK       I    between atoms: N_14  and  C_15 
REMARK    7  A    between atoms: C_15  and  C_16 
ROOT
HETATM    1  C   UNL     1      41.014 -16.030   4.846  1.00  0.00    -0.040 A 
HETATM    2  C   UNL     1      40.479 -14.750   4.659  1.00  0.00     0.011 A 
HETATM    3  C   UNL     1      40.025 -14.341   3.399  1.00  0.00     0.030 A 
HETATM    4  C   UNL     1      40.090 -15.208   2.308  1.00  0.00     0.035 A 
HETATM    5  C   UNL     1      40.640 -16.481   2.488  1.00  0.00     0.030 A 
HETATM    6  C   UNL     1      41.097 -16.891   3.744  1.00  0.00     0.011 A 
ENDROOT
BRANCH   1   7
HETATM    7  C   UNL     1      41.439 -16.499   6.211  1.00  0.00     0.161 C 
BRANCH   7   8
HETATM    8  N   UNL     1      42.374 -17.594   6.096  1.00  0.00    -0.357 N 
HETATM    9  C   UNL     1      43.725 -17.392   6.277  1.00  0.00     0.222 C 
HETATM   10  O   UNL     1      44.213 -16.287   6.494  1.00  0.00    -0.273 OA
HETATM   11  H   UNL     1      42.011 -18.535   6.184  1.00  0.00     0.162 HD
BRANCH   9  12
HETATM   12  C   UNL     1      44.562 -18.651   6.164  1.00  0.00     0.141 C 
BRANCH  12  13
HETATM   13  C   UNL     1      44.464 -19.416   4.863  1.00  0.00    -0.047 A 
HETATM   14  C   UNL     1      44.123 -18.824   3.637  1.00  0.00     0.044 A 
HETATM   15  C   UNL     1      44.043 -19.583   2.462  1.00  0.00     0.068 A 
HETATM   16  C   UNL     1      44.301 -20.952   2.510  1.00  0.00     0.037 A 
HETATM   17  C   UNL     1      44.637 -21.556   3.721  1.00  0.00     0.003 A 
HETATM   18  C   UNL     1      44.720 -20.795   4.887  1.00  0.00     0.007 A 
BRANCH  15  19
HETATM   19  O   UNL     1      43.707 -18.870   1.344  1.00  0.00    -0.356 OA
HETATM   20  C   UNL     1      44.067 -17.494   1.327  1.00  0.00     0.210 C 
ENDBRANCH  15  19
ENDBRANCH  12  13
ENDBRANCH   9  12
ENDBRANCH   7   8
ENDBRANCH   1   7
BRANCH   4  21
HETATM   21  N   UNL     1      39.604 -14.897   1.025  1.00  0.00    -0.321 N 
HETATM   22  C   UNL     1      40.307 -14.436  -0.074  1.00  0.00     0.279 C 
HETATM   23  O   UNL     1      41.523 -14.293  -0.135  1.00  0.00    -0.265 OA
HETATM   24  H   UNL     1      38.603 -14.977   0.878  1.00  0.00     0.169 HD
BRANCH  22  25
HETATM   25  C   UNL     1      39.438 -14.115  -1.194  1.00  0.00     0.142 A 
HETATM   26  O   UNL     1      39.935 -14.172  -2.473  1.00  0.00    -0.317 OA
HETATM   27  C   UNL     1      38.914 -13.854  -3.312  1.00  0.00     0.143 A 
HETATM   28  C   UNL     1      37.769 -13.588  -2.601  1.00  0.00     0.027 A 
HETATM   29  C   UNL     1      38.104 -13.753  -1.236  1.00  0.00     0.045 A 
ENDBRANCH  22  25
ENDBRANCH   4  21
TORSDOF 7
ENDMDL
MODEL 4
REMARK VINA RESULT:      -7.8      2.336      8.424
REMARK  7 active torsions:
REMARK  status: ('A' for Active; 'I' for Inactive)
REMARK    1  A    between atoms: O_2  and  C_3 
REMARK    2  A    between atoms: C_5  and  C_6 
REMARK    3  A    between atoms: C_6  and  C_7 
REMARK       I    between atoms: C_7  and  N_8 
REMARK    4  A    between atoms: N_8  and  C_9 
REMARK    5  A    between atoms: C_9  and  C_10 
REMARK    6  A    between atoms: C_13  and  N_14 
REMARK       I    between atoms: N_14  and  C_15 
REMARK    7  A    between atoms: C_15  and  C_16 
ROOT
HETATM    1  C   UNL     1      41.058 -13.225   5.516  1.00  0.00    -0.040 A 
HETATM    2  C   UNL     1      42.377 -13.271   5.052  1.00  0.00     0.011 A 
HETATM    3  C   UNL     1      42.953 -14.483   4.651  1.00  0.00     0.030 A 
HETATM    4  C   UNL     1      42.216 -15.666   4.698  1.00  0.00     0.035 A 
HETATM    5  C   UNL     1      40.903 -15.626   5.178  1.00  0.00     0.030 A 
HETATM    6  C   UNL     1      40.327 -14.417   5.583  1.00  0.00     0.011 A 
ENDROOT
BRANCH   1   7
HETATM    7  C   UNL     1      40.413 -11.916   5.883  1.00  0.00     0.161 C 
BRANCH   7   8
HETATM    8  N   UNL     1      40.722 -11.571   7.252  1.00  0.00    -0.357 N 
HETATM    9  C   UNL     1      41.445 -10.437   7.549  1.00  0.00     0.222 C 
HETATM   10  O   UNL     1      41.903  -9.690   6.689  1.00  0.00    -0.273 OA
HETATM   11  H   UNL     1      40.158 -11.989   7.981  1.00  0.00     0.162 HD
BRANCH   9  12
HETATM   12  C   UNL     1      41.645 -10.199   9.033  1.00  0.00     0.141 C 
BRANCH  12  13
HETATM   13  C   UNL     1      42.952 -10.675   9.625  1.00  0.00    -0.047 A 
HETATM   14  C   UNL     1      43.800 -11.599   8.996  1.00  0.00     0.044 A 
HETATM   15  C   UNL     1      45.000 -12.008   9.594  1.00  0.00     0.068 A 
HETATM   16  C   UNL     1      45.357 -11.492  10.839  1.00  0.00     0.037 A 
HETATM   17  C   UNL     1      44.524 -10.574  11.479  1.00  0.00     0.003 A 
HETATM   18  C   UNL     1      43.333 -10.168  10.877  1.00  0.00     0.007 A 
BRANCH  15  19
HETATM   19  O   UNL     1      45.725 -12.907   8.861  1.00  0.00    -0.356 OA
HETATM   20  C   UNL     1      45.143 -13.366   7.647  1.00  0.00     0.210 C 
ENDBRANCH  15  19
ENDBRANCH  12  13
ENDBRANCH   9  12
ENDBRANCH   7   8
ENDBRANCH   1   7
BRANCH   4  21
HETATM   21  N   UNL     1      42.699 -16.913   4.260  1.00  0.00    -0.321 N 
HETATM   22  C   UNL     1      43.693 -17.696   4.820  1.00  0.00     0.279 C 
HETATM   23  O   UNL     1      44.282 -17.461   5.869  1.00  0.00    -0.265 OA
HETATM   24  H   UNL     1      42.307 -17.284   3.401  1.00  0.00     0.169 HD
BRANCH  22  25
HETATM   25  C   UNL     1      43.995 -18.868   4.014  1.00  0.00     0.142 A 
HETATM   26  O   UNL     1      44.785 -19.862   4.538  1.00  0.00    -0.317 OA
HETATM   27  C   UNL     1      44.881 -20.834   3.593  1.00  0.00     0.143 A 
HETATM   28  C   UNL     1      44.173 -20.486   2.467  1.00  0.00     0.027 A 
HETATM   29  C   UNL     1      43.604 -19.218   2.736  1.00  0.00     0.045 A 
ENDBRANCH  22  25
ENDBRANCH   4  21
TORSDOF 7
ENDMDL
MODEL 5
REMARK VINA RESULT:      -7.8      2.025      2.931
REMARK  7 active torsions:
REMARK  status: ('A' for Active; 'I' for Inactive)
REMARK    1  A    between atoms: O_2  and  C_3 
REMARK    2  A    between atoms: C_5  and  C_6 
REMARK    3  A    between atoms: C_6  and  C_7 
REMARK       I    between atoms: C_7  and  N_8 
REMARK    4  A    between atoms: N_8  and  C_9 
REMARK    5  A    between atoms: C_9  and  C_10 
REMARK    6  A    between atoms: C_13  and  N_14 
REMARK       I    between atoms: N_14  and  C_15 
REMARK    7  A    between atoms: C_15  and  C_16 
ROOT
HETATM    1  C   UNL     1      40.195 -14.105   3.626  1.00  0.00    -0.040 A 
HETATM    2  C   UNL     1      40.784 -12.842   3.495  1.00  0.00     0.011 A 
HETATM    3  C   UNL     1      41.554 -12.301   4.531  1.00  0.00     0.030 A 
HETATM    4  C   UNL     1      41.756 -13.017   5.712  1.00  0.00     0.035 A 
HETATM    5  C   UNL     1      41.154 -14.272   5.852  1.00  0.00     0.030 A 
HETATM    6  C   UNL     1      40.381 -14.812   4.820  1.00  0.00     0.011 A 
ENDROOT
BRANCH   1   7
HETATM    7  C   UNL     1      39.424 -14.720   2.489  1.00  0.00     0.161 C 
BRANCH   7   8
HETATM    8  N   UNL     1      39.865 -16.077   2.262  1.00  0.00    -0.357 N 
HETATM    9  C   UNL     1      40.936 -16.343   1.437  1.00  0.00     0.222 C 
HETATM   10  O   UNL     1      41.539 -15.469   0.820  1.00  0.00    -0.273 OA
HETATM   11  H   UNL     1      39.586 -16.782   2.932  1.00  0.00     0.162 HD
BRANCH   9  12
HETATM   12  C   UNL     1      41.296 -17.813   1.340  1.00  0.00     0.141 C 
BRANCH  12  13
HETATM   13  C   UNL     1      42.355 -18.316   2.295  1.00  0.00    -0.047 A 
HETATM   14  C   UNL     1      43.106 -19.481   2.079  1.00  0.00     0.044 A 
HETATM   15  C   UNL     1      44.074 -19.902   3.002  1.00  0.00     0.068 A 
HETATM   16  C   UNL     1      44.291 -19.153   4.158  1.00  0.00     0.037 A 
HETATM   17  C   UNL     1      43.550 -17.994   4.388  1.00  0.00     0.003 A 
HETATM   18  C   UNL     1      42.592 -17.578   3.465  1.00  0.00     0.007 A 
BRANCH  15  19
HETATM   19  O   UNL     1      44.731 -21.050   2.655  1.00  0.00    -0.356 OA
HETATM   20  C   UNL     1      44.135 -21.853   1.644  1.00  0.00     0.210 C 
ENDBRANCH  15  19
ENDBRANCH  12  13
ENDBRANCH   9  12
ENDBRANCH   7   8
ENDBRANCH   1   7
BRANCH   4  21
HETATM   21  N   UNL     1      42.562 -12.571   6.775  1.00  0.00    -0.321 N 
HETATM   22  C   UNL     1      43.761 -13.094   7.225  1.00  0.00     0.279 C 
HETATM   23  O   UNL     1      44.379 -14.015   6.702  1.00  0.00    -0.265 OA
HETATM   24  H   UNL     1      42.215 -11.789   7.321  1.00  0.00     0.169 HD
BRANCH  22  25
HETATM   25  C   UNL     1      44.240 -12.431   8.427  1.00  0.00     0.142 A 
HETATM   26  O   UNL     1      45.392 -12.873   9.029  1.00  0.00    -0.317 OA
HETATM   27  C   UNL     1      45.616 -12.068  10.101  1.00  0.00     0.143 A 
HETATM   28  C   UNL     1      44.628 -11.118  10.207  1.00  0.00     0.027 A 
HETATM   29  C   UNL     1      43.739 -11.351   9.131  1.00  0.00     0.045 A 
ENDBRANCH  22  25
ENDBRANCH   4  21
TORSDOF 7
ENDMDL
MODEL 6
REMARK VINA RESULT:      -7.7      3.396      6.388
REMARK  7 active torsions:
REMARK  status: ('A' for Active; 'I' for Inactive)
REMARK    1  A    between atoms: O_2  and  C_3 
REMARK    2  A    between atoms: C_5  and  C_6 
REMARK    3  A    between atoms: C_6  and  C_7 
REMARK       I    between atoms: C_7  and  N_8 
REMARK    4  A    between atoms: N_8  and  C_9 
REMARK    5  A    between atoms: C_9  and  C_10 
REMARK    6  A    between atoms: C_13  and  N_14 
REMARK       I    between atoms: N_14  and  C_15 
REMARK    7  A    between atoms: C_15  and  C_16 
ROOT
HETATM    1  C   UNL     1      42.800 -15.232   5.840  1.00  0.00    -0.040 A 
HETATM    2  C   UNL     1      43.187 -14.417   4.771  1.00  0.00     0.011 A 
HETATM    3  C   UNL     1      42.233 -13.872   3.904  1.00  0.00     0.030 A 
HETATM    4  C   UNL     1      40.874 -14.127   4.096  1.00  0.00     0.035 A 
HETATM    5  C   UNL     1      40.486 -14.956   5.153  1.00  0.00     0.030 A 
HETATM    6  C   UNL     1      41.438 -15.504   6.019  1.00  0.00     0.011 A 
ENDROOT
BRANCH   1   7
HETATM    7  C   UNL     1      43.815 -15.763   6.816  1.00  0.00     0.161 C 
BRANCH   7   8
HETATM    8  N   UNL     1      44.491 -16.913   6.259  1.00  0.00    -0.357 N 
HETATM    9  C   UNL     1      44.039 -18.189   6.513  1.00  0.00     0.222 C 
HETATM   10  O   UNL     1      43.086 -18.428   7.249  1.00  0.00    -0.273 OA
HETATM   11  H   UNL     1      45.092 -16.764   5.459  1.00  0.00     0.162 HD
BRANCH   9  12
HETATM   12  C   UNL     1      44.834 -19.279   5.820  1.00  0.00     0.141 C 
BRANCH  12  13
HETATM   13  C   UNL     1      44.370 -19.681   4.438  1.00  0.00    -0.047 A 
HETATM   14  C   UNL     1      43.516 -18.898   3.646  1.00  0.00     0.044 A 
HETATM   15  C   UNL     1      43.115 -19.322   2.372  1.00  0.00     0.068 A 
HETATM   16  C   UNL     1      43.567 -20.547   1.883  1.00  0.00     0.037 A 
HETATM   17  C   UNL     1      44.414 -21.339   2.659  1.00  0.00     0.003 A 
HETATM   18  C   UNL     1      44.813 -20.909   3.924  1.00  0.00     0.007 A 
BRANCH  15  19
HETATM   19  O   UNL     1      42.289 -18.453   1.715  1.00  0.00    -0.356 OA
HETATM   20  C   UNL     1      41.783 -17.355   2.465  1.00  0.00     0.210 C 
ENDBRANCH  15  19
ENDBRANCH  12  13
ENDBRANCH   9  12
ENDBRANCH   7   8
ENDBRANCH   1   7
BRANCH   4  21
HETATM   21  N   UNL     1      39.850 -13.574   3.307  1.00  0.00    -0.321 N 
HETATM   22  C   UNL     1      39.162 -14.156   2.256  1.00  0.00     0.279 C 
HETATM   23  O   UNL     1      39.284 -15.316   1.879  1.00  0.00    -0.265 OA
HETATM   24  H   UNL     1      39.594 -12.609   3.491  1.00  0.00     0.169 HD
BRANCH  22  25
HETATM   25  C   UNL     1      38.251 -13.227   1.607  1.00  0.00     0.142 A 
HETATM   26  O   UNL     1      38.088 -11.967   2.127  1.00  0.00    -0.317 OA
HETATM   27  C   UNL     1      37.213 -11.312   1.319  1.00  0.00     0.143 A 
HETATM   28  C   UNL     1      36.805 -12.126   0.289  1.00  0.00     0.027 A 
HETATM   29  C   UNL     1      37.471 -13.361   0.474  1.00  0.00     0.045 A 
ENDBRANCH  22  25
ENDBRANCH   4  21
TORSDOF 7
ENDMDL
MODEL 7
REMARK VINA RESULT:      -7.6      3.597      7.399
REMARK  7 active torsions:
REMARK  status: ('A' for Active; 'I' for Inactive)
REMARK    1  A    between atoms: O_2  and  C_3 
REMARK    2  A    between atoms: C_5  and  C_6 
REMARK    3  A    between atoms: C_6  and  C_7 
REMARK       I    between atoms: C_7  and  N_8 
REMARK    4  A    between atoms: N_8  and  C_9 
REMARK    5  A    between atoms: C_9  and  C_10 
REMARK    6  A    between atoms: C_13  and  N_14 
REMARK       I    between atoms: N_14  and  C_15 
REMARK    7  A    between atoms: C_15  and  C_16 
ROOT
HETATM    1  C   UNL     1      40.661 -15.530   4.589  1.00  0.00    -0.040 A 
HETATM    2  C   UNL     1      40.836 -16.494   3.589  1.00  0.00     0.011 A 
HETATM    3  C   UNL     1      40.355 -16.274   2.292  1.00  0.00     0.030 A 
HETATM    4  C   UNL     1      39.700 -15.084   1.972  1.00  0.00     0.035 A 
HETATM    5  C   UNL     1      39.509 -14.127   2.974  1.00  0.00     0.030 A 
HETATM    6  C   UNL     1      39.985 -14.346   4.270  1.00  0.00     0.011 A 
ENDROOT
BRANCH   1   7
HETATM    7  C   UNL     1      41.236 -15.732   5.965  1.00  0.00     0.161 C 
BRANCH   7   8
HETATM    8  N   UNL     1      42.223 -16.787   5.947  1.00  0.00    -0.357 N 
HETATM    9  C   UNL     1      43.569 -16.494   5.969  1.00  0.00     0.222 C 
HETATM   10  O   UNL     1      44.006 -15.347   5.958  1.00  0.00    -0.273 OA
HETATM   11  H   UNL     1      41.926 -17.714   6.220  1.00  0.00     0.162 HD
BRANCH   9  12
HETATM   12  C   UNL     1      44.469 -17.715   5.989  1.00  0.00     0.141 C 
BRANCH  12  13
HETATM   13  C   UNL     1      44.384 -18.639   4.795  1.00  0.00    -0.047 A 
HETATM   14  C   UNL     1      44.655 -20.014   4.854  1.00  0.00     0.044 A 
HETATM   15  C   UNL     1      44.563 -20.823   3.713  1.00  0.00     0.068 A 
HETATM   16  C   UNL     1      44.202 -20.250   2.494  1.00  0.00     0.037 A 
HETATM   17  C   UNL     1      43.933 -18.884   2.417  1.00  0.00     0.003 A 
HETATM   18  C   UNL     1      44.021 -18.085   3.558  1.00  0.00     0.007 A 
BRANCH  15  19
HETATM   19  O   UNL     1      44.849 -22.144   3.925  1.00  0.00    -0.356 OA
HETATM   20  C   UNL     1      45.132 -22.534   5.263  1.00  0.00     0.210 C 
ENDBRANCH  15  19
ENDBRANCH  12  13
ENDBRANCH   9  12
ENDBRANCH   7   8
ENDBRANCH   1   7
BRANCH   4  21
HETATM   21  N   UNL     1      39.239 -14.761   0.682  1.00  0.00    -0.321 N 
HETATM   22  C   UNL     1      39.972 -14.347  -0.415  1.00  0.00     0.279 C 
HETATM   23  O   UNL     1      41.194 -14.266  -0.469  1.00  0.00    -0.265 OA
HETATM   24  H   UNL     1      38.237 -14.792   0.529  1.00  0.00     0.169 HD
BRANCH  22  25
HETATM   25  C   UNL     1      39.128 -13.993  -1.545  1.00  0.00     0.142 A 
HETATM   26  O   UNL     1      39.270 -14.669  -2.732  1.00  0.00    -0.317 OA
HETATM   27  C   UNL     1      38.350 -14.159  -3.593  1.00  0.00     0.143 A 
HETATM   28  C   UNL     1      37.620 -13.164  -2.988  1.00  0.00     0.027 A 
HETATM   29  C   UNL     1      38.121 -13.054  -1.669  1.00  0.00     0.045 A 
ENDBRANCH  22  25
ENDBRANCH   4  21
TORSDOF 7
ENDMDL
MODEL 8
REMARK VINA RESULT:      -7.6      3.161      3.852
REMARK  7 active torsions:
REMARK  status: ('A' for Active; 'I' for Inactive)
REMARK    1  A    between atoms: O_2  and  C_3 
REMARK    2  A    between atoms: C_5  and  C_6 
REMARK    3  A    between atoms: C_6  and  C_7 
REMARK       I    between atoms: C_7  and  N_8 
REMARK    4  A    between atoms: N_8  and  C_9 
REMARK    5  A    between atoms: C_9  and  C_10 
REMARK    6  A    between atoms: C_13  and  N_14 
REMARK       I    between atoms: N_14  and  C_15 
REMARK    7  A    between atoms: C_15  and  C_16 
ROOT
HETATM    1  C   UNL     1      39.739 -13.978   3.296  1.00  0.00    -0.040 A 
HETATM    2  C   UNL     1      39.880 -14.736   4.464  1.00  0.00     0.011 A 
HETATM    3  C   UNL     1      40.318 -14.142   5.654  1.00  0.00     0.030 A 
HETATM    4  C   UNL     1      40.613 -12.779   5.698  1.00  0.00     0.035 A 
HETATM    5  C   UNL     1      40.489 -12.023   4.528  1.00  0.00     0.030 A 
HETATM    6  C   UNL     1      40.056 -12.615   3.338  1.00  0.00     0.011 A 
ENDROOT
BRANCH   1   7
HETATM    7  C   UNL     1      39.204 -14.596   2.033  1.00  0.00     0.161 C 
BRANCH   7   8
HETATM    8  N   UNL     1      39.645 -15.968   1.920  1.00  0.00    -0.357 N 
HETATM    9  C   UNL     1      40.840 -16.277   1.308  1.00  0.00     0.222 C 
HETATM   10  O   UNL     1      41.565 -15.433   0.790  1.00  0.00    -0.273 OA
HETATM   11  H   UNL     1      39.233 -16.648   2.545  1.00  0.00     0.162 HD
BRANCH   9  12
HETATM   12  C   UNL     1      41.174 -17.757   1.312  1.00  0.00     0.141 C 
BRANCH  12  13
HETATM   13  C   UNL     1      42.222 -18.212   2.303  1.00  0.00    -0.047 A 
HETATM   14  C   UNL     1      43.134 -19.247   2.050  1.00  0.00     0.044 A 
HETATM   15  C   UNL     1      44.082 -19.630   3.008  1.00  0.00     0.068 A 
HETATM   16  C   UNL     1      44.118 -18.975   4.239  1.00  0.00     0.037 A 
HETATM   17  C   UNL     1      43.215 -17.945   4.507  1.00  0.00     0.003 A 
HETATM   18  C   UNL     1      42.277 -17.566   3.547  1.00  0.00     0.007 A 
BRANCH  15  19
HETATM   19  O   UNL     1      44.909 -20.648   2.619  1.00  0.00    -0.356 OA
HETATM   20  C   UNL     1      44.299 -21.761   1.977  1.00  0.00     0.210 C 
ENDBRANCH  15  19
ENDBRANCH  12  13
ENDBRANCH   9  12
ENDBRANCH   7   8
ENDBRANCH   1   7
BRANCH   4  21
HETATM   21  N   UNL     1      41.001 -12.095   6.865  1.00  0.00    -0.321 N 
HETATM   22  C   UNL     1      40.247 -11.249   7.658  1.00  0.00     0.279 C 
HETATM   23  O   UNL     1      39.054 -11.010   7.514  1.00  0.00    -0.265 OA
HETATM   24  H   UNL     1      41.969 -12.192   7.156  1.00  0.00     0.169 HD
BRANCH  22  25
HETATM   25  C   UNL     1      41.032 -10.636   8.717  1.00  0.00     0.142 A 
HETATM   26  O   UNL     1      40.393  -9.961   9.728  1.00  0.00    -0.317 OA
HETATM   27  C   UNL     1      41.353  -9.519  10.582  1.00  0.00     0.143 A 
HETATM   28  C   UNL     1      42.601  -9.891  10.142  1.00  0.00     0.027 A 
HETATM   29  C   UNL     1      42.397 -10.609   8.939  1.00  0.00     0.045 A 
ENDBRANCH  22  25
ENDBRANCH   4  21
TORSDOF 7
ENDMDL
MODEL 9
REMARK VINA RESULT:      -7.4      2.586      8.821
REMARK  7 active torsions:
REMARK  status: ('A' for Active; 'I' for Inactive)
REMARK    1  A    between atoms: O_2  and  C_3 
REMARK    2  A    between atoms: C_5  and  C_6 
REMARK    3  A    between atoms: C_6  and  C_7 
REMARK       I    between atoms: C_7  and  N_8 
REMARK    4  A    between atoms: N_8  and  C_9 
REMARK    5  A    between atoms: C_9  and  C_10 
REMARK    6  A    between atoms: C_13  and  N_14 
REMARK       I    between atoms: N_14  and  C_15 
REMARK    7  A    between atoms: C_15  and  C_16 
ROOT
HETATM    1  C   UNL     1      40.937 -14.139   5.477  1.00  0.00    -0.040 A 
HETATM    2  C   UNL     1      42.003 -14.092   4.572  1.00  0.00     0.011 A 
HETATM    3  C   UNL     1      42.571 -15.271   4.073  1.00  0.00     0.030 A 
HETATM    4  C   UNL     1      42.075 -16.516   4.464  1.00  0.00     0.035 A 
HETATM    5  C   UNL     1      41.021 -16.565   5.382  1.00  0.00     0.030 A 
HETATM    6  C   UNL     1      40.456 -15.389   5.884  1.00  0.00     0.011 A 
ENDROOT
BRANCH   1   7
HETATM    7  C   UNL     1      40.279 -12.876   5.963  1.00  0.00     0.161 C 
BRANCH   7   8
HETATM    8  N   UNL     1      41.255 -12.009   6.583  1.00  0.00    -0.357 N 
HETATM    9  C   UNL     1      40.879 -11.095   7.543  1.00  0.00     0.222 C 
HETATM   10  O   UNL     1      39.714 -10.929   7.890  1.00  0.00    -0.273 OA
HETATM   11  H   UNL     1      42.228 -12.283   6.531  1.00  0.00     0.162 HD
BRANCH   9  12
HETATM   12  C   UNL     1      42.030 -10.295   8.122  1.00  0.00     0.141 C 
BRANCH  12  13
HETATM   13  C   UNL     1      42.729 -10.887   9.325  1.00  0.00    -0.047 A 
HETATM   14  C   UNL     1      42.186 -10.886  10.619  1.00  0.00     0.044 A 
HETATM   15  C   UNL     1      42.882 -11.447  11.698  1.00  0.00     0.068 A 
HETATM   16  C   UNL     1      44.139 -12.012  11.486  1.00  0.00     0.037 A 
HETATM   17  C   UNL     1      44.694 -12.018  10.207  1.00  0.00     0.003 A 
HETATM   18  C   UNL     1      43.995 -11.462   9.135  1.00  0.00     0.007 A 
BRANCH  15  19
HETATM   19  O   UNL     1      42.225 -11.380  12.897  1.00  0.00    -0.356 OA
HETATM   20  C   UNL     1      40.828 -11.121  12.851  1.00  0.00     0.210 C 
ENDBRANCH  15  19
ENDBRANCH  12  13
ENDBRANCH   9  12
ENDBRANCH   7   8
ENDBRANCH   1   7
BRANCH   4  21
HETATM   21  N   UNL     1      42.549 -17.744   3.967  1.00  0.00    -0.321 N 
HETATM   22  C   UNL     1      43.727 -18.400   4.275  1.00  0.00     0.279 C 
HETATM   23  O   UNL     1      44.542 -18.046   5.119  1.00  0.00    -0.265 OA
HETATM   24  H   UNL     1      41.985 -18.203   3.259  1.00  0.00     0.169 HD
BRANCH  22  25
HETATM   25  C   UNL     1      43.924 -19.594   3.468  1.00  0.00     0.142 A 
HETATM   26  O   UNL     1      43.157 -19.784   2.345  1.00  0.00    -0.317 OA
HETATM   27  C   UNL     1      43.565 -20.949   1.776  1.00  0.00     0.143 A 
HETATM   28  C   UNL     1      44.577 -21.518   2.512  1.00  0.00     0.027 A 
HETATM   29  C   UNL     1      44.808 -20.647   3.604  1.00  0.00     0.045 A 
ENDBRANCH  22  25
ENDBRANCH   4  21
TORSDOF 7
ENDMDL
MODEL 10
REMARK VINA RESULT:      -7.3      3.705      7.905
REMARK  7 active torsions:
REMARK  status: ('A' for Active; 'I' for Inactive)
REMARK    1  A    between atoms: O_2  and  C_3 
REMARK    2  A    between atoms: C_5  and  C_6 
REMARK    3  A    between atoms: C_6  and  C_7 
REMARK       I    between atoms: C_7  and  N_8 
REMARK    4  A    between atoms: N_8  and  C_9 
REMARK    5  A    between atoms: C_9  and  C_10 
REMARK    6  A    between atoms: C_13  and  N_14 
REMARK       I    between atoms: N_14  and  C_15 
REMARK    7  A    between atoms: C_15  and  C_16 
ROOT
HETATM    1  C   UNL     1      41.334 -14.328   3.809  1.00  0.00    -0.040 A 
HETATM    2  C   UNL     1      42.328 -14.449   2.832  1.00  0.00     0.011 A 
HETATM    3  C   UNL     1      41.993 -14.739   1.503  1.00  0.00     0.030 A 
HETATM    4  C   UNL     1      40.659 -14.904   1.129  1.00  0.00     0.035 A 
HETATM    5  C   UNL     1      39.665 -14.801   2.108  1.00  0.00     0.030 A 
HETATM    6  C   UNL     1      39.998 -14.516   3.436  1.00  0.00     0.011 A 
ENDROOT
BRANCH   1   7
HETATM    7  C   UNL     1      41.682 -13.949   5.224  1.00  0.00     0.161 C 
BRANCH   7   8
HETATM    8  N   UNL     1      42.798 -14.739   5.694  1.00  0.00    -0.357 N 
HETATM    9  C   UNL     1      42.590 -15.912   6.385  1.00  0.00     0.222 C 
HETATM   10  O   UNL     1      41.473 -16.326   6.682  1.00  0.00    -0.273 OA
HETATM   11  H   UNL     1      43.698 -14.589   5.257  1.00  0.00     0.162 HD
BRANCH   9  12
HETATM   12  C   UNL     1      43.864 -16.640   6.769  1.00  0.00     0.141 C 
BRANCH  12  13
HETATM   13  C   UNL     1      44.003 -18.065   6.283  1.00  0.00    -0.047 A 
HETATM   14  C   UNL     1      44.322 -18.408   4.960  1.00  0.00     0.044 A 
HETATM   15  C   UNL     1      44.434 -19.747   4.564  1.00  0.00     0.068 A 
HETATM   16  C   UNL     1      44.219 -20.760   5.498  1.00  0.00     0.037 A 
HETATM   17  C   UNL     1      43.897 -20.435   6.816  1.00  0.00     0.003 A 
HETATM   18  C   UNL     1      43.792 -19.100   7.205  1.00  0.00     0.007 A 
BRANCH  15  19
HETATM   19  O   UNL     1      44.757 -19.927   3.247  1.00  0.00    -0.356 OA
HETATM   20  C   UNL     1      44.434 -21.188   2.672  1.00  0.00     0.210 C 
ENDBRANCH  15  19
ENDBRANCH  12  13
ENDBRANCH   9  12
ENDBRANCH   7   8
ENDBRANCH   1   7
BRANCH   4  21
HETATM   21  N   UNL     1      40.234 -15.139  -0.191  1.00  0.00    -0.321 N 
HETATM   22  C   UNL     1      39.921 -14.215  -1.172  1.00  0.00     0.279 C 
HETATM   23  O   UNL     1      40.040 -12.999  -1.072  1.00  0.00    -0.265 OA
HETATM   24  H   UNL     1      40.097 -16.106  -0.467  1.00  0.00     0.169 HD
BRANCH  22  25
HETATM   25  C   UNL     1      39.407 -14.841  -2.380  1.00  0.00     0.142 A 
HETATM   26  O   UNL     1      38.127 -14.562  -2.793  1.00  0.00    -0.317 OA
HETATM   27  C   UNL     1      37.921 -15.252  -3.946  1.00  0.00     0.143 A 
HETATM   28  C   UNL     1      39.040 -15.975  -4.283  1.00  0.00     0.027 A 
HETATM   29  C   UNL     1      39.997 -15.714  -3.274  1.00  0.00     0.045 A 
ENDBRANCH  22  25
ENDBRANCH   4  21
TORSDOF 7
ENDMDL
