MODEL 1
REMARK VINA RESULT:      -9.1      0.000      0.000
REMARK  7 active torsions:
REMARK  status: ('A' for Active; 'I' for Inactive)
REMARK    1  A    between atoms: C_5  and  C_6 
REMARK       I    between atoms: C_6  and  N_7 
REMARK    2  A    between atoms: N_7  and  C_8 
REMARK    3  A    between atoms: C_8  and  C_9 
REMARK    4  A    between atoms: C_9  and  C_10 
REMARK    5  A    between atoms: N_15  and  C_17 
REMARK    6  A    between atoms: C_17  and  C_18 
REMARK    7  A    between atoms: C_21  and  C_22 
ROOT
HETATM    1  C   UNL     1      39.268 -12.401   5.615  1.00  0.00     0.131 A 
HETATM    2  N   UNL     1      39.717 -13.107   4.520  1.00  0.00    -0.319 N 
HETATM    3  C   UNL     1      39.228 -12.449   3.417  1.00  0.00     0.131 A 
HETATM    4  C   UNL     1      39.489 -12.780   1.989  1.00  0.00     0.108 C 
HETATM    5  C   UNL     1      40.953 -13.117   1.736  1.00  0.00     0.243 C 
HETATM    6  N   UNL     1      41.296 -14.558   2.115  1.00  0.00    -0.065 N 
HETATM    7  H   UNL     1      41.011 -15.119   1.299  1.00  0.00     0.280 HD
HETATM    8  C   UNL     1      40.538 -15.143   3.295  1.00  0.00     0.255 C 
HETATM    9  C   UNL     1      40.576 -14.270   4.550  1.00  0.00     0.159 C 
HETATM   10  N   UNL     1      38.498 -11.437   3.822  1.00  0.00    -0.135 NA
HETATM   11  N   UNL     1      38.528 -11.403   5.185  1.00  0.00    -0.135 NA
ENDROOT
BRANCH   1  12
HETATM   12  C   UNL     1      39.597 -12.680   7.045  1.00  0.00     0.100 C 
BRANCH  12  13
HETATM   13  C   UNL     1      39.384 -11.438   7.919  1.00  0.00     0.130 C 
BRANCH  13  14
HETATM   14  N   UNL     1      40.616 -10.869   8.454  1.00  0.00    -0.360 N 
HETATM   15  C   UNL     1      40.815 -10.677   9.798  1.00  0.00     0.223 C 
HETATM   16  O   UNL     1      40.112 -11.173  10.677  1.00  0.00    -0.273 OA
HETATM   17  H   UNL     1      41.179 -10.343   7.793  1.00  0.00     0.162 HD
BRANCH  15  18
HETATM   18  C   UNL     1      42.055  -9.864  10.148  1.00  0.00     0.103 C 
HETATM   19  C   UNL     1      42.033  -9.509  11.636  1.00  0.00     0.248 C 
HETATM   20  N   UNL     1      42.256 -10.743  12.483  1.00  0.00    -0.074 N 
HETATM   21  C   UNL     1      42.104 -10.456  13.950  1.00  0.00     0.269 C 
HETATM   22  H   UNL     1      41.480 -11.386  12.233  1.00  0.00     0.279 HD
HETATM   23  C   UNL     1      43.557 -11.431  12.171  1.00  0.00     0.234 C 
HETATM   24  C   UNL     1      43.587 -11.820  10.699  1.00  0.00     0.029 C 
HETATM   25  C   UNL     1      43.329 -10.629   9.774  1.00  0.00     0.017 C 
ENDBRANCH  15  18
ENDBRANCH  13  14
ENDBRANCH  12  13
ENDBRANCH   1  12
BRANCH   6  26
HETATM   26  C   UNL     1      42.800 -14.781   2.213  1.00  0.00     0.273 C 
BRANCH  26  27
HETATM   27  C   UNL     1      43.173 -16.223   2.406  1.00  0.00    -0.033 A 
HETATM   28  C   UNL     1      43.203 -17.102   1.317  1.00  0.00     0.010 A 
HETATM   29  C   UNL     1      43.523 -18.451   1.505  1.00  0.00     0.015 A 
HETATM   30  C   UNL     1      43.826 -18.955   2.776  1.00  0.00    -0.002 A 
HETATM   31  C   UNL     1      43.800 -18.069   3.861  1.00  0.00     0.015 A 
HETATM   32  C   UNL     1      43.474 -16.719   3.682  1.00  0.00     0.010 A 
BRANCH  30  33
HETATM   33  C   UNL     1      44.167 -20.363   2.969  1.00  0.00     0.085 A 
HETATM   34  O   UNL     1      44.545 -20.722   4.233  1.00  0.00    -0.322 OA
HETATM   35  C   UNL     1      44.821 -22.051   4.215  1.00  0.00     0.142 A 
HETATM   36  C   UNL     1      44.629 -22.561   2.955  1.00  0.00     0.027 A 
HETATM   37  C   UNL     1      44.209 -21.474   2.149  1.00  0.00     0.040 A 
ENDBRANCH  30  33
ENDBRANCH  26  27
ENDBRANCH   6  26
TORSDOF 7
ENDMDL
MODEL 2
REMARK VINA RESULT:      -9.0      1.790      2.414
REMARK  7 active torsions:
REMARK  status: ('A' for Active; 'I' for Inactive)
REMARK    1  A    between atoms: C_5  and  C_6 
REMARK       I    between atoms: C_6  and  N_7 
REMARK    2  A    between atoms: N_7  and  C_8 
REMARK    3  A    between atoms: C_8  and  C_9 
REMARK    4  A    between atoms: C_9  and  C_10 
REMARK    5  A    between atoms: N_15  and  C_17 
REMARK    6  A    between atoms: C_17  and  C_18 
REMARK    7  A    between atoms: C_21  and  C_22 
ROOT
HETATM    1  C   UNL     1      40.189 -10.401   4.997  1.00  0.00     0.131 A 
HETATM    2  N   UNL     1      40.719 -11.671   5.069  1.00  0.00    -0.319 N 
HETATM    3  C   UNL     1      39.671 -12.502   5.389  1.00  0.00     0.131 A 
HETATM    4  C   UNL     1      39.712 -13.984   5.518  1.00  0.00     0.108 C 
HETATM    5  C   UNL     1      40.514 -14.635   4.399  1.00  0.00     0.243 C 
HETATM    6  N   UNL     1      42.021 -14.589   4.655  1.00  0.00    -0.065 N 
HETATM    7  H   UNL     1      42.207 -15.391   5.274  1.00  0.00     0.280 HD
HETATM    8  C   UNL     1      42.540 -13.371   5.400  1.00  0.00     0.255 C 
HETATM    9  C   UNL     1      42.091 -12.039   4.800  1.00  0.00     0.159 C 
HETATM   10  N   UNL     1      38.590 -11.773   5.542  1.00  0.00    -0.135 NA
HETATM   11  N   UNL     1      38.909 -10.472   5.293  1.00  0.00    -0.135 NA
ENDROOT
BRANCH   1  12
HETATM   12  C   UNL     1      40.919  -9.158   4.606  1.00  0.00     0.100 C 
BRANCH  12  13
HETATM   13  C   UNL     1      41.615  -8.517   5.815  1.00  0.00     0.130 C 
BRANCH  13  14
HETATM   14  N   UNL     1      40.923  -8.729   7.080  1.00  0.00    -0.360 N 
HETATM   15  C   UNL     1      41.388  -9.594   8.038  1.00  0.00     0.223 C 
HETATM   16  O   UNL     1      42.520 -10.074   8.042  1.00  0.00    -0.273 OA
HETATM   17  H   UNL     1      39.944  -8.458   7.096  1.00  0.00     0.162 HD
BRANCH  15  18
HETATM   18  C   UNL     1      40.419  -9.858   9.183  1.00  0.00     0.103 C 
HETATM   19  C   UNL     1      41.050 -10.835  10.177  1.00  0.00     0.248 C 
HETATM   20  N   UNL     1      42.193 -10.177  10.920  1.00  0.00    -0.074 N 
HETATM   21  C   UNL     1      42.925 -11.146  11.804  1.00  0.00     0.269 C 
HETATM   22  H   UNL     1      42.867  -9.893  10.182  1.00  0.00     0.279 HD
HETATM   23  C   UNL     1      41.763  -8.942  11.665  1.00  0.00     0.234 C 
HETATM   24  C   UNL     1      41.157  -7.943  10.688  1.00  0.00     0.029 C 
HETATM   25  C   UNL     1      40.016  -8.547   9.867  1.00  0.00     0.017 C 
ENDBRANCH  15  18
ENDBRANCH  13  14
ENDBRANCH  12  13
ENDBRANCH   1  12
BRANCH   6  26
HETATM   26  C   UNL     1      42.825 -14.896   3.398  1.00  0.00     0.273 C 
BRANCH  26  27
HETATM   27  C   UNL     1      43.194 -16.346   3.270  1.00  0.00    -0.033 A 
HETATM   28  C   UNL     1      43.600 -16.871   2.038  1.00  0.00     0.010 A 
HETATM   29  C   UNL     1      43.916 -18.228   1.916  1.00  0.00     0.015 A 
HETATM   30  C   UNL     1      43.841 -19.093   3.016  1.00  0.00    -0.002 A 
HETATM   31  C   UNL     1      43.440 -18.559   4.248  1.00  0.00     0.015 A 
HETATM   32  C   UNL     1      43.116 -17.204   4.377  1.00  0.00     0.010 A 
BRANCH  30  33
HETATM   33  C   UNL     1      44.178 -20.508   2.888  1.00  0.00     0.085 A 
HETATM   34  O   UNL     1      44.514 -21.153   4.047  1.00  0.00    -0.322 OA
HETATM   35  C   UNL     1      44.793 -22.443   3.730  1.00  0.00     0.142 A 
HETATM   36  C   UNL     1      44.646 -22.646   2.380  1.00  0.00     0.027 A 
HETATM   37  C   UNL     1      44.251 -21.400   1.835  1.00  0.00     0.040 A 
ENDBRANCH  30  33
ENDBRANCH  26  27
ENDBRANCH   6  26
TORSDOF 7
ENDMDL
MODEL 3
REMARK VINA RESULT:      -9.0      4.071      6.813
REMARK  7 active torsions:
REMARK  status: ('A' for Active; 'I' for Inactive)
REMARK    1  A    between atoms: C_5  and  C_6 
REMARK       I    between atoms: C_6  and  N_7 
REMARK    2  A    between atoms: N_7  and  C_8 
REMARK    3  A    between atoms: C_8  and  C_9 
REMARK    4  A    between atoms: C_9  and  C_10 
REMARK    5  A    between atoms: N_15  and  C_17 
REMARK    6  A    between atoms: C_17  and  C_18 
REMARK    7  A    between atoms: C_21  and  C_22 
ROOT
HETATM    1  C   UNL     1      39.441 -11.101   4.248  1.00  0.00     0.131 A 
HETATM    2  N   UNL     1      40.392 -12.071   4.480  1.00  0.00    -0.319 N 
HETATM    3  C   UNL     1      39.837 -12.936   5.393  1.00  0.00     0.131 A 
HETATM    4  C   UNL     1      40.441 -14.190   5.919  1.00  0.00     0.108 C 
HETATM    5  C   UNL     1      41.103 -15.013   4.821  1.00  0.00     0.243 C 
HETATM    6  N   UNL     1      42.503 -14.506   4.472  1.00  0.00    -0.065 N 
HETATM    7  H   UNL     1      43.120 -14.929   5.180  1.00  0.00     0.280 HD
HETATM    8  C   UNL     1      42.723 -13.007   4.584  1.00  0.00     0.255 C 
HETATM    9  C   UNL     1      41.684 -12.170   3.837  1.00  0.00     0.159 C 
HETATM   10  N   UNL     1      38.646 -12.492   5.721  1.00  0.00    -0.135 NA
HETATM   11  N   UNL     1      38.398 -11.358   5.007  1.00  0.00    -0.135 NA
ENDROOT
BRANCH   1  12
HETATM   12  C   UNL     1      39.546  -9.975   3.272  1.00  0.00     0.100 C 
BRANCH  12  13
HETATM   13  C   UNL     1      38.508 -10.112   2.150  1.00  0.00     0.130 C 
BRANCH  13  14
HETATM   14  N   UNL     1      38.247 -11.489   1.748  1.00  0.00    -0.360 N 
HETATM   15  C   UNL     1      38.666 -11.997   0.544  1.00  0.00     0.223 C 
HETATM   16  O   UNL     1      39.489 -11.448  -0.187  1.00  0.00    -0.273 OA
HETATM   17  H   UNL     1      37.491 -11.954   2.242  1.00  0.00     0.162 HD
BRANCH  15  18
HETATM   18  C   UNL     1      38.104 -13.371   0.202  1.00  0.00     0.103 C 
HETATM   19  C   UNL     1      38.716 -13.865  -1.110  1.00  0.00     0.248 C 
HETATM   20  N   UNL     1      40.182 -14.196  -0.925  1.00  0.00    -0.074 N 
HETATM   21  C   UNL     1      40.848 -14.552  -2.223  1.00  0.00     0.269 C 
HETATM   22  H   UNL     1      40.621 -13.311  -0.608  1.00  0.00     0.279 HD
HETATM   23  C   UNL     1      40.408 -15.240   0.135  1.00  0.00     0.234 C 
HETATM   24  C   UNL     1      39.830 -14.756   1.458  1.00  0.00     0.029 C 
HETATM   25  C   UNL     1      38.357 -14.360   1.344  1.00  0.00     0.017 C 
ENDBRANCH  15  18
ENDBRANCH  13  14
ENDBRANCH  12  13
ENDBRANCH   1  12
BRANCH   6  26
HETATM   26  C   UNL     1      43.006 -15.077   3.152  1.00  0.00     0.273 C 
BRANCH  26  27
HETATM   27  C   UNL     1      43.372 -16.531   3.238  1.00  0.00    -0.033 A 
HETATM   28  C   UNL     1      43.514 -17.299   2.076  1.00  0.00     0.010 A 
HETATM   29  C   UNL     1      43.827 -18.659   2.160  1.00  0.00     0.015 A 
HETATM   30  C   UNL     1      44.013 -19.286   3.399  1.00  0.00    -0.002 A 
HETATM   31  C   UNL     1      43.876 -18.511   4.558  1.00  0.00     0.015 A 
HETATM   32  C   UNL     1      43.556 -17.150   4.482  1.00  0.00     0.010 A 
BRANCH  30  33
HETATM   33  C   UNL     1      44.347 -20.705   3.484  1.00  0.00     0.085 A 
HETATM   34  O   UNL     1      44.676 -21.172   4.727  1.00  0.00    -0.322 OA
HETATM   35  C   UNL     1      44.954 -22.495   4.606  1.00  0.00     0.142 A 
HETATM   36  C   UNL     1      44.812 -22.896   3.301  1.00  0.00     0.027 A 
HETATM   37  C   UNL     1      44.423 -21.744   2.574  1.00  0.00     0.040 A 
ENDBRANCH  30  33
ENDBRANCH  26  27
ENDBRANCH   6  26
TORSDOF 7
ENDMDL
MODEL 4
REMARK VINA RESULT:      -9.0      1.451      1.888
REMARK  7 active torsions:
REMARK  status: ('A' for Active; 'I' for Inactive)
REMARK    1  A    between atoms: C_5  and  C_6 
REMARK       I    between atoms: C_6  and  N_7 
REMARK    2  A    between atoms: N_7  and  C_8 
REMARK    3  A    between atoms: C_8  and  C_9 
REMARK    4  A    between atoms: C_9  and  C_10 
REMARK    5  A    between atoms: N_15  and  C_17 
REMARK    6  A    between atoms: C_17  and  C_18 
REMARK    7  A    between atoms: C_21  and  C_22 
ROOT
HETATM    1  C   UNL     1      39.880 -11.103   6.923  1.00  0.00     0.131 A 
HETATM    2  N   UNL     1      40.110 -12.080   5.977  1.00  0.00    -0.319 N 
HETATM    3  C   UNL     1      39.379 -11.716   4.872  1.00  0.00     0.131 A 
HETATM    4  C   UNL     1      39.342 -12.410   3.556  1.00  0.00     0.108 C 
HETATM    5  C   UNL     1      40.730 -12.837   3.093  1.00  0.00     0.243 C 
HETATM    6  N   UNL     1      41.190 -14.140   3.749  1.00  0.00    -0.065 N 
HETATM    7  H   UNL     1      40.758 -14.885   3.184  1.00  0.00     0.280 HD
HETATM    8  C   UNL     1      40.718 -14.381   5.172  1.00  0.00     0.255 C 
HETATM    9  C   UNL     1      40.993 -13.216   6.123  1.00  0.00     0.159 C 
HETATM   10  N   UNL     1      38.719 -10.616   5.148  1.00  0.00    -0.135 NA
HETATM   11  N   UNL     1      39.034 -10.233   6.418  1.00  0.00    -0.135 NA
ENDROOT
BRANCH   1  12
HETATM   12  C   UNL     1      40.512 -11.013   8.274  1.00  0.00     0.100 C 
BRANCH  12  13
HETATM   13  C   UNL     1      41.133  -9.629   8.507  1.00  0.00     0.130 C 
BRANCH  13  14
HETATM   14  N   UNL     1      42.071  -9.578   9.621  1.00  0.00    -0.360 N 
HETATM   15  C   UNL     1      41.759  -8.989  10.820  1.00  0.00     0.223 C 
HETATM   16  O   UNL     1      40.619  -8.676  11.159  1.00  0.00    -0.273 OA
HETATM   17  H   UNL     1      43.048  -9.712   9.378  1.00  0.00     0.162 HD
BRANCH  15  18
HETATM   18  C   UNL     1      42.935  -8.827  11.775  1.00  0.00     0.103 C 
HETATM   19  C   UNL     1      42.453  -8.192  13.081  1.00  0.00     0.248 C 
HETATM   20  N   UNL     1      41.588  -9.160  13.859  1.00  0.00    -0.074 N 
HETATM   21  C   UNL     1      40.984  -8.524  15.079  1.00  0.00     0.269 C 
HETATM   22  H   UNL     1      40.795  -9.382  13.226  1.00  0.00     0.279 HD
HETATM   23  C   UNL     1      42.304 -10.443  14.183  1.00  0.00     0.234 C 
HETATM   24  C   UNL     1      42.768 -11.107  12.893  1.00  0.00     0.029 C 
HETATM   25  C   UNL     1      43.618 -10.175  12.028  1.00  0.00     0.017 C 
ENDBRANCH  15  18
ENDBRANCH  13  14
ENDBRANCH  12  13
ENDBRANCH   1  12
BRANCH   6  26
HETATM   26  C   UNL     1      42.688 -14.367   3.579  1.00  0.00     0.273 C 
BRANCH  26  27
HETATM   27  C   UNL     1      43.048 -15.811   3.378  1.00  0.00    -0.033 A 
HETATM   28  C   UNL     1      43.219 -16.328   2.088  1.00  0.00     0.010 A 
HETATM   29  C   UNL     1      43.527 -17.680   1.903  1.00  0.00     0.015 A 
HETATM   30  C   UNL     1      43.677 -18.546   2.994  1.00  0.00    -0.002 A 
HETATM   31  C   UNL     1      43.511 -18.021   4.281  1.00  0.00     0.015 A 
HETATM   32  C   UNL     1      43.197 -16.671   4.475  1.00  0.00     0.010 A 
BRANCH  30  33
HETATM   33  C   UNL     1      44.006 -19.956   2.798  1.00  0.00     0.085 A 
HETATM   34  O   UNL     1      43.540 -20.528   1.646  1.00  0.00    -0.322 OA
HETATM   35  C   UNL     1      43.939 -21.825   1.642  1.00  0.00     0.142 A 
HETATM   36  C   UNL     1      44.657 -22.107   2.778  1.00  0.00     0.027 A 
HETATM   37  C   UNL     1      44.701 -20.904   3.526  1.00  0.00     0.040 A 
ENDBRANCH  30  33
ENDBRANCH  26  27
ENDBRANCH   6  26
TORSDOF 7
ENDMDL
MODEL 5
REMARK VINA RESULT:      -8.9      1.862      2.664
REMARK  7 active torsions:
REMARK  status: ('A' for Active; 'I' for Inactive)
REMARK    1  A    between atoms: C_5  and  C_6 
REMARK       I    between atoms: C_6  and  N_7 
REMARK    2  A    between atoms: N_7  and  C_8 
REMARK    3  A    between atoms: C_8  and  C_9 
REMARK    4  A    between atoms: C_9  and  C_10 
REMARK    5  A    between atoms: N_15  and  C_17 
REMARK    6  A    between atoms: C_17  and  C_18 
REMARK    7  A    between atoms: C_21  and  C_22 
ROOT
HETATM    1  C   UNL     1      39.600 -11.009   6.667  1.00  0.00     0.131 A 
HETATM    2  N   UNL     1      39.903 -12.036   5.799  1.00  0.00    -0.319 N 
HETATM    3  C   UNL     1      39.268 -11.734   4.618  1.00  0.00     0.131 A 
HETATM    4  C   UNL     1      39.337 -12.499   3.344  1.00  0.00     0.108 C 
HETATM    5  C   UNL     1      40.756 -12.952   3.022  1.00  0.00     0.243 C 
HETATM    6  N   UNL     1      41.153 -14.217   3.784  1.00  0.00    -0.065 N 
HETATM    7  H   UNL     1      40.765 -14.992   3.227  1.00  0.00     0.280 HD
HETATM    8  C   UNL     1      40.563 -14.380   5.174  1.00  0.00     0.255 C 
HETATM    9  C   UNL     1      40.764 -13.164   6.079  1.00  0.00     0.159 C 
HETATM   10  N   UNL     1      38.594 -10.619   4.778  1.00  0.00    -0.135 NA
HETATM   11  N   UNL     1      38.804 -10.167   6.046  1.00  0.00    -0.135 NA
ENDROOT
BRANCH   1  12
HETATM   12  C   UNL     1      40.118 -10.845   8.059  1.00  0.00     0.100 C 
BRANCH  12  13
HETATM   13  C   UNL     1      41.599 -10.441   8.058  1.00  0.00     0.130 C 
BRANCH  13  14
HETATM   14  N   UNL     1      42.456 -11.323   8.840  1.00  0.00    -0.360 N 
HETATM   15  C   UNL     1      43.131 -10.895   9.955  1.00  0.00     0.223 C 
HETATM   16  O   UNL     1      42.901  -9.837  10.537  1.00  0.00    -0.273 OA
HETATM   17  H   UNL     1      42.775 -12.161   8.363  1.00  0.00     0.162 HD
BRANCH  15  18
HETATM   18  C   UNL     1      44.151 -11.886  10.502  1.00  0.00     0.103 C 
HETATM   19  C   UNL     1      44.250 -13.092   9.565  1.00  0.00     0.248 C 
HETATM   20  N   UNL     1      44.906 -12.701   8.258  1.00  0.00    -0.074 N 
HETATM   21  C   UNL     1      44.895 -13.826   7.263  1.00  0.00     0.269 C 
HETATM   22  H   UNL     1      44.298 -11.959   7.863  1.00  0.00     0.279 HD
HETATM   23  C   UNL     1      46.284 -12.128   8.453  1.00  0.00     0.234 C 
HETATM   24  C   UNL     1      46.205 -10.908   9.361  1.00  0.00     0.029 C 
HETATM   25  C   UNL     1      45.514 -11.212  10.691  1.00  0.00     0.017 C 
ENDBRANCH  15  18
ENDBRANCH  13  14
ENDBRANCH  12  13
ENDBRANCH   1  12
BRANCH   6  26
HETATM   26  C   UNL     1      42.658 -14.454   3.753  1.00  0.00     0.273 C 
BRANCH  26  27
HETATM   27  C   UNL     1      43.026 -15.890   3.507  1.00  0.00    -0.033 A 
HETATM   28  C   UNL     1      42.994 -16.420   2.212  1.00  0.00     0.010 A 
HETATM   29  C   UNL     1      43.310 -17.764   1.989  1.00  0.00     0.015 A 
HETATM   30  C   UNL     1      43.669 -18.610   3.047  1.00  0.00    -0.002 A 
HETATM   31  C   UNL     1      43.705 -18.072   4.340  1.00  0.00     0.015 A 
HETATM   32  C   UNL     1      43.384 -16.729   4.571  1.00  0.00     0.010 A 
BRANCH  30  33
HETATM   33  C   UNL     1      44.005 -20.012   2.811  1.00  0.00     0.085 A 
HETATM   34  O   UNL     1      43.596 -20.536   1.616  1.00  0.00    -0.322 OA
HETATM   35  C   UNL     1      43.994 -21.833   1.580  1.00  0.00     0.142 A 
HETATM   36  C   UNL     1      44.654 -22.162   2.738  1.00  0.00     0.027 A 
HETATM   37  C   UNL     1      44.661 -20.990   3.535  1.00  0.00     0.040 A 
ENDBRANCH  30  33
ENDBRANCH  26  27
ENDBRANCH   6  26
TORSDOF 7
ENDMDL
MODEL 6
REMARK VINA RESULT:      -8.8      4.153      8.490
REMARK  7 active torsions:
REMARK  status: ('A' for Active; 'I' for Inactive)
REMARK    1  A    between atoms: C_5  and  C_6 
REMARK       I    between atoms: C_6  and  N_7 
REMARK    2  A    between atoms: N_7  and  C_8 
REMARK    3  A    between atoms: C_8  and  C_9 
REMARK    4  A    between atoms: C_9  and  C_10 
REMARK    5  A    between atoms: N_15  and  C_17 
REMARK    6  A    between atoms: C_17  and  C_18 
REMARK    7  A    between atoms: C_21  and  C_22 
ROOT
HETATM    1  C   UNL     1      41.194 -13.179   2.805  1.00  0.00     0.131 A 
HETATM    2  N   UNL     1      41.566 -13.592   4.066  1.00  0.00    -0.319 N 
HETATM    3  C   UNL     1      40.488 -14.277   4.573  1.00  0.00     0.131 A 
HETATM    4  C   UNL     1      40.411 -14.980   5.883  1.00  0.00     0.108 C 
HETATM    5  C   UNL     1      41.671 -15.783   6.178  1.00  0.00     0.243 C 
HETATM    6  N   UNL     1      42.803 -14.915   6.730  1.00  0.00    -0.065 N 
HETATM    7  H   UNL     1      42.603 -14.832   7.737  1.00  0.00     0.280 HD
HETATM    8  C   UNL     1      42.873 -13.490   6.210  1.00  0.00     0.255 C 
HETATM    9  C   UNL     1      42.856 -13.384   4.685  1.00  0.00     0.159 C 
HETATM   10  N   UNL     1      39.516 -14.243   3.692  1.00  0.00    -0.135 NA
HETATM   11  N   UNL     1      39.955 -13.567   2.593  1.00  0.00    -0.135 NA
ENDROOT
BRANCH   1  12
HETATM   12  C   UNL     1      42.055 -12.456   1.820  1.00  0.00     0.100 C 
BRANCH  12  13
HETATM   13  C   UNL     1      42.258 -13.284   0.545  1.00  0.00     0.130 C 
BRANCH  13  14
HETATM   14  N   UNL     1      41.363 -12.923  -0.548  1.00  0.00    -0.360 N 
HETATM   15  C   UNL     1      40.968 -13.824  -1.504  1.00  0.00     0.223 C 
HETATM   16  O   UNL     1      41.115 -15.041  -1.409  1.00  0.00    -0.273 OA
HETATM   17  H   UNL     1      41.295 -11.930  -0.750  1.00  0.00     0.162 HD
BRANCH  15  18
HETATM   18  C   UNL     1      40.226 -13.213  -2.687  1.00  0.00     0.103 C 
HETATM   19  C   UNL     1      40.010 -14.278  -3.764  1.00  0.00     0.248 C 
HETATM   20  N   UNL     1      39.003 -15.309  -3.301  1.00  0.00    -0.074 N 
HETATM   21  C   UNL     1      38.869 -16.444  -4.275  1.00  0.00     0.269 C 
HETATM   22  H   UNL     1      39.412 -15.716  -2.437  1.00  0.00     0.279 HD
HETATM   23  C   UNL     1      37.672 -14.700  -2.951  1.00  0.00     0.234 C 
HETATM   24  C   UNL     1      37.861 -13.656  -1.858  1.00  0.00     0.029 C 
HETATM   25  C   UNL     1      38.898 -12.597  -2.235  1.00  0.00     0.017 C 
ENDBRANCH  15  18
ENDBRANCH  13  14
ENDBRANCH  12  13
ENDBRANCH   1  12
BRANCH   6  26
HETATM   26  C   UNL     1      44.149 -15.628   6.675  1.00  0.00     0.273 C 
BRANCH  26  27
HETATM   27  C   UNL     1      44.139 -16.845   5.796  1.00  0.00    -0.033 A 
HETATM   28  C   UNL     1      44.634 -18.067   6.266  1.00  0.00     0.010 A 
HETATM   29  C   UNL     1      44.650 -19.192   5.435  1.00  0.00     0.015 A 
HETATM   30  C   UNL     1      44.169 -19.130   4.121  1.00  0.00    -0.002 A 
HETATM   31  C   UNL     1      43.669 -17.906   3.658  1.00  0.00     0.015 A 
HETATM   32  C   UNL     1      43.656 -16.774   4.481  1.00  0.00     0.010 A 
BRANCH  30  33
HETATM   33  C   UNL     1      44.180 -20.308   3.257  1.00  0.00     0.085 A 
HETATM   34  O   UNL     1      44.620 -21.469   3.829  1.00  0.00    -0.322 OA
HETATM   35  C   UNL     1      44.560 -22.440   2.883  1.00  0.00     0.142 A 
HETATM   36  C   UNL     1      44.088 -21.926   1.701  1.00  0.00     0.027 A 
HETATM   37  C   UNL     1      43.843 -20.551   1.938  1.00  0.00     0.040 A 
ENDBRANCH  30  33
ENDBRANCH  26  27
ENDBRANCH   6  26
TORSDOF 7
ENDMDL
MODEL 7
REMARK VINA RESULT:      -8.8      1.321      1.897
REMARK  7 active torsions:
REMARK  status: ('A' for Active; 'I' for Inactive)
REMARK    1  A    between atoms: C_5  and  C_6 
REMARK       I    between atoms: C_6  and  N_7 
REMARK    2  A    between atoms: N_7  and  C_8 
REMARK    3  A    between atoms: C_8  and  C_9 
REMARK    4  A    between atoms: C_9  and  C_10 
REMARK    5  A    between atoms: N_15  and  C_17 
REMARK    6  A    between atoms: C_17  and  C_18 
REMARK    7  A    between atoms: C_21  and  C_22 
ROOT
HETATM    1  C   UNL     1      39.874 -11.133   6.811  1.00  0.00     0.131 A 
HETATM    2  N   UNL     1      40.120 -12.139   5.902  1.00  0.00    -0.319 N 
HETATM    3  C   UNL     1      39.427 -11.800   4.764  1.00  0.00     0.131 A 
HETATM    4  C   UNL     1      39.422 -12.531   3.468  1.00  0.00     0.108 C 
HETATM    5  C   UNL     1      40.817 -12.987   3.061  1.00  0.00     0.243 C 
HETATM    6  N   UNL     1      41.241 -14.275   3.767  1.00  0.00    -0.065 N 
HETATM    7  H   UNL     1      40.817 -15.032   3.211  1.00  0.00     0.280 HD
HETATM    8  C   UNL     1      40.724 -14.470   5.182  1.00  0.00     0.255 C 
HETATM    9  C   UNL     1      40.984 -13.281   6.106  1.00  0.00     0.159 C 
HETATM   10  N   UNL     1      38.773 -10.684   4.989  1.00  0.00    -0.135 NA
HETATM   11  N   UNL     1      39.055 -10.268   6.256  1.00  0.00    -0.135 NA
ENDROOT
BRANCH   1  12
HETATM   12  C   UNL     1      40.466 -11.011   8.178  1.00  0.00     0.100 C 
BRANCH  12  13
HETATM   13  C   UNL     1      39.377 -11.007   9.259  1.00  0.00     0.130 C 
BRANCH  13  14
HETATM   14  N   UNL     1      39.878 -11.240  10.608  1.00  0.00    -0.360 N 
HETATM   15  C   UNL     1      40.055 -10.225  11.513  1.00  0.00     0.223 C 
HETATM   16  O   UNL     1      39.593  -9.093  11.379  1.00  0.00    -0.273 OA
HETATM   17  H   UNL     1      40.376 -12.115  10.746  1.00  0.00     0.162 HD
BRANCH  15  18
HETATM   18  C   UNL     1      40.800 -10.624  12.780  1.00  0.00     0.103 C 
HETATM   19  C   UNL     1      41.887 -11.645  12.438  1.00  0.00     0.248 C 
HETATM   20  N   UNL     1      43.002 -10.993  11.647  1.00  0.00    -0.074 N 
HETATM   21  C   UNL     1      44.018 -11.993  11.176  1.00  0.00     0.269 C 
HETATM   22  H   UNL     1      42.544 -10.621  10.793  1.00  0.00     0.279 HD
HETATM   23  C   UNL     1      43.635  -9.843  12.382  1.00  0.00     0.234 C 
HETATM   24  C   UNL     1      42.574  -8.801  12.708  1.00  0.00     0.029 C 
HETATM   25  C   UNL     1      41.389  -9.391  13.475  1.00  0.00     0.017 C 
ENDBRANCH  15  18
ENDBRANCH  13  14
ENDBRANCH  12  13
ENDBRANCH   1  12
BRANCH   6  26
HETATM   26  C   UNL     1      42.740 -14.525   3.650  1.00  0.00     0.273 C 
BRANCH  26  27
HETATM   27  C   UNL     1      43.084 -15.969   3.420  1.00  0.00    -0.033 A 
HETATM   28  C   UNL     1      43.274 -16.457   2.122  1.00  0.00     0.010 A 
HETATM   29  C   UNL     1      43.566 -17.808   1.909  1.00  0.00     0.015 A 
HETATM   30  C   UNL     1      43.681 -18.703   2.980  1.00  0.00    -0.002 A 
HETATM   31  C   UNL     1      43.496 -18.207   4.277  1.00  0.00     0.015 A 
HETATM   32  C   UNL     1      43.198 -16.857   4.498  1.00  0.00     0.010 A 
BRANCH  30  33
HETATM   33  C   UNL     1      43.993 -20.112   2.756  1.00  0.00     0.085 A 
HETATM   34  O   UNL     1      44.526 -20.787   3.820  1.00  0.00    -0.322 OA
HETATM   35  C   UNL     1      44.748 -22.065   3.424  1.00  0.00     0.142 A 
HETATM   36  C   UNL     1      44.369 -22.233   2.115  1.00  0.00     0.027 A 
HETATM   37  C   UNL     1      43.883 -20.974   1.681  1.00  0.00     0.040 A 
ENDBRANCH  30  33
ENDBRANCH  26  27
ENDBRANCH   6  26
TORSDOF 7
ENDMDL
MODEL 8
REMARK VINA RESULT:      -8.7      3.632      4.361
REMARK  7 active torsions:
REMARK  status: ('A' for Active; 'I' for Inactive)
REMARK    1  A    between atoms: C_5  and  C_6 
REMARK       I    between atoms: C_6  and  N_7 
REMARK    2  A    between atoms: N_7  and  C_8 
REMARK    3  A    between atoms: C_8  and  C_9 
REMARK    4  A    between atoms: C_9  and  C_10 
REMARK    5  A    between atoms: N_15  and  C_17 
REMARK    6  A    between atoms: C_17  and  C_18 
REMARK    7  A    between atoms: C_21  and  C_22 
ROOT
HETATM    1  C   UNL     1      39.340 -10.939   2.793  1.00  0.00     0.131 A 
HETATM    2  N   UNL     1      39.285 -12.228   2.308  1.00  0.00    -0.319 N 
HETATM    3  C   UNL     1      38.094 -12.328   1.629  1.00  0.00     0.131 A 
HETATM    4  C   UNL     1      37.595 -13.504   0.865  1.00  0.00     0.108 C 
HETATM    5  C   UNL     1      38.686 -14.140   0.014  1.00  0.00     0.243 C 
HETATM    6  N   UNL     1      39.592 -15.070   0.821  1.00  0.00    -0.065 N 
HETATM    7  H   UNL     1      39.082 -15.965   0.860  1.00  0.00     0.280 HD
HETATM    8  C   UNL     1      39.840 -14.680   2.268  1.00  0.00     0.255 C 
HETATM    9  C   UNL     1      40.312 -13.237   2.449  1.00  0.00     0.159 C 
HETATM   10  N   UNL     1      37.455 -11.187   1.734  1.00  0.00    -0.135 NA
HETATM   11  N   UNL     1      38.230 -10.323   2.450  1.00  0.00    -0.135 NA
ENDROOT
BRANCH   1  12
HETATM   12  C   UNL     1      40.478 -10.322   3.538  1.00  0.00     0.100 C 
BRANCH  12  13
HETATM   13  C   UNL     1      40.698 -11.012   4.890  1.00  0.00     0.130 C 
BRANCH  13  14
HETATM   14  N   UNL     1      41.899 -11.836   4.948  1.00  0.00    -0.360 N 
HETATM   15  C   UNL     1      41.928 -13.052   5.584  1.00  0.00     0.223 C 
HETATM   16  O   UNL     1      40.926 -13.667   5.942  1.00  0.00    -0.273 OA
HETATM   17  H   UNL     1      42.774 -11.349   4.777  1.00  0.00     0.162 HD
BRANCH  15  18
HETATM   18  C   UNL     1      43.318 -13.655   5.741  1.00  0.00     0.103 C 
HETATM   19  C   UNL     1      43.247 -14.880   6.655  1.00  0.00     0.248 C 
HETATM   20  N   UNL     1      42.520 -16.017   5.968  1.00  0.00    -0.074 N 
HETATM   21  C   UNL     1      42.311 -17.188   6.885  1.00  0.00     0.269 C 
HETATM   22  H   UNL     1      41.575 -15.644   5.755  1.00  0.00     0.279 HD
HETATM   23  C   UNL     1      43.171 -16.420   4.673  1.00  0.00     0.234 C 
HETATM   24  C   UNL     1      43.226 -15.220   3.736  1.00  0.00     0.029 C 
HETATM   25  C   UNL     1      43.913 -14.011   4.374  1.00  0.00     0.017 C 
ENDBRANCH  15  18
ENDBRANCH  13  14
ENDBRANCH  12  13
ENDBRANCH   1  12
BRANCH   6  26
HETATM   26  C   UNL     1      40.877 -15.408   0.075  1.00  0.00     0.273 C 
BRANCH  26  27
HETATM   27  C   UNL     1      41.585 -16.610   0.630  1.00  0.00    -0.033 A 
HETATM   28  C   UNL     1      40.862 -17.644   1.237  1.00  0.00     0.010 A 
HETATM   29  C   UNL     1      41.527 -18.750   1.778  1.00  0.00     0.015 A 
HETATM   30  C   UNL     1      42.923 -18.856   1.723  1.00  0.00    -0.002 A 
HETATM   31  C   UNL     1      43.640 -17.821   1.109  1.00  0.00     0.015 A 
HETATM   32  C   UNL     1      42.983 -16.708   0.571  1.00  0.00     0.010 A 
BRANCH  30  33
HETATM   33  C   UNL     1      43.614 -20.015   2.282  1.00  0.00     0.085 A 
HETATM   34  O   UNL     1      44.273 -19.810   3.463  1.00  0.00    -0.322 OA
HETATM   35  C   UNL     1      44.848 -20.986   3.820  1.00  0.00     0.142 A 
HETATM   36  C   UNL     1      44.574 -21.955   2.886  1.00  0.00     0.027 A 
HETATM   37  C   UNL     1      43.779 -21.331   1.893  1.00  0.00     0.040 A 
ENDBRANCH  30  33
ENDBRANCH  26  27
ENDBRANCH   6  26
TORSDOF 7
ENDMDL
MODEL 9
REMARK VINA RESULT:      -8.7      5.275      8.826
REMARK  7 active torsions:
REMARK  status: ('A' for Active; 'I' for Inactive)
REMARK    1  A    between atoms: C_5  and  C_6 
REMARK       I    between atoms: C_6  and  N_7 
REMARK    2  A    between atoms: N_7  and  C_8 
REMARK    3  A    between atoms: C_8  and  C_9 
REMARK    4  A    between atoms: C_9  and  C_10 
REMARK    5  A    between atoms: N_15  and  C_17 
REMARK    6  A    between atoms: C_17  and  C_18 
REMARK    7  A    between atoms: C_21  and  C_22 
ROOT
HETATM    1  C   UNL     1      42.258 -10.652  -0.178  1.00  0.00     0.131 A 
HETATM    2  N   UNL     1      41.801 -11.445   0.852  1.00  0.00    -0.319 N 
HETATM    3  C   UNL     1      41.014 -10.634   1.634  1.00  0.00     0.131 A 
HETATM    4  C   UNL     1      40.233 -11.034   2.836  1.00  0.00     0.108 C 
HETATM    5  C   UNL     1      39.507 -12.358   2.634  1.00  0.00     0.243 C 
HETATM    6  N   UNL     1      40.420 -13.566   2.846  1.00  0.00    -0.065 N 
HETATM    7  H   UNL     1      40.431 -13.712   3.866  1.00  0.00     0.280 HD
HETATM    8  C   UNL     1      41.874 -13.389   2.444  1.00  0.00     0.255 C 
HETATM    9  C   UNL     1      42.065 -12.856   1.024  1.00  0.00     0.159 C 
HETATM   10  N   UNL     1      41.029  -9.423   1.130  1.00  0.00    -0.135 NA
HETATM   11  N   UNL     1      41.796  -9.435   0.003  1.00  0.00    -0.135 NA
ENDROOT
BRANCH   1  12
HETATM   12  C   UNL     1      43.095 -11.097  -1.333  1.00  0.00     0.100 C 
BRANCH  12  13
HETATM   13  C   UNL     1      42.223 -11.542  -2.515  1.00  0.00     0.130 C 
BRANCH  13  14
HETATM   14  N   UNL     1      41.458 -12.757  -2.264  1.00  0.00    -0.360 N 
HETATM   15  C   UNL     1      40.086 -12.776  -2.266  1.00  0.00     0.223 C 
HETATM   16  O   UNL     1      39.384 -11.869  -2.709  1.00  0.00    -0.273 OA
HETATM   17  H   UNL     1      41.959 -13.501  -1.789  1.00  0.00     0.162 HD
BRANCH  15  18
HETATM   18  C   UNL     1      39.466 -14.072  -1.759  1.00  0.00     0.103 C 
HETATM   19  C   UNL     1      38.039 -14.205  -2.295  1.00  0.00     0.248 C 
HETATM   20  N   UNL     1      38.051 -14.463  -3.786  1.00  0.00    -0.074 N 
HETATM   21  C   UNL     1      36.668 -14.461  -4.370  1.00  0.00     0.269 C 
HETATM   22  H   UNL     1      38.539 -13.644  -4.198  1.00  0.00     0.279 HD
HETATM   23  C   UNL     1      38.821 -15.703  -4.152  1.00  0.00     0.234 C 
HETATM   24  C   UNL     1      40.254 -15.579  -3.652  1.00  0.00     0.029 C 
HETATM   25  C   UNL     1      40.327 -15.277  -2.154  1.00  0.00     0.017 C 
ENDBRANCH  15  18
ENDBRANCH  13  14
ENDBRANCH  12  13
ENDBRANCH   1  12
BRANCH   6  26
HETATM   26  C   UNL     1      39.809 -14.848   2.293  1.00  0.00     0.273 C 
BRANCH  26  27
HETATM   27  C   UNL     1      40.734 -16.029   2.379  1.00  0.00    -0.033 A 
HETATM   28  C   UNL     1      41.256 -16.609   1.217  1.00  0.00     0.010 A 
HETATM   29  C   UNL     1      42.095 -17.726   1.299  1.00  0.00     0.015 A 
HETATM   30  C   UNL     1      42.437 -18.287   2.536  1.00  0.00    -0.002 A 
HETATM   31  C   UNL     1      41.916 -17.698   3.695  1.00  0.00     0.015 A 
HETATM   32  C   UNL     1      41.072 -16.584   3.621  1.00  0.00     0.010 A 
BRANCH  30  33
HETATM   33  C   UNL     1      43.319 -19.449   2.619  1.00  0.00     0.085 A 
HETATM   34  O   UNL     1      44.239 -19.434   3.630  1.00  0.00    -0.322 OA
HETATM   35  C   UNL     1      44.959 -20.582   3.546  1.00  0.00     0.142 A 
HETATM   36  C   UNL     1      44.520 -21.343   2.491  1.00  0.00     0.027 A 
HETATM   37  C   UNL     1      43.464 -20.615   1.890  1.00  0.00     0.040 A 
ENDBRANCH  30  33
ENDBRANCH  26  27
ENDBRANCH   6  26
TORSDOF 7
ENDMDL
MODEL 10
REMARK VINA RESULT:      -8.6      3.693      6.136
REMARK  7 active torsions:
REMARK  status: ('A' for Active; 'I' for Inactive)
REMARK    1  A    between atoms: C_5  and  C_6 
REMARK       I    between atoms: C_6  and  N_7 
REMARK    2  A    between atoms: N_7  and  C_8 
REMARK    3  A    between atoms: C_8  and  C_9 
REMARK    4  A    between atoms: C_9  and  C_10 
REMARK    5  A    between atoms: N_15  and  C_17 
REMARK    6  A    between atoms: C_17  and  C_18 
REMARK    7  A    between atoms: C_21  and  C_22 
ROOT
HETATM    1  C   UNL     1      43.905 -15.207   6.846  1.00  0.00     0.131 A 
HETATM    2  N   UNL     1      43.483 -15.931   5.752  1.00  0.00    -0.319 N 
HETATM    3  C   UNL     1      43.485 -17.248   6.144  1.00  0.00     0.131 A 
HETATM    4  C   UNL     1      43.045 -18.421   5.341  1.00  0.00     0.108 C 
HETATM    5  C   UNL     1      41.749 -18.148   4.589  1.00  0.00     0.243 C 
HETATM    6  N   UNL     1      41.977 -17.368   3.293  1.00  0.00    -0.065 N 
HETATM    7  H   UNL     1      42.244 -18.082   2.600  1.00  0.00     0.280 HD
HETATM    8  C   UNL     1      43.116 -16.364   3.303  1.00  0.00     0.255 C 
HETATM    9  C   UNL     1      43.070 -15.386   4.477  1.00  0.00     0.159 C 
HETATM   10  N   UNL     1      43.921 -17.317   7.380  1.00  0.00    -0.135 NA
HETATM   11  N   UNL     1      44.175 -16.051   7.818  1.00  0.00    -0.135 NA
ENDROOT
BRANCH   1  12
HETATM   12  C   UNL     1      43.999 -13.719   6.942  1.00  0.00     0.100 C 
BRANCH  12  13
HETATM   13  C   UNL     1      45.030 -13.292   7.994  1.00  0.00     0.130 C 
BRANCH  13  14
HETATM   14  N   UNL     1      44.731 -12.019   8.638  1.00  0.00    -0.360 N 
HETATM   15  C   UNL     1      44.455 -11.918   9.978  1.00  0.00     0.223 C 
HETATM   16  O   UNL     1      44.668 -12.812  10.795  1.00  0.00    -0.273 OA
HETATM   17  H   UNL     1      44.431 -11.273   8.017  1.00  0.00     0.162 HD
BRANCH  15  18
HETATM   18  C   UNL     1      43.941 -10.555  10.422  1.00  0.00     0.103 C 
HETATM   19  C   UNL     1      42.602 -10.263   9.741  1.00  0.00     0.248 C 
HETATM   20  N   UNL     1      41.517 -11.166  10.287  1.00  0.00    -0.074 N 
HETATM   21  C   UNL     1      40.221 -11.004   9.546  1.00  0.00     0.269 C 
HETATM   22  H   UNL     1      41.845 -12.131  10.089  1.00  0.00     0.279 HD
HETATM   23  C   UNL     1      41.342 -11.024  11.775  1.00  0.00     0.234 C 
HETATM   24  C   UNL     1      42.658 -11.338  12.475  1.00  0.00     0.029 C 
HETATM   25  C   UNL     1      43.818 -10.492  11.948  1.00  0.00     0.017 C 
ENDBRANCH  15  18
ENDBRANCH  13  14
ENDBRANCH  12  13
ENDBRANCH   1  12
BRANCH   6  26
HETATM   26  C   UNL     1      40.682 -16.783   2.743  1.00  0.00     0.273 C 
BRANCH  26  27
HETATM   27  C   UNL     1      40.887 -15.943   1.515  1.00  0.00    -0.033 A 
HETATM   28  C   UNL     1      40.700 -14.557   1.561  1.00  0.00     0.010 A 
HETATM   29  C   UNL     1      40.864 -13.781   0.409  1.00  0.00     0.015 A 
HETATM   30  C   UNL     1      41.223 -14.364  -0.813  1.00  0.00    -0.002 A 
HETATM   31  C   UNL     1      41.415 -15.751  -0.852  1.00  0.00     0.015 A 
HETATM   32  C   UNL     1      41.247 -16.535   0.295  1.00  0.00     0.010 A 
BRANCH  30  33
HETATM   33  C   UNL     1      41.402 -13.550  -2.013  1.00  0.00     0.085 A 
HETATM   34  O   UNL     1      42.578 -12.859  -2.102  1.00  0.00    -0.322 OA
HETATM   35  C   UNL     1      42.560 -12.169  -3.270  1.00  0.00     0.142 A 
HETATM   36  C   UNL     1      41.386 -12.400  -3.944  1.00  0.00     0.027 A 
HETATM   37  C   UNL     1      40.636 -13.289  -3.134  1.00  0.00     0.040 A 
ENDBRANCH  30  33
ENDBRANCH  26  27
ENDBRANCH   6  26
TORSDOF 7
ENDMDL
