MODEL 1
REMARK VINA RESULT:      -8.8      0.000      0.000
REMARK  3 active torsions:
REMARK  status: ('A' for Active; 'I' for Inactive)
REMARK    1  A    between atoms: C_3  and  C_4 
REMARK    2  A    between atoms: C_4  and  N_5 
REMARK       I    between atoms: N_5  and  C_6 
REMARK    3  A    between atoms: C_6  and  C_7 
ROOT
HETATM    1  C   UNL     1      41.394 -15.588   0.358  1.00  0.00     0.155 A 
HETATM    2  N   UNL     1      41.187 -16.098  -0.879  1.00  0.00    -0.168 NA
HETATM    3  N   UNL     1      41.451 -15.064  -1.709  1.00  0.00    -0.276 N 
HETATM    4  H   UNL     1      41.370 -15.214  -2.709  1.00  0.00     0.189 HD
HETATM    5  C   UNL     1      41.799 -13.927  -1.053  1.00  0.00     0.074 A 
HETATM    6  C   UNL     1      41.764 -14.227   0.282  1.00  0.00     0.031 A 
HETATM    7  C   UNL     1      42.090 -13.219   1.315  1.00  0.00     0.219 A 
HETATM    8  O   UNL     1      42.380 -11.882   0.816  1.00  0.00    -0.346 OA
HETATM    9  C   UNL     1      42.434 -11.652  -0.543  1.00  0.00     0.081 A 
HETATM   10  C   UNL     1      42.157 -12.617  -1.532  1.00  0.00     0.026 A 
HETATM   11  C   UNL     1      42.785 -10.357  -0.920  1.00  0.00     0.038 A 
HETATM   12  C   UNL     1      42.867 -10.020  -2.271  1.00  0.00     0.003 A 
HETATM   13  C   UNL     1      42.596 -10.977  -3.250  1.00  0.00     0.001 A 
HETATM   14  C   UNL     1      42.239 -12.278  -2.884  1.00  0.00     0.016 A 
ENDROOT
BRANCH   1  15
HETATM   15  C   UNL     1      41.236 -16.398   1.576  1.00  0.00     0.272 C 
HETATM   16  N   UNL     1      42.435 -16.775   2.133  1.00  0.00    -0.351 N 
HETATM   17  H   UNL     1      43.270 -16.477   1.636  1.00  0.00     0.163 HD
HETATM   18  O   UNL     1      40.138 -16.699   2.033  1.00  0.00    -0.266 OA
BRANCH  16  19
HETATM   19  C   UNL     1      42.535 -17.590   3.317  1.00  0.00     0.163 C 
BRANCH  19  20
HETATM   20  C   UNL     1      43.237 -18.916   3.119  1.00  0.00    -0.019 A 
HETATM   21  C   UNL     1      43.002 -19.728   1.993  1.00  0.00     0.010 A 
HETATM   22  C   UNL     1      43.657 -20.953   1.836  1.00  0.00     0.001 A 
HETATM   23  C   UNL     1      44.562 -21.392   2.798  1.00  0.00     0.002 A 
HETATM   24  C   UNL     1      44.815 -20.604   3.918  1.00  0.00     0.024 A 
HETATM   25  C   UNL     1      44.161 -19.377   4.077  1.00  0.00     0.042 A 
HETATM   26 CL   UNL     1      44.539 -18.454   5.491  1.00  0.00    -0.084 Cl
ENDBRANCH  19  20
ENDBRANCH  16  19
ENDBRANCH   1  15
TORSDOF 3
ENDMDL
MODEL 2
REMARK VINA RESULT:      -8.6      3.148      4.080
REMARK  3 active torsions:
REMARK  status: ('A' for Active; 'I' for Inactive)
REMARK    1  A    between atoms: C_3  and  C_4 
REMARK    2  A    between atoms: C_4  and  N_5 
REMARK       I    between atoms: N_5  and  C_6 
REMARK    3  A    between atoms: C_6  and  C_7 
ROOT
HETATM    1  C   UNL     1      41.784 -15.866   4.135  1.00  0.00     0.155 A 
HETATM    2  N   UNL     1      40.679 -15.621   4.879  1.00  0.00    -0.168 NA
HETATM    3  N   UNL     1      39.775 -15.162   3.984  1.00  0.00    -0.276 N 
HETATM    4  H   UNL     1      38.848 -14.916   4.317  1.00  0.00     0.189 HD
HETATM    5  C   UNL     1      40.262 -15.094   2.719  1.00  0.00     0.074 A 
HETATM    6  C   UNL     1      41.557 -15.532   2.780  1.00  0.00     0.031 A 
HETATM    7  C   UNL     1      42.414 -15.598   1.576  1.00  0.00     0.219 A 
HETATM    8  O   UNL     1      41.808 -15.102   0.348  1.00  0.00    -0.346 OA
HETATM    9  C   UNL     1      40.487 -14.707   0.345  1.00  0.00     0.081 A 
HETATM   10  C   UNL     1      39.655 -14.674   1.482  1.00  0.00     0.026 A 
HETATM   11  C   UNL     1      39.981 -14.313  -0.893  1.00  0.00     0.038 A 
HETATM   12  C   UNL     1      38.655 -13.894  -1.006  1.00  0.00     0.003 A 
HETATM   13  C   UNL     1      37.831 -13.865   0.121  1.00  0.00     0.001 A 
HETATM   14  C   UNL     1      38.329 -14.253   1.368  1.00  0.00     0.016 A 
ENDROOT
BRANCH   1  15
HETATM   15  C   UNL     1      43.020 -16.407   4.720  1.00  0.00     0.272 C 
HETATM   16  N   UNL     1      43.245 -17.721   4.388  1.00  0.00    -0.351 N 
HETATM   17  H   UNL     1      42.534 -18.161   3.809  1.00  0.00     0.163 HD
HETATM   18  O   UNL     1      43.762 -15.738   5.433  1.00  0.00    -0.266 OA
BRANCH  16  19
HETATM   19  C   UNL     1      44.380 -18.473   4.860  1.00  0.00     0.163 C 
BRANCH  19  20
HETATM   20  C   UNL     1      44.452 -19.898   4.356  1.00  0.00    -0.019 A 
HETATM   21  C   UNL     1      44.687 -20.987   5.215  1.00  0.00     0.010 A 
HETATM   22  C   UNL     1      44.757 -22.294   4.724  1.00  0.00     0.001 A 
HETATM   23  C   UNL     1      44.592 -22.541   3.365  1.00  0.00     0.002 A 
HETATM   24  C   UNL     1      44.354 -21.481   2.495  1.00  0.00     0.024 A 
HETATM   25  C   UNL     1      44.283 -20.172   2.984  1.00  0.00     0.042 A 
HETATM   26 CL   UNL     1      43.973 -18.912   1.839  1.00  0.00    -0.084 Cl
ENDBRANCH  19  20
ENDBRANCH  16  19
ENDBRANCH   1  15
TORSDOF 3
ENDMDL
MODEL 3
REMARK VINA RESULT:      -8.5      3.552      7.961
REMARK  3 active torsions:
REMARK  status: ('A' for Active; 'I' for Inactive)
REMARK    1  A    between atoms: C_3  and  C_4 
REMARK    2  A    between atoms: C_4  and  N_5 
REMARK       I    between atoms: N_5  and  C_6 
REMARK    3  A    between atoms: C_6  and  C_7 
ROOT
HETATM    1  C   UNL     1      40.759 -15.924   2.952  1.00  0.00     0.155 A 
HETATM    2  N   UNL     1      40.745 -15.601   4.267  1.00  0.00    -0.168 NA
HETATM    3  N   UNL     1      41.611 -16.474   4.829  1.00  0.00    -0.276 N 
HETATM    4  H   UNL     1      41.773 -16.416   5.829  1.00  0.00     0.189 HD
HETATM    5  C   UNL     1      42.156 -17.337   3.935  1.00  0.00     0.074 A 
HETATM    6  C   UNL     1      41.623 -17.017   2.716  1.00  0.00     0.031 A 
HETATM    7  C   UNL     1      41.991 -17.754   1.487  1.00  0.00     0.219 A 
HETATM    8  O   UNL     1      42.898 -18.877   1.680  1.00  0.00    -0.346 OA
HETATM    9  C   UNL     1      43.429 -19.127   2.928  1.00  0.00     0.081 A 
HETATM   10  C   UNL     1      43.107 -18.406   4.096  1.00  0.00     0.026 A 
HETATM   11  C   UNL     1      44.339 -20.181   2.994  1.00  0.00     0.038 A 
HETATM   12  C   UNL     1      44.932 -20.517   4.211  1.00  0.00     0.003 A 
HETATM   13  C   UNL     1      44.616 -19.801   5.367  1.00  0.00     0.001 A 
HETATM   14  C   UNL     1      43.702 -18.744   5.313  1.00  0.00     0.016 A 
ENDROOT
BRANCH   1  15
HETATM   15  C   UNL     1      39.959 -15.195   1.956  1.00  0.00     0.272 C 
HETATM   16  N   UNL     1      40.717 -14.395   1.135  1.00  0.00    -0.351 N 
HETATM   17  H   UNL     1      41.715 -14.384   1.323  1.00  0.00     0.163 HD
HETATM   18  O   UNL     1      38.739 -15.299   1.883  1.00  0.00    -0.266 OA
BRANCH  16  19
HETATM   19  C   UNL     1      40.154 -13.568   0.097  1.00  0.00     0.163 C 
BRANCH  19  20
HETATM   20  C   UNL     1      39.966 -14.261  -1.235  1.00  0.00    -0.019 A 
HETATM   21  C   UNL     1      40.887 -15.204  -1.727  1.00  0.00     0.010 A 
HETATM   22  C   UNL     1      40.695 -15.825  -2.965  1.00  0.00     0.001 A 
HETATM   23  C   UNL     1      39.578 -15.519  -3.736  1.00  0.00     0.002 A 
HETATM   24  C   UNL     1      38.650 -14.592  -3.268  1.00  0.00     0.024 A 
HETATM   25  C   UNL     1      38.839 -13.970  -2.029  1.00  0.00     0.042 A 
HETATM   26 CL   UNL     1      37.634 -12.839  -1.516  1.00  0.00    -0.084 Cl
ENDBRANCH  19  20
ENDBRANCH  16  19
ENDBRANCH   1  15
TORSDOF 3
ENDMDL
MODEL 4
REMARK VINA RESULT:      -8.3      2.761      7.995
REMARK  3 active torsions:
REMARK  status: ('A' for Active; 'I' for Inactive)
REMARK    1  A    between atoms: C_3  and  C_4 
REMARK    2  A    between atoms: C_4  and  N_5 
REMARK       I    between atoms: N_5  and  C_6 
REMARK    3  A    between atoms: C_6  and  C_7 
ROOT
HETATM    1  C   UNL     1      42.974 -15.588   3.353  1.00  0.00     0.155 A 
HETATM    2  N   UNL     1      43.090 -15.533   4.701  1.00  0.00    -0.168 NA
HETATM    3  N   UNL     1      43.490 -16.777   5.048  1.00  0.00    -0.276 N 
HETATM    4  H   UNL     1      43.653 -16.975   6.030  1.00  0.00     0.189 HD
HETATM    5  C   UNL     1      43.617 -17.613   3.987  1.00  0.00     0.074 A 
HETATM    6  C   UNL     1      43.284 -16.883   2.878  1.00  0.00     0.031 A 
HETATM    7  C   UNL     1      43.308 -17.472   1.521  1.00  0.00     0.219 A 
HETATM    8  O   UNL     1      43.639 -18.889   1.460  1.00  0.00    -0.346 OA
HETATM    9  C   UNL     1      44.000 -19.561   2.609  1.00  0.00     0.081 A 
HETATM   10  C   UNL     1      44.011 -18.996   3.900  1.00  0.00     0.026 A 
HETATM   11  C   UNL     1      44.365 -20.895   2.435  1.00  0.00     0.038 A 
HETATM   12  C   UNL     1      44.745 -21.665   3.535  1.00  0.00     0.003 A 
HETATM   13  C   UNL     1      44.760 -21.104   4.812  1.00  0.00     0.001 A 
HETATM   14  C   UNL     1      44.392 -19.768   4.999  1.00  0.00     0.016 A 
ENDROOT
BRANCH   1  15
HETATM   15  C   UNL     1      42.576 -14.422   2.551  1.00  0.00     0.272 C 
HETATM   16  N   UNL     1      41.428 -14.632   1.825  1.00  0.00    -0.351 N 
HETATM   17  H   UNL     1      41.011 -15.555   1.909  1.00  0.00     0.163 HD
HETATM   18  O   UNL     1      43.218 -13.376   2.539  1.00  0.00    -0.266 OA
BRANCH  16  19
HETATM   19  C   UNL     1      40.854 -13.642   0.948  1.00  0.00     0.163 C 
BRANCH  19  20
HETATM   20  C   UNL     1      41.160 -13.841  -0.520  1.00  0.00    -0.019 A 
HETATM   21  C   UNL     1      40.688 -14.954  -1.241  1.00  0.00     0.010 A 
HETATM   22  C   UNL     1      40.991 -15.120  -2.595  1.00  0.00     0.001 A 
HETATM   23  C   UNL     1      41.769 -14.176  -3.259  1.00  0.00     0.002 A 
HETATM   24  C   UNL     1      42.243 -13.064  -2.569  1.00  0.00     0.024 A 
HETATM   25  C   UNL     1      41.941 -12.896  -1.213  1.00  0.00     0.042 A 
HETATM   26 CL   UNL     1      42.560 -11.481  -0.432  1.00  0.00    -0.084 Cl
ENDBRANCH  19  20
ENDBRANCH  16  19
ENDBRANCH   1  15
TORSDOF 3
ENDMDL
MODEL 5
REMARK VINA RESULT:      -8.2      2.976      8.122
REMARK  3 active torsions:
REMARK  status: ('A' for Active; 'I' for Inactive)
REMARK    1  A    between atoms: C_3  and  C_4 
REMARK    2  A    between atoms: C_4  and  N_5 
REMARK       I    between atoms: N_5  and  C_6 
REMARK    3  A    between atoms: C_6  and  C_7 
ROOT
HETATM    1  C   UNL     1      43.155 -15.950   3.742  1.00  0.00     0.155 A 
HETATM    2  N   UNL     1      43.455 -16.040   5.060  1.00  0.00    -0.168 NA
HETATM    3  N   UNL     1      43.826 -17.330   5.225  1.00  0.00    -0.276 N 
HETATM    4  H   UNL     1      44.109 -17.636   6.150  1.00  0.00     0.189 HD
HETATM    5  C   UNL     1      43.759 -18.056   4.081  1.00  0.00     0.074 A 
HETATM    6  C   UNL     1      43.322 -17.201   3.106  1.00  0.00     0.031 A 
HETATM    7  C   UNL     1      43.127 -17.647   1.709  1.00  0.00     0.219 A 
HETATM    8  O   UNL     1      43.365 -19.063   1.465  1.00  0.00    -0.346 OA
HETATM    9  C   UNL     1      43.838 -19.865   2.481  1.00  0.00     0.081 A 
HETATM   10  C   UNL     1      44.057 -19.438   3.806  1.00  0.00     0.026 A 
HETATM   11  C   UNL     1      44.098 -21.189   2.129  1.00  0.00     0.038 A 
HETATM   12  C   UNL     1      44.579 -22.085   3.085  1.00  0.00     0.003 A 
HETATM   13  C   UNL     1      44.799 -21.660   4.396  1.00  0.00     0.001 A 
HETATM   14  C   UNL     1      44.538 -20.336   4.761  1.00  0.00     0.016 A 
ENDROOT
BRANCH   1  15
HETATM   15  C   UNL     1      42.719 -14.690   3.121  1.00  0.00     0.272 C 
HETATM   16  N   UNL     1      41.386 -14.684   2.789  1.00  0.00    -0.351 N 
HETATM   17  H   UNL     1      40.874 -15.540   2.987  1.00  0.00     0.163 HD
HETATM   18  O   UNL     1      43.484 -13.752   2.923  1.00  0.00    -0.266 OA
BRANCH  16  19
HETATM   19  C   UNL     1      40.735 -13.569   2.149  1.00  0.00     0.163 C 
BRANCH  19  20
HETATM   20  C   UNL     1      40.618 -13.680   0.644  1.00  0.00    -0.019 A 
HETATM   21  C   UNL     1      41.719 -13.488  -0.210  1.00  0.00     0.010 A 
HETATM   22  C   UNL     1      41.584 -13.588  -1.598  1.00  0.00     0.001 A 
HETATM   23  C   UNL     1      40.347 -13.883  -2.161  1.00  0.00     0.002 A 
HETATM   24  C   UNL     1      39.243 -14.082  -1.336  1.00  0.00     0.024 A 
HETATM   25  C   UNL     1      39.376 -13.983   0.053  1.00  0.00     0.042 A 
HETATM   26 CL   UNL     1      37.958 -14.255   1.007  1.00  0.00    -0.084 Cl
ENDBRANCH  19  20
ENDBRANCH  16  19
ENDBRANCH   1  15
TORSDOF 3
ENDMDL
MODEL 6
REMARK VINA RESULT:      -8.2      3.203      8.211
REMARK  3 active torsions:
REMARK  status: ('A' for Active; 'I' for Inactive)
REMARK    1  A    between atoms: C_3  and  C_4 
REMARK    2  A    between atoms: C_4  and  N_5 
REMARK       I    between atoms: N_5  and  C_6 
REMARK    3  A    between atoms: C_6  and  C_7 
ROOT
HETATM    1  C   UNL     1      42.962 -16.659   1.591  1.00  0.00     0.155 A 
HETATM    2  N   UNL     1      43.646 -17.468   0.748  1.00  0.00    -0.168 NA
HETATM    3  N   UNL     1      44.053 -18.492   1.532  1.00  0.00    -0.276 N 
HETATM    4  H   UNL     1      44.589 -19.242   1.107  1.00  0.00     0.189 HD
HETATM    5  C   UNL     1      43.670 -18.358   2.827  1.00  0.00     0.074 A 
HETATM    6  C   UNL     1      42.972 -17.184   2.904  1.00  0.00     0.031 A 
HETATM    7  C   UNL     1      42.392 -16.704   4.178  1.00  0.00     0.219 A 
HETATM    8  O   UNL     1      42.677 -17.528   5.344  1.00  0.00    -0.346 OA
HETATM    9  C   UNL     1      43.356 -18.719   5.196  1.00  0.00     0.081 A 
HETATM   10  C   UNL     1      43.881 -19.197   3.978  1.00  0.00     0.026 A 
HETATM   11  C   UNL     1      43.518 -19.467   6.361  1.00  0.00     0.038 A 
HETATM   12  C   UNL     1      44.194 -20.687   6.320  1.00  0.00     0.003 A 
HETATM   13  C   UNL     1      44.710 -21.162   5.113  1.00  0.00     0.001 A 
HETATM   14  C   UNL     1      44.557 -20.418   3.939  1.00  0.00     0.016 A 
ENDROOT
BRANCH   1  15
HETATM   15  C   UNL     1      42.318 -15.417   1.138  1.00  0.00     0.272 C 
HETATM   16  N   UNL     1      41.886 -15.477  -0.165  1.00  0.00    -0.351 N 
HETATM   17  H   UNL     1      42.078 -16.345  -0.658  1.00  0.00     0.163 HD
HETATM   18  O   UNL     1      42.192 -14.435   1.862  1.00  0.00    -0.266 OA
BRANCH  16  19
HETATM   19  C   UNL     1      41.246 -14.375  -0.838  1.00  0.00     0.163 C 
BRANCH  19  20
HETATM   20  C   UNL     1      40.243 -14.774  -1.898  1.00  0.00    -0.019 A 
HETATM   21  C   UNL     1      40.512 -15.779  -2.846  1.00  0.00     0.010 A 
HETATM   22  C   UNL     1      39.572 -16.124  -3.821  1.00  0.00     0.001 A 
HETATM   23  C   UNL     1      38.343 -15.475  -3.869  1.00  0.00     0.002 A 
HETATM   24  C   UNL     1      38.051 -14.480  -2.939  1.00  0.00     0.024 A 
HETATM   25  C   UNL     1      38.990 -14.133  -1.962  1.00  0.00     0.042 A 
HETATM   26 CL   UNL     1      38.545 -12.895  -0.838  1.00  0.00    -0.084 Cl
ENDBRANCH  19  20
ENDBRANCH  16  19
ENDBRANCH   1  15
TORSDOF 3
ENDMDL
MODEL 7
REMARK VINA RESULT:      -8.2      5.957      9.252
REMARK  3 active torsions:
REMARK  status: ('A' for Active; 'I' for Inactive)
REMARK    1  A    between atoms: C_3  and  C_4 
REMARK    2  A    between atoms: C_4  and  N_5 
REMARK       I    between atoms: N_5  and  C_6 
REMARK    3  A    between atoms: C_6  and  C_7 
ROOT
HETATM    1  C   UNL     1      43.411 -15.222   6.257  1.00  0.00     0.155 A 
HETATM    2  N   UNL     1      43.792 -15.901   7.366  1.00  0.00    -0.168 NA
HETATM    3  N   UNL     1      44.108 -17.132   6.904  1.00  0.00    -0.276 N 
HETATM    4  H   UNL     1      44.436 -17.827   7.568  1.00  0.00     0.189 HD
HETATM    5  C   UNL     1      43.932 -17.263   5.565  1.00  0.00     0.074 A 
HETATM    6  C   UNL     1      43.475 -16.054   5.116  1.00  0.00     0.031 A 
HETATM    7  C   UNL     1      43.169 -15.817   3.688  1.00  0.00     0.219 A 
HETATM    8  O   UNL     1      43.321 -16.974   2.816  1.00  0.00    -0.346 OA
HETATM    9  C   UNL     1      43.819 -18.156   3.322  1.00  0.00     0.081 A 
HETATM   10  C   UNL     1      44.144 -18.376   4.676  1.00  0.00     0.026 A 
HETATM   11  C   UNL     1      43.991 -19.182   2.394  1.00  0.00     0.038 A 
HETATM   12  C   UNL     1      44.488 -20.420   2.804  1.00  0.00     0.003 A 
HETATM   13  C   UNL     1      44.813 -20.635   4.144  1.00  0.00     0.001 A 
HETATM   14  C   UNL     1      44.642 -19.615   5.084  1.00  0.00     0.016 A 
ENDROOT
BRANCH   1  15
HETATM   15  C   UNL     1      42.999 -13.811   6.305  1.00  0.00     0.272 C 
HETATM   16  N   UNL     1      43.514 -13.134   7.384  1.00  0.00    -0.351 N 
HETATM   17  H   UNL     1      44.087 -13.681   8.020  1.00  0.00     0.163 HD
HETATM   18  O   UNL     1      42.265 -13.308   5.460  1.00  0.00    -0.266 OA
BRANCH  16  19
HETATM   19  C   UNL     1      43.232 -11.747   7.655  1.00  0.00     0.163 C 
BRANCH  19  20
HETATM   20  C   UNL     1      43.503 -11.309   9.078  1.00  0.00    -0.019 A 
HETATM   21  C   UNL     1      42.471 -10.916   9.951  1.00  0.00     0.010 A 
HETATM   22  C   UNL     1      42.747 -10.508  11.259  1.00  0.00     0.001 A 
HETATM   23  C   UNL     1      44.058 -10.487  11.724  1.00  0.00     0.002 A 
HETATM   24  C   UNL     1      45.096 -10.877  10.881  1.00  0.00     0.024 A 
HETATM   25  C   UNL     1      44.822 -11.285   9.571  1.00  0.00     0.042 A 
HETATM   26 CL   UNL     1      46.166 -11.764   8.591  1.00  0.00    -0.084 Cl
ENDBRANCH  19  20
ENDBRANCH  16  19
ENDBRANCH   1  15
TORSDOF 3
ENDMDL
MODEL 8
REMARK VINA RESULT:      -8.1      5.548      9.061
REMARK  3 active torsions:
REMARK  status: ('A' for Active; 'I' for Inactive)
REMARK    1  A    between atoms: C_3  and  C_4 
REMARK    2  A    between atoms: C_4  and  N_5 
REMARK       I    between atoms: N_5  and  C_6 
REMARK    3  A    between atoms: C_6  and  C_7 
ROOT
HETATM    1  C   UNL     1      43.648 -16.375   5.627  1.00  0.00     0.155 A 
HETATM    2  N   UNL     1      44.192 -16.981   6.709  1.00  0.00    -0.168 NA
HETATM    3  N   UNL     1      44.452 -18.238   6.286  1.00  0.00    -0.276 N 
HETATM    4  H   UNL     1      44.879 -18.888   6.938  1.00  0.00     0.189 HD
HETATM    5  C   UNL     1      44.085 -18.456   4.998  1.00  0.00     0.074 A 
HETATM    6  C   UNL     1      43.555 -17.279   4.544  1.00  0.00     0.031 A 
HETATM    7  C   UNL     1      43.042 -17.136   3.163  1.00  0.00     0.219 A 
HETATM    8  O   UNL     1      43.079 -18.346   2.354  1.00  0.00    -0.346 OA
HETATM    9  C   UNL     1      43.658 -19.492   2.857  1.00  0.00     0.081 A 
HETATM   10  C   UNL     1      44.178 -19.624   4.160  1.00  0.00     0.026 A 
HETATM   11  C   UNL     1      43.705 -20.576   1.981  1.00  0.00     0.038 A 
HETATM   12  C   UNL     1      44.269 -21.784   2.393  1.00  0.00     0.003 A 
HETATM   13  C   UNL     1      44.787 -21.912   3.682  1.00  0.00     0.001 A 
HETATM   14  C   UNL     1      44.742 -20.833   4.570  1.00  0.00     0.016 A 
ENDROOT
BRANCH   1  15
HETATM   15  C   UNL     1      43.231 -14.965   5.644  1.00  0.00     0.272 C 
HETATM   16  N   UNL     1      43.654 -14.290   6.763  1.00  0.00    -0.351 N 
HETATM   17  H   UNL     1      44.173 -14.838   7.443  1.00  0.00     0.163 HD
HETATM   18  O   UNL     1      42.569 -14.460   4.742  1.00  0.00    -0.266 OA
BRANCH  16  19
HETATM   19  C   UNL     1      43.349 -12.904   7.014  1.00  0.00     0.163 C 
BRANCH  19  20
HETATM   20  C   UNL     1      44.087 -12.292   8.185  1.00  0.00    -0.019 A 
HETATM   21  C   UNL     1      45.372 -12.720   8.568  1.00  0.00     0.010 A 
HETATM   22  C   UNL     1      46.030 -12.145   9.659  1.00  0.00     0.001 A 
HETATM   23  C   UNL     1      45.421 -11.129  10.388  1.00  0.00     0.002 A 
HETATM   24  C   UNL     1      44.152 -10.685  10.025  1.00  0.00     0.024 A 
HETATM   25  C   UNL     1      43.491 -11.259   8.934  1.00  0.00     0.042 A 
HETATM   26 CL   UNL     1      41.922 -10.643   8.542  1.00  0.00    -0.084 Cl
ENDBRANCH  19  20
ENDBRANCH  16  19
ENDBRANCH   1  15
TORSDOF 3
ENDMDL
MODEL 9
REMARK VINA RESULT:      -8.1      4.209      8.257
REMARK  3 active torsions:
REMARK  status: ('A' for Active; 'I' for Inactive)
REMARK    1  A    between atoms: C_3  and  C_4 
REMARK    2  A    between atoms: C_4  and  N_5 
REMARK       I    between atoms: N_5  and  C_6 
REMARK    3  A    between atoms: C_6  and  C_7 
ROOT
HETATM    1  C   UNL     1      43.324 -16.150   2.856  1.00  0.00     0.155 A 
HETATM    2  N   UNL     1      43.066 -16.343   1.541  1.00  0.00    -0.168 NA
HETATM    3  N   UNL     1      43.268 -17.667   1.357  1.00  0.00    -0.276 N 
HETATM    4  H   UNL     1      43.122 -18.054   0.430  1.00  0.00     0.189 HD
HETATM    5  C   UNL     1      43.653 -18.311   2.488  1.00  0.00     0.074 A 
HETATM    6  C   UNL     1      43.709 -17.362   3.472  1.00  0.00     0.031 A 
HETATM    7  C   UNL     1      44.097 -17.700   4.859  1.00  0.00     0.219 A 
HETATM    8  O   UNL     1      44.479 -19.088   5.081  1.00  0.00    -0.346 OA
HETATM    9  C   UNL     1      44.368 -20.004   4.057  1.00  0.00     0.081 A 
HETATM   10  C   UNL     1      43.967 -19.693   2.742  1.00  0.00     0.026 A 
HETATM   11  C   UNL     1      44.693 -21.318   4.389  1.00  0.00     0.038 A 
HETATM   12  C   UNL     1      44.616 -22.323   3.423  1.00  0.00     0.003 A 
HETATM   13  C   UNL     1      44.215 -22.015   2.122  1.00  0.00     0.001 A 
HETATM   14  C   UNL     1      43.890 -20.700   1.777  1.00  0.00     0.016 A 
ENDROOT
BRANCH   1  15
HETATM   15  C   UNL     1      43.202 -14.830   3.494  1.00  0.00     0.272 C 
HETATM   16  N   UNL     1      42.165 -14.758   4.392  1.00  0.00    -0.351 N 
HETATM   17  H   UNL     1      41.602 -15.599   4.491  1.00  0.00     0.163 HD
HETATM   18  O   UNL     1      43.957 -13.898   3.235  1.00  0.00    -0.266 OA
BRANCH  16  19
HETATM   19  C   UNL     1      41.834 -13.562   5.125  1.00  0.00     0.163 C 
BRANCH  19  20
HETATM   20  C   UNL     1      40.668 -12.776   4.565  1.00  0.00    -0.019 A 
HETATM   21  C   UNL     1      40.027 -13.137   3.365  1.00  0.00     0.010 A 
HETATM   22  C   UNL     1      38.956 -12.390   2.865  1.00  0.00     0.001 A 
HETATM   23  C   UNL     1      38.502 -11.270   3.553  1.00  0.00     0.002 A 
HETATM   24  C   UNL     1      39.117 -10.895   4.745  1.00  0.00     0.024 A 
HETATM   25  C   UNL     1      40.188 -11.641   5.249  1.00  0.00     0.042 A 
HETATM   26 CL   UNL     1      40.889 -11.116   6.741  1.00  0.00    -0.084 Cl
ENDBRANCH  19  20
ENDBRANCH  16  19
ENDBRANCH   1  15
TORSDOF 3
ENDMDL
MODEL 10
REMARK VINA RESULT:      -8.1      4.508      8.388
REMARK  3 active torsions:
REMARK  status: ('A' for Active; 'I' for Inactive)
REMARK    1  A    between atoms: C_3  and  C_4 
REMARK    2  A    between atoms: C_4  and  N_5 
REMARK       I    between atoms: N_5  and  C_6 
REMARK    3  A    between atoms: C_6  and  C_7 
ROOT
HETATM    1  C   UNL     1      43.570 -16.583   5.494  1.00  0.00     0.155 A 
HETATM    2  N   UNL     1      44.229 -17.169   6.523  1.00  0.00    -0.168 NA
HETATM    3  N   UNL     1      44.512 -18.410   6.067  1.00  0.00    -0.276 N 
HETATM    4  H   UNL     1      45.022 -19.043   6.675  1.00  0.00     0.189 HD
HETATM    5  C   UNL     1      44.052 -18.636   4.811  1.00  0.00     0.074 A 
HETATM    6  C   UNL     1      43.432 -17.483   4.414  1.00  0.00     0.031 A 
HETATM    7  C   UNL     1      42.802 -17.356   3.081  1.00  0.00     0.219 A 
HETATM    8  O   UNL     1      42.829 -18.559   2.259  1.00  0.00    -0.346 OA
HETATM    9  C   UNL     1      43.501 -19.679   2.702  1.00  0.00     0.081 A 
HETATM   10  C   UNL     1      44.131 -19.793   3.957  1.00  0.00     0.026 A 
HETATM   11  C   UNL     1      43.527 -20.753   1.814  1.00  0.00     0.038 A 
HETATM   12  C   UNL     1      44.180 -21.936   2.166  1.00  0.00     0.003 A 
HETATM   13  C   UNL     1      44.807 -22.047   3.408  1.00  0.00     0.001 A 
HETATM   14  C   UNL     1      44.784 -20.977   4.307  1.00  0.00     0.016 A 
ENDROOT
BRANCH   1  15
HETATM   15  C   UNL     1      43.090 -15.194   5.559  1.00  0.00     0.272 C 
HETATM   16  N   UNL     1      41.721 -15.099   5.631  1.00  0.00    -0.351 N 
HETATM   17  H   UNL     1      41.212 -15.978   5.609  1.00  0.00     0.163 HD
HETATM   18  O   UNL     1      43.849 -14.231   5.545  1.00  0.00    -0.266 OA
BRANCH  16  19
HETATM   19  C   UNL     1      41.017 -13.842   5.682  1.00  0.00     0.163 C 
BRANCH  19  20
HETATM   20  C   UNL     1      40.237 -13.500   4.431  1.00  0.00    -0.019 A 
HETATM   21  C   UNL     1      40.153 -14.380   3.335  1.00  0.00     0.010 A 
HETATM   22  C   UNL     1      39.432 -14.038   2.188  1.00  0.00     0.001 A 
HETATM   23  C   UNL     1      38.779 -12.812   2.110  1.00  0.00     0.002 A 
HETATM   24  C   UNL     1      38.843 -11.927   3.183  1.00  0.00     0.024 A 
HETATM   25  C   UNL     1      39.563 -12.267   4.333  1.00  0.00     0.042 A 
HETATM   26 CL   UNL     1      39.585 -11.116   5.626  1.00  0.00    -0.084 Cl
ENDBRANCH  19  20
ENDBRANCH  16  19
ENDBRANCH   1  15
TORSDOF 3
ENDMDL
