MODEL 1
REMARK VINA RESULT:      -7.7      0.000      0.000
REMARK  7 active torsions:
REMARK  status: ('A' for Active; 'I' for Inactive)
REMARK    1  A    between atoms: S_2  and  C_3 
REMARK    2  A    between atoms: C_3  and  C_4 
REMARK    3  A    between atoms: C_4  and  C_5 
REMARK    4  A    between atoms: C_5  and  N_6 
REMARK    5  A    between atoms: C_5  and  C_10 
REMARK       I    between atoms: N_6  and  C_7 
REMARK       I    between atoms: C_7  and  N_8 
REMARK       I    between atoms: C_10  and  N_11 
REMARK    6  A    between atoms: N_11  and  N_12 
REMARK       I    between atoms: N_12  and  C_13 
REMARK    7  A    between atoms: C_13  and  C_14 
ROOT
HETATM    1  C   UNL     1      44.345 -13.112   7.881  1.00  0.00     0.259 C 
HETATM    2  N   UNL     1      43.366 -13.586   7.034  1.00  0.00    -0.265 N 
HETATM    3  O   UNL     1      45.504 -13.537   7.825  1.00  0.00    -0.269 OA
HETATM    4  H   UNL     1      42.399 -13.264   7.017  1.00  0.00     0.190 HD
ENDROOT
BRANCH   2   5
HETATM    5  N   UNL     1      43.663 -14.664   6.194  1.00  0.00    -0.263 N 
HETATM    6  C   UNL     1      42.646 -15.537   5.842  1.00  0.00     0.278 C 
HETATM    7  O   UNL     1      41.491 -15.293   6.199  1.00  0.00    -0.265 OA
HETATM    8  H   UNL     1      44.643 -14.822   5.962  1.00  0.00     0.190 HD
BRANCH   6   9
HETATM    9  C   UNL     1      43.037 -16.705   5.066  1.00  0.00     0.097 A 
HETATM   10  S   UNL     1      44.145 -17.848   5.696  1.00  0.00    -0.082 SA
HETATM   11  C   UNL     1      44.034 -18.864   4.317  1.00  0.00     0.017 A 
HETATM   12  C   UNL     1      43.170 -18.331   3.357  1.00  0.00     0.004 A 
HETATM   13  C   UNL     1      44.701 -20.088   4.116  1.00  0.00     0.020 A 
HETATM   14  C   UNL     1      42.606 -17.081   3.807  1.00  0.00     0.068 A 
HETATM   15  C   UNL     1      42.988 -19.065   2.156  1.00  0.00     0.014 A 
HETATM   16 CL   UNL     1      41.510 -16.195   2.818  1.00  0.00    -0.082 Cl
HETATM   17  C   UNL     1      43.648 -20.280   1.952  1.00  0.00     0.001 A 
HETATM   18  C   UNL     1      44.495 -20.787   2.926  1.00  0.00     0.001 A 
ENDBRANCH   6   9
ENDBRANCH   2   5
BRANCH   1  19
HETATM   19  C   UNL     1      43.927 -11.929   8.790  1.00  0.00     0.180 C 
BRANCH  19  20
HETATM   20  C   UNL     1      42.880 -11.000   8.150  1.00  0.00     0.045 C 
BRANCH  20  21
HETATM   21  C   UNL     1      41.886 -10.430   9.160  1.00  0.00     0.076 C 
BRANCH  21  22
HETATM   22  S   UNL     1      40.369  -9.911   8.291  1.00  0.00    -0.173 SA
HETATM   23  C   UNL     1      39.281 -11.258   8.811  1.00  0.00     0.089 C 
ENDBRANCH  21  22
ENDBRANCH  20  21
ENDBRANCH  19  20
BRANCH  19  24
HETATM   24  N   UNL     1      43.577 -12.460  10.111  1.00  0.00    -0.330 N 
HETATM   25  C   UNL     1      44.504 -12.619  11.099  1.00  0.00     0.314 C 
HETATM   26  N   UNL     1      43.949 -12.968  12.286  1.00  0.00    -0.352 N 
HETATM   27  O   UNL     1      45.714 -12.539  10.965  1.00  0.00    -0.248 OA
HETATM   28  H   UNL     1      43.051 -12.584  12.536  1.00  0.00     0.160 HD
HETATM   29  H   UNL     1      44.619 -13.014  13.043  1.00  0.00     0.160 HD
HETATM   30  H   UNL     1      42.671 -12.173  10.451  1.00  0.00     0.165 HD
ENDBRANCH  19  24
ENDBRANCH   1  19
TORSDOF 7
ENDMDL
MODEL 2
REMARK VINA RESULT:      -7.6      3.329      4.067
REMARK  7 active torsions:
REMARK  status: ('A' for Active; 'I' for Inactive)
REMARK    1  A    between atoms: S_2  and  C_3 
REMARK    2  A    between atoms: C_3  and  C_4 
REMARK    3  A    between atoms: C_4  and  C_5 
REMARK    4  A    between atoms: C_5  and  N_6 
REMARK    5  A    between atoms: C_5  and  C_10 
REMARK       I    between atoms: N_6  and  C_7 
REMARK       I    between atoms: C_7  and  N_8 
REMARK       I    between atoms: C_10  and  N_11 
REMARK    6  A    between atoms: N_11  and  N_12 
REMARK       I    between atoms: N_12  and  C_13 
REMARK    7  A    between atoms: C_13  and  C_14 
ROOT
HETATM    1  C   UNL     1      40.262 -13.992   5.149  1.00  0.00     0.259 C 
HETATM    2  N   UNL     1      41.103 -14.752   5.934  1.00  0.00    -0.265 N 
HETATM    3  O   UNL     1      39.797 -14.433   4.093  1.00  0.00    -0.269 OA
HETATM    4  H   UNL     1      41.503 -14.455   6.823  1.00  0.00     0.190 HD
ENDROOT
BRANCH   2   5
HETATM    5  N   UNL     1      41.543 -15.989   5.452  1.00  0.00    -0.263 N 
HETATM    6  C   UNL     1      42.859 -16.114   5.038  1.00  0.00     0.278 C 
HETATM    7  O   UNL     1      43.633 -15.166   5.189  1.00  0.00    -0.265 OA
HETATM    8  H   UNL     1      40.843 -16.720   5.326  1.00  0.00     0.190 HD
BRANCH   6   9
HETATM    9  C   UNL     1      43.228 -17.387   4.435  1.00  0.00     0.097 A 
HETATM   10  S   UNL     1      44.293 -18.463   5.235  1.00  0.00    -0.082 SA
HETATM   11  C   UNL     1      44.174 -19.654   4.005  1.00  0.00     0.017 A 
HETATM   12  C   UNL     1      43.340 -19.234   2.967  1.00  0.00     0.004 A 
HETATM   13  C   UNL     1      44.809 -20.911   3.986  1.00  0.00     0.020 A 
HETATM   14  C   UNL     1      42.805 -17.921   3.231  1.00  0.00     0.068 A 
HETATM   15  C   UNL     1      43.154 -20.121   1.873  1.00  0.00     0.014 A 
HETATM   16 CL   UNL     1      41.750 -17.149   2.111  1.00  0.00    -0.082 Cl
HETATM   17  C   UNL     1      43.782 -21.370   1.849  1.00  0.00     0.001 A 
HETATM   18  C   UNL     1      44.600 -21.761   2.898  1.00  0.00     0.001 A 
ENDBRANCH   6   9
ENDBRANCH   2   5
BRANCH   1  19
HETATM   19  C   UNL     1      39.838 -12.629   5.751  1.00  0.00     0.180 C 
BRANCH  19  20
HETATM   20  C   UNL     1      38.828 -11.859   4.882  1.00  0.00     0.045 C 
BRANCH  20  21
HETATM   21  C   UNL     1      39.439 -10.644   4.185  1.00  0.00     0.076 C 
BRANCH  21  22
HETATM   22  S   UNL     1      39.796 -11.059   2.445  1.00  0.00    -0.173 SA
HETATM   23  C   UNL     1      38.267 -11.941   2.056  1.00  0.00     0.089 C 
ENDBRANCH  21  22
ENDBRANCH  20  21
ENDBRANCH  19  20
BRANCH  19  24
HETATM   24  N   UNL     1      39.437 -12.841   7.146  1.00  0.00    -0.330 N 
HETATM   25  C   UNL     1      39.454 -11.836   8.068  1.00  0.00     0.314 C 
HETATM   26  N   UNL     1      38.897 -12.200   9.248  1.00  0.00    -0.352 N 
HETATM   27  O   UNL     1      39.966 -10.738   7.920  1.00  0.00    -0.248 OA
HETATM   28  H   UNL     1      38.104 -12.824   9.242  1.00  0.00     0.160 HD
HETATM   29  H   UNL     1      38.834 -11.439   9.913  1.00  0.00     0.160 HD
HETATM   30  H   UNL     1      38.671 -13.486   7.268  1.00  0.00     0.165 HD
ENDBRANCH  19  24
ENDBRANCH   1  19
TORSDOF 7
ENDMDL
MODEL 3
REMARK VINA RESULT:      -7.5      6.317      9.331
REMARK  7 active torsions:
REMARK  status: ('A' for Active; 'I' for Inactive)
REMARK    1  A    between atoms: S_2  and  C_3 
REMARK    2  A    between atoms: C_3  and  C_4 
REMARK    3  A    between atoms: C_4  and  C_5 
REMARK    4  A    between atoms: C_5  and  N_6 
REMARK    5  A    between atoms: C_5  and  C_10 
REMARK       I    between atoms: N_6  and  C_7 
REMARK       I    between atoms: C_7  and  N_8 
REMARK       I    between atoms: C_10  and  N_11 
REMARK    6  A    between atoms: N_11  and  N_12 
REMARK       I    between atoms: N_12  and  C_13 
REMARK    7  A    between atoms: C_13  and  C_14 
ROOT
HETATM    1  C   UNL     1      41.252 -14.806  -0.651  1.00  0.00     0.259 C 
HETATM    2  N   UNL     1      41.938 -15.989  -0.480  1.00  0.00    -0.265 N 
HETATM    3  O   UNL     1      41.156 -13.981   0.264  1.00  0.00    -0.269 OA
HETATM    4  H   UNL     1      42.070 -16.700  -1.199  1.00  0.00     0.190 HD
ENDROOT
BRANCH   2   5
HETATM    5  N   UNL     1      42.413 -16.317   0.794  1.00  0.00    -0.263 N 
HETATM    6  C   UNL     1      41.721 -17.256   1.542  1.00  0.00     0.278 C 
HETATM    7  O   UNL     1      40.764 -17.846   1.036  1.00  0.00    -0.265 OA
HETATM    8  H   UNL     1      43.191 -15.770   1.161  1.00  0.00     0.190 HD
BRANCH   6   9
HETATM    9  C   UNL     1      42.191 -17.469   2.904  1.00  0.00     0.097 A 
HETATM   10  S   UNL     1      41.446 -16.674   4.225  1.00  0.00    -0.082 SA
HETATM   11  C   UNL     1      42.451 -17.444   5.384  1.00  0.00     0.017 A 
HETATM   12  C   UNL     1      43.375 -18.296   4.774  1.00  0.00     0.004 A 
HETATM   13  C   UNL     1      42.402 -17.281   6.782  1.00  0.00     0.020 A 
HETATM   14  C   UNL     1      43.211 -18.294   3.340  1.00  0.00     0.068 A 
HETATM   15  C   UNL     1      44.280 -18.996   5.615  1.00  0.00     0.014 A 
HETATM   16 CL   UNL     1      44.225 -19.250   2.329  1.00  0.00    -0.082 Cl
HETATM   17  C   UNL     1      44.235 -18.838   7.003  1.00  0.00     0.001 A 
HETATM   18  C   UNL     1      43.303 -17.989   7.580  1.00  0.00     0.001 A 
ENDBRANCH   6   9
ENDBRANCH   2   5
BRANCH   1  19
HETATM   19  C   UNL     1      40.746 -14.529  -2.089  1.00  0.00     0.180 C 
BRANCH  19  20
HETATM   20  C   UNL     1      41.780 -13.820  -2.981  1.00  0.00     0.045 C 
BRANCH  20  21
HETATM   21  C   UNL     1      41.232 -12.561  -3.652  1.00  0.00     0.076 C 
BRANCH  21  22
HETATM   22  S   UNL     1      42.405 -11.185  -3.410  1.00  0.00    -0.173 SA
HETATM   23  C   UNL     1      42.857 -11.511  -1.691  1.00  0.00     0.089 C 
ENDBRANCH  21  22
ENDBRANCH  20  21
ENDBRANCH  19  20
BRANCH  19  24
HETATM   24  N   UNL     1      40.189 -15.772  -2.633  1.00  0.00    -0.330 N 
HETATM   25  C   UNL     1      39.166 -15.777  -3.535  1.00  0.00     0.314 C 
HETATM   26  N   UNL     1      38.911 -17.012  -4.030  1.00  0.00    -0.352 N 
HETATM   27  O   UNL     1      38.478 -14.816  -3.841  1.00  0.00    -0.248 OA
HETATM   28  H   UNL     1      39.682 -17.644  -4.184  1.00  0.00     0.160 HD
HETATM   29  H   UNL     1      38.206 -17.015  -4.757  1.00  0.00     0.160 HD
HETATM   30  H   UNL     1      40.869 -16.500  -2.791  1.00  0.00     0.165 HD
ENDBRANCH  19  24
ENDBRANCH   1  19
TORSDOF 7
ENDMDL
MODEL 4
REMARK VINA RESULT:      -7.4      2.271      3.025
REMARK  7 active torsions:
REMARK  status: ('A' for Active; 'I' for Inactive)
REMARK    1  A    between atoms: S_2  and  C_3 
REMARK    2  A    between atoms: C_3  and  C_4 
REMARK    3  A    between atoms: C_4  and  C_5 
REMARK    4  A    between atoms: C_5  and  N_6 
REMARK    5  A    between atoms: C_5  and  C_10 
REMARK       I    between atoms: N_6  and  C_7 
REMARK       I    between atoms: C_7  and  N_8 
REMARK       I    between atoms: C_10  and  N_11 
REMARK    6  A    between atoms: N_11  and  N_12 
REMARK       I    between atoms: N_12  and  C_13 
REMARK    7  A    between atoms: C_13  and  C_14 
ROOT
HETATM    1  C   UNL     1      44.277 -13.285   7.753  1.00  0.00     0.259 C 
HETATM    2  N   UNL     1      43.292 -13.718   6.890  1.00  0.00    -0.265 N 
HETATM    3  O   UNL     1      45.416 -13.763   7.719  1.00  0.00    -0.269 OA
HETATM    4  H   UNL     1      42.341 -13.352   6.854  1.00  0.00     0.190 HD
ENDROOT
BRANCH   2   5
HETATM    5  N   UNL     1      43.555 -14.812   6.060  1.00  0.00    -0.263 N 
HETATM    6  C   UNL     1      42.527 -15.698   5.778  1.00  0.00     0.278 C 
HETATM    7  O   UNL     1      41.389 -15.453   6.186  1.00  0.00    -0.265 OA
HETATM    8  H   UNL     1      44.523 -14.970   5.783  1.00  0.00     0.190 HD
BRANCH   6   9
HETATM    9  C   UNL     1      42.887 -16.881   5.009  1.00  0.00     0.097 A 
HETATM   10  S   UNL     1      42.108 -17.235   3.526  1.00  0.00    -0.082 SA
HETATM   11  C   UNL     1      43.066 -18.630   3.241  1.00  0.00     0.017 A 
HETATM   12  C   UNL     1      43.971 -18.850   4.282  1.00  0.00     0.004 A 
HETATM   13  C   UNL     1      42.997 -19.485   2.124  1.00  0.00     0.020 A 
HETATM   14  C   UNL     1      43.850 -17.830   5.296  1.00  0.00     0.068 A 
HETATM   15  C   UNL     1      44.826 -19.979   4.183  1.00  0.00     0.014 A 
HETATM   16 CL   UNL     1      44.841 -17.856   6.704  1.00  0.00    -0.082 Cl
HETATM   17  C   UNL     1      44.762 -20.831   3.077  1.00  0.00     0.001 A 
HETATM   18  C   UNL     1      43.857 -20.583   2.056  1.00  0.00     0.001 A 
ENDBRANCH   6   9
ENDBRANCH   2   5
BRANCH   1  19
HETATM   19  C   UNL     1      43.897 -12.079   8.649  1.00  0.00     0.180 C 
BRANCH  19  20
HETATM   20  C   UNL     1      45.112 -11.309   9.194  1.00  0.00     0.045 C 
BRANCH  20  21
HETATM   21  C   UNL     1      45.066 -11.107  10.708  1.00  0.00     0.076 C 
BRANCH  21  22
HETATM   22  S   UNL     1      44.170 -12.495  11.478  1.00  0.00    -0.173 SA
HETATM   23  C   UNL     1      43.084 -11.547  12.569  1.00  0.00     0.089 C 
ENDBRANCH  21  22
ENDBRANCH  20  21
ENDBRANCH  19  20
BRANCH  19  24
HETATM   24  N   UNL     1      42.901 -11.269   7.940  1.00  0.00    -0.330 N 
HETATM   25  C   UNL     1      41.915 -10.592   8.596  1.00  0.00     0.314 C 
HETATM   26  N   UNL     1      41.204  -9.780   7.775  1.00  0.00    -0.352 N 
HETATM   27  O   UNL     1      41.619 -10.721   9.773  1.00  0.00    -0.248 OA
HETATM   28  H   UNL     1      41.680  -9.311   7.021  1.00  0.00     0.160 HD
HETATM   29  H   UNL     1      40.521  -9.215   8.265  1.00  0.00     0.160 HD
HETATM   30  H   UNL     1      43.257 -10.780   7.133  1.00  0.00     0.165 HD
ENDBRANCH  19  24
ENDBRANCH   1  19
TORSDOF 7
ENDMDL
MODEL 5
REMARK VINA RESULT:      -7.2      1.848      2.541
REMARK  7 active torsions:
REMARK  status: ('A' for Active; 'I' for Inactive)
REMARK    1  A    between atoms: S_2  and  C_3 
REMARK    2  A    between atoms: C_3  and  C_4 
REMARK    3  A    between atoms: C_4  and  C_5 
REMARK    4  A    between atoms: C_5  and  N_6 
REMARK    5  A    between atoms: C_5  and  C_10 
REMARK       I    between atoms: N_6  and  C_7 
REMARK       I    between atoms: C_7  and  N_8 
REMARK       I    between atoms: C_10  and  N_11 
REMARK    6  A    between atoms: N_11  and  N_12 
REMARK       I    between atoms: N_12  and  C_13 
REMARK    7  A    between atoms: C_13  and  C_14 
ROOT
HETATM    1  C   UNL     1      44.208 -13.208   7.820  1.00  0.00     0.259 C 
HETATM    2  N   UNL     1      43.263 -13.675   6.932  1.00  0.00    -0.265 N 
HETATM    3  O   UNL     1      45.364 -13.645   7.817  1.00  0.00    -0.269 OA
HETATM    4  H   UNL     1      42.301 -13.343   6.870  1.00  0.00     0.190 HD
ENDROOT
BRANCH   2   5
HETATM    5  N   UNL     1      43.587 -14.758   6.109  1.00  0.00    -0.263 N 
HETATM    6  C   UNL     1      42.598 -15.676   5.793  1.00  0.00     0.278 C 
HETATM    7  O   UNL     1      41.441 -15.469   6.166  1.00  0.00    -0.265 OA
HETATM    8  H   UNL     1      44.568 -14.884   5.861  1.00  0.00     0.190 HD
BRANCH   6   9
HETATM    9  C   UNL     1      43.020 -16.844   5.034  1.00  0.00     0.097 A 
HETATM   10  S   UNL     1      44.172 -17.939   5.672  1.00  0.00    -0.082 SA
HETATM   11  C   UNL     1      44.081 -18.982   4.313  1.00  0.00     0.017 A 
HETATM   12  C   UNL     1      43.190 -18.495   3.353  1.00  0.00     0.004 A 
HETATM   13  C   UNL     1      44.786 -20.187   4.127  1.00  0.00     0.020 A 
HETATM   14  C   UNL     1      42.590 -17.257   3.786  1.00  0.00     0.068 A 
HETATM   15  C   UNL     1      43.021 -19.257   2.167  1.00  0.00     0.014 A 
HETATM   16 CL   UNL     1      41.455 -16.426   2.794  1.00  0.00    -0.082 Cl
HETATM   17  C   UNL     1      43.719 -20.453   1.978  1.00  0.00     0.001 A 
HETATM   18  C   UNL     1      44.592 -20.914   2.952  1.00  0.00     0.001 A 
ENDBRANCH   6   9
ENDBRANCH   2   5
BRANCH   1  19
HETATM   19  C   UNL     1      43.761 -12.018   8.707  1.00  0.00     0.180 C 
BRANCH  19  20
HETATM   20  C   UNL     1      44.932 -11.248   9.341  1.00  0.00     0.045 C 
BRANCH  20  21
HETATM   21  C   UNL     1      45.046 -11.462  10.849  1.00  0.00     0.076 C 
BRANCH  21  22
HETATM   22  S   UNL     1      43.940 -10.296  11.712  1.00  0.00    -0.173 SA
HETATM   23  C   UNL     1      42.924 -11.495  12.606  1.00  0.00     0.089 C 
ENDBRANCH  21  22
ENDBRANCH  20  21
ENDBRANCH  19  20
BRANCH  19  24
HETATM   24  N   UNL     1      42.808 -11.204   7.945  1.00  0.00    -0.330 N 
HETATM   25  C   UNL     1      41.708 -10.642   8.523  1.00  0.00     0.314 C 
HETATM   26  N   UNL     1      41.051  -9.801   7.688  1.00  0.00    -0.352 N 
HETATM   27  O   UNL     1      41.280 -10.890   9.639  1.00  0.00    -0.248 OA
HETATM   28  H   UNL     1      41.584  -9.241   7.041  1.00  0.00     0.160 HD
HETATM   29  H   UNL     1      40.278  -9.319   8.132  1.00  0.00     0.160 HD
HETATM   30  H   UNL     1      43.227 -10.627   7.232  1.00  0.00     0.165 HD
ENDBRANCH  19  24
ENDBRANCH   1  19
TORSDOF 7
ENDMDL
MODEL 6
REMARK VINA RESULT:      -7.2      2.900      3.574
REMARK  7 active torsions:
REMARK  status: ('A' for Active; 'I' for Inactive)
REMARK    1  A    between atoms: S_2  and  C_3 
REMARK    2  A    between atoms: C_3  and  C_4 
REMARK    3  A    between atoms: C_4  and  C_5 
REMARK    4  A    between atoms: C_5  and  N_6 
REMARK    5  A    between atoms: C_5  and  C_10 
REMARK       I    between atoms: N_6  and  C_7 
REMARK       I    between atoms: C_7  and  N_8 
REMARK       I    between atoms: C_10  and  N_11 
REMARK    6  A    between atoms: N_11  and  N_12 
REMARK       I    between atoms: N_12  and  C_13 
REMARK    7  A    between atoms: C_13  and  C_14 
ROOT
HETATM    1  C   UNL     1      41.817 -12.768   5.237  1.00  0.00     0.259 C 
HETATM    2  N   UNL     1      41.600 -13.910   5.978  1.00  0.00    -0.265 N 
HETATM    3  O   UNL     1      42.086 -12.826   4.032  1.00  0.00    -0.269 OA
HETATM    4  H   UNL     1      41.355 -13.929   6.968  1.00  0.00     0.190 HD
ENDROOT
BRANCH   2   5
HETATM    5  N   UNL     1      41.825 -15.155   5.383  1.00  0.00    -0.263 N 
HETATM    6  C   UNL     1      43.054 -15.768   5.562  1.00  0.00     0.278 C 
HETATM    7  O   UNL     1      43.883 -15.251   6.314  1.00  0.00    -0.265 OA
HETATM    8  H   UNL     1      41.107 -15.510   4.752  1.00  0.00     0.190 HD
BRANCH   6   9
HETATM    9  C   UNL     1      43.273 -17.003   4.823  1.00  0.00     0.097 A 
HETATM   10  S   UNL     1      42.445 -17.308   3.355  1.00  0.00    -0.082 SA
HETATM   11  C   UNL     1      43.240 -18.808   3.102  1.00  0.00     0.017 A 
HETATM   12  C   UNL     1      44.126 -19.098   4.142  1.00  0.00     0.004 A 
HETATM   13  C   UNL     1      43.066 -19.679   2.009  1.00  0.00     0.020 A 
HETATM   14  C   UNL     1      44.129 -18.046   5.128  1.00  0.00     0.068 A 
HETATM   15  C   UNL     1      44.850 -20.318   4.067  1.00  0.00     0.014 A 
HETATM   16 CL   UNL     1      45.125 -18.144   6.529  1.00  0.00    -0.082 Cl
HETATM   17  C   UNL     1      44.681 -21.186   2.985  1.00  0.00     0.001 A 
HETATM   18  C   UNL     1      43.798 -20.867   1.964  1.00  0.00     0.001 A 
ENDBRANCH   6   9
ENDBRANCH   2   5
BRANCH   1  19
HETATM   19  C   UNL     1      41.561 -11.431   5.978  1.00  0.00     0.180 C 
BRANCH  19  20
HETATM   20  C   UNL     1      40.333 -10.664   5.460  1.00  0.00     0.045 C 
BRANCH  20  21
HETATM   21  C   UNL     1      39.170 -11.578   5.078  1.00  0.00     0.076 C 
BRANCH  21  22
HETATM   22  S   UNL     1      38.492 -11.057   3.468  1.00  0.00    -0.173 SA
HETATM   23  C   UNL     1      38.943 -12.513   2.497  1.00  0.00     0.089 C 
ENDBRANCH  21  22
ENDBRANCH  20  21
ENDBRANCH  19  20
BRANCH  19  24
HETATM   24  N   UNL     1      41.582 -11.690   7.422  1.00  0.00    -0.330 N 
HETATM   25  C   UNL     1      41.918 -10.728   8.328  1.00  0.00     0.314 C 
HETATM   26  N   UNL     1      41.719 -11.123   9.609  1.00  0.00    -0.352 N 
HETATM   27  O   UNL     1      42.416  -9.643   8.069  1.00  0.00    -0.248 OA
HETATM   28  H   UNL     1      40.931 -11.716   9.819  1.00  0.00     0.160 HD
HETATM   29  H   UNL     1      41.892 -10.389  10.286  1.00  0.00     0.160 HD
HETATM   30  H   UNL     1      40.856 -12.312   7.746  1.00  0.00     0.165 HD
ENDBRANCH  19  24
ENDBRANCH   1  19
TORSDOF 7
ENDMDL
MODEL 7
REMARK VINA RESULT:      -7.1      1.764      2.106
REMARK  7 active torsions:
REMARK  status: ('A' for Active; 'I' for Inactive)
REMARK    1  A    between atoms: S_2  and  C_3 
REMARK    2  A    between atoms: C_3  and  C_4 
REMARK    3  A    between atoms: C_4  and  C_5 
REMARK    4  A    between atoms: C_5  and  N_6 
REMARK    5  A    between atoms: C_5  and  C_10 
REMARK       I    between atoms: N_6  and  C_7 
REMARK       I    between atoms: C_7  and  N_8 
REMARK       I    between atoms: C_10  and  N_11 
REMARK    6  A    between atoms: N_11  and  N_12 
REMARK       I    between atoms: N_12  and  C_13 
REMARK    7  A    between atoms: C_13  and  C_14 
ROOT
HETATM    1  C   UNL     1      44.052 -13.372   6.953  1.00  0.00     0.259 C 
HETATM    2  N   UNL     1      43.166 -13.650   5.934  1.00  0.00    -0.265 N 
HETATM    3  O   UNL     1      45.070 -14.052   7.123  1.00  0.00    -0.269 OA
HETATM    4  H   UNL     1      42.321 -13.118   5.730  1.00  0.00     0.190 HD
ENDROOT
BRANCH   2   5
HETATM    5  N   UNL     1      43.357 -14.805   5.169  1.00  0.00    -0.263 N 
HETATM    6  C   UNL     1      42.672 -15.958   5.517  1.00  0.00     0.278 C 
HETATM    7  O   UNL     1      41.843 -15.916   6.430  1.00  0.00    -0.265 OA
HETATM    8  H   UNL     1      44.078 -14.777   4.449  1.00  0.00     0.190 HD
BRANCH   6   9
HETATM    9  C   UNL     1      43.001 -17.158   4.761  1.00  0.00     0.097 A 
HETATM   10  S   UNL     1      42.164 -17.544   3.317  1.00  0.00    -0.082 SA
HETATM   11  C   UNL     1      43.109 -18.947   3.027  1.00  0.00     0.017 A 
HETATM   12  C   UNL     1      44.053 -19.145   4.037  1.00  0.00     0.004 A 
HETATM   13  C   UNL     1      42.996 -19.826   1.933  1.00  0.00     0.020 A 
HETATM   14  C   UNL     1      43.973 -18.103   5.031  1.00  0.00     0.068 A 
HETATM   15  C   UNL     1      44.903 -20.278   3.930  1.00  0.00     0.014 A 
HETATM   16 CL   UNL     1      45.018 -18.099   6.400  1.00  0.00    -0.082 Cl
HETATM   17  C   UNL     1      44.795 -21.154   2.846  1.00  0.00     0.001 A 
HETATM   18  C   UNL     1      43.851 -20.927   1.856  1.00  0.00     0.001 A 
ENDBRANCH   6   9
ENDBRANCH   2   5
BRANCH   1  19
HETATM   19  C   UNL     1      43.756 -12.084   7.762  1.00  0.00     0.180 C 
BRANCH  19  20
HETATM   20  C   UNL     1      42.319 -11.563   7.588  1.00  0.00     0.045 C 
BRANCH  20  21
HETATM   21  C   UNL     1      42.077 -10.223   8.282  1.00  0.00     0.076 C 
BRANCH  21  22
HETATM   22  S   UNL     1      41.193  -9.103   7.146  1.00  0.00    -0.173 SA
HETATM   23  C   UNL     1      41.383 -10.054   5.621  1.00  0.00     0.089 C 
ENDBRANCH  21  22
ENDBRANCH  20  21
ENDBRANCH  19  20
BRANCH  19  24
HETATM   24  N   UNL     1      44.187 -12.297   9.148  1.00  0.00    -0.330 N 
HETATM   25  C   UNL     1      45.148 -11.529   9.736  1.00  0.00     0.314 C 
HETATM   26  N   UNL     1      45.283 -11.783  11.061  1.00  0.00    -0.352 N 
HETATM   27  O   UNL     1      45.883 -10.739   9.164  1.00  0.00    -0.248 OA
HETATM   28  H   UNL     1      44.461 -12.008  11.600  1.00  0.00     0.160 HD
HETATM   29  H   UNL     1      45.939 -11.164  11.522  1.00  0.00     0.160 HD
HETATM   30  H   UNL     1      43.449 -12.571   9.779  1.00  0.00     0.165 HD
ENDBRANCH  19  24
ENDBRANCH   1  19
TORSDOF 7
ENDMDL
MODEL 8
REMARK VINA RESULT:      -6.9      6.187      8.639
REMARK  7 active torsions:
REMARK  status: ('A' for Active; 'I' for Inactive)
REMARK    1  A    between atoms: S_2  and  C_3 
REMARK    2  A    between atoms: C_3  and  C_4 
REMARK    3  A    between atoms: C_4  and  C_5 
REMARK    4  A    between atoms: C_5  and  N_6 
REMARK    5  A    between atoms: C_5  and  C_10 
REMARK       I    between atoms: N_6  and  C_7 
REMARK       I    between atoms: C_7  and  N_8 
REMARK       I    between atoms: C_10  and  N_11 
REMARK    6  A    between atoms: N_11  and  N_12 
REMARK       I    between atoms: N_12  and  C_13 
REMARK    7  A    between atoms: C_13  and  C_14 
ROOT
HETATM    1  C   UNL     1      40.767 -15.085   0.500  1.00  0.00     0.259 C 
HETATM    2  N   UNL     1      41.724 -16.074   0.564  1.00  0.00    -0.265 N 
HETATM    3  O   UNL     1      40.237 -14.635   1.522  1.00  0.00    -0.269 OA
HETATM    4  H   UNL     1      42.211 -16.472  -0.238  1.00  0.00     0.190 HD
ENDROOT
BRANCH   2   5
HETATM    5  N   UNL     1      41.996 -16.671   1.799  1.00  0.00    -0.263 N 
HETATM    6  C   UNL     1      43.252 -17.215   2.015  1.00  0.00     0.278 C 
HETATM    7  O   UNL     1      44.126 -17.078   1.156  1.00  0.00    -0.265 OA
HETATM    8  H   UNL     1      41.220 -16.776   2.451  1.00  0.00     0.190 HD
BRANCH   6   9
HETATM    9  C   UNL     1      43.440 -17.928   3.271  1.00  0.00     0.097 A 
HETATM   10  S   UNL     1      43.223 -17.135   4.773  1.00  0.00    -0.082 SA
HETATM   11  C   UNL     1      43.535 -18.557   5.682  1.00  0.00     0.017 A 
HETATM   12  C   UNL     1      43.828 -19.640   4.851  1.00  0.00     0.004 A 
HETATM   13  C   UNL     1      43.515 -18.681   7.085  1.00  0.00     0.020 A 
HETATM   14  C   UNL     1      43.771 -19.257   3.461  1.00  0.00     0.068 A 
HETATM   15  C   UNL     1      44.116 -20.885   5.470  1.00  0.00     0.014 A 
HETATM   16 CL   UNL     1      44.099 -20.395   2.212  1.00  0.00    -0.082 Cl
HETATM   17  C   UNL     1      44.098 -21.014   6.862  1.00  0.00     0.001 A 
HETATM   18  C   UNL     1      43.797 -19.921   7.661  1.00  0.00     0.001 A 
ENDBRANCH   6   9
ENDBRANCH   2   5
BRANCH   1  19
HETATM   19  C   UNL     1      40.514 -14.489  -0.909  1.00  0.00     0.180 C 
BRANCH  19  20
HETATM   20  C   UNL     1      39.408 -13.421  -0.938  1.00  0.00     0.045 C 
BRANCH  20  21
HETATM   21  C   UNL     1      38.033 -13.989  -1.286  1.00  0.00     0.076 C 
BRANCH  21  22
HETATM   22  S   UNL     1      37.847 -14.061  -3.098  1.00  0.00    -0.173 SA
HETATM   23  C   UNL     1      38.409 -12.390  -3.497  1.00  0.00     0.089 C 
ENDBRANCH  21  22
ENDBRANCH  20  21
ENDBRANCH  19  20
BRANCH  19  24
HETATM   24  N   UNL     1      41.803 -14.080  -1.477  1.00  0.00    -0.330 N 
HETATM   25  C   UNL     1      42.024 -14.039  -2.823  1.00  0.00     0.314 C 
HETATM   26  N   UNL     1      43.218 -13.482  -3.140  1.00  0.00    -0.352 N 
HETATM   27  O   UNL     1      41.292 -14.503  -3.682  1.00  0.00    -0.248 OA
HETATM   28  H   UNL     1      43.565 -12.719  -2.579  1.00  0.00     0.160 HD
HETATM   29  H   UNL     1      43.359 -13.377  -4.137  1.00  0.00     0.160 HD
HETATM   30  H   UNL     1      42.269 -13.342  -0.970  1.00  0.00     0.165 HD
ENDBRANCH  19  24
ENDBRANCH   1  19
TORSDOF 7
ENDMDL
MODEL 9
REMARK VINA RESULT:      -6.9      3.029      3.472
REMARK  7 active torsions:
REMARK  status: ('A' for Active; 'I' for Inactive)
REMARK    1  A    between atoms: S_2  and  C_3 
REMARK    2  A    between atoms: C_3  and  C_4 
REMARK    3  A    between atoms: C_4  and  C_5 
REMARK    4  A    between atoms: C_5  and  N_6 
REMARK    5  A    between atoms: C_5  and  C_10 
REMARK       I    between atoms: N_6  and  C_7 
REMARK       I    between atoms: C_7  and  N_8 
REMARK       I    between atoms: C_10  and  N_11 
REMARK    6  A    between atoms: N_11  and  N_12 
REMARK       I    between atoms: N_12  and  C_13 
REMARK    7  A    between atoms: C_13  and  C_14 
ROOT
HETATM    1  C   UNL     1      41.840 -12.639   5.490  1.00  0.00     0.259 C 
HETATM    2  N   UNL     1      41.701 -13.876   6.082  1.00  0.00    -0.265 N 
HETATM    3  O   UNL     1      42.428 -12.504   4.411  1.00  0.00    -0.269 OA
HETATM    4  H   UNL     1      41.212 -14.056   6.958  1.00  0.00     0.190 HD
ENDROOT
BRANCH   2   5
HETATM    5  N   UNL     1      42.358 -14.973   5.516  1.00  0.00    -0.263 N 
HETATM    6  C   UNL     1      41.626 -15.869   4.753  1.00  0.00     0.278 C 
HETATM    7  O   UNL     1      40.440 -15.631   4.514  1.00  0.00    -0.265 OA
HETATM    8  H   UNL     1      43.331 -15.125   5.778  1.00  0.00     0.190 HD
BRANCH   6   9
HETATM    9  C   UNL     1      42.336 -17.053   4.290  1.00  0.00     0.097 A 
HETATM   10  S   UNL     1      43.500 -17.824   5.281  1.00  0.00    -0.082 SA
HETATM   11  C   UNL     1      43.798 -19.067   4.136  1.00  0.00     0.017 A 
HETATM   12  C   UNL     1      43.031 -18.893   2.982  1.00  0.00     0.004 A 
HETATM   13  C   UNL     1      44.688 -20.149   4.280  1.00  0.00     0.020 A 
HETATM   14  C   UNL     1      42.195 -17.723   3.088  1.00  0.00     0.068 A 
HETATM   15  C   UNL     1      43.182 -19.848   1.942  1.00  0.00     0.014 A 
HETATM   16 CL   UNL     1      41.147 -17.260   1.803  1.00  0.00    -0.082 Cl
HETATM   17  C   UNL     1      44.064 -20.924   2.080  1.00  0.00     0.001 A 
HETATM   18  C   UNL     1      44.808 -21.073   3.241  1.00  0.00     0.001 A 
ENDBRANCH   6   9
ENDBRANCH   2   5
BRANCH   1  19
HETATM   19  C   UNL     1      41.095 -11.475   6.192  1.00  0.00     0.180 C 
BRANCH  19  20
HETATM   20  C   UNL     1      40.375 -10.528   5.217  1.00  0.00     0.045 C 
BRANCH  20  21
HETATM   21  C   UNL     1      39.043 -11.082   4.713  1.00  0.00     0.076 C 
BRANCH  21  22
HETATM   22  S   UNL     1      38.070  -9.734   3.964  1.00  0.00    -0.173 SA
HETATM   23  C   UNL     1      39.309  -9.115   2.803  1.00  0.00     0.089 C 
ENDBRANCH  21  22
ENDBRANCH  20  21
ENDBRANCH  19  20
BRANCH  19  24
HETATM   24  N   UNL     1      40.261 -12.036   7.260  1.00  0.00    -0.330 N 
HETATM   25  C   UNL     1      39.907 -11.313   8.361  1.00  0.00     0.314 C 
HETATM   26  N   UNL     1      39.007 -11.957   9.143  1.00  0.00    -0.352 N 
HETATM   27  O   UNL     1      40.374 -10.233   8.689  1.00  0.00    -0.248 OA
HETATM   28  H   UNL     1      38.301 -12.528   8.705  1.00  0.00     0.160 HD
HETATM   29  H   UNL     1      38.679 -11.397   9.921  1.00  0.00     0.160 HD
HETATM   30  H   UNL     1      39.538 -12.663   6.941  1.00  0.00     0.165 HD
ENDBRANCH  19  24
ENDBRANCH   1  19
TORSDOF 7
ENDMDL
MODEL 10
REMARK VINA RESULT:      -6.8      5.801      8.058
REMARK  7 active torsions:
REMARK  status: ('A' for Active; 'I' for Inactive)
REMARK    1  A    between atoms: S_2  and  C_3 
REMARK    2  A    between atoms: C_3  and  C_4 
REMARK    3  A    between atoms: C_4  and  C_5 
REMARK    4  A    between atoms: C_5  and  N_6 
REMARK    5  A    between atoms: C_5  and  C_10 
REMARK       I    between atoms: N_6  and  C_7 
REMARK       I    between atoms: C_7  and  N_8 
REMARK       I    between atoms: C_10  and  N_11 
REMARK    6  A    between atoms: N_11  and  N_12 
REMARK       I    between atoms: N_12  and  C_13 
REMARK    7  A    between atoms: C_13  and  C_14 
ROOT
HETATM    1  C   UNL     1      40.721 -14.917  -0.427  1.00  0.00     0.259 C 
HETATM    2  N   UNL     1      40.542 -14.830   0.936  1.00  0.00    -0.265 N 
HETATM    3  O   UNL     1      41.210 -15.926  -0.948  1.00  0.00    -0.269 OA
HETATM    4  H   UNL     1      40.128 -14.035   1.424  1.00  0.00     0.190 HD
ENDROOT
BRANCH   2   5
HETATM    5  N   UNL     1      41.050 -15.846   1.751  1.00  0.00    -0.263 N 
HETATM    6  C   UNL     1      42.182 -15.591   2.508  1.00  0.00     0.278 C 
HETATM    7  O   UNL     1      42.659 -14.454   2.518  1.00  0.00    -0.265 OA
HETATM    8  H   UNL     1      40.625 -16.769   1.672  1.00  0.00     0.190 HD
BRANCH   6   9
HETATM    9  C   UNL     1      42.735 -16.721   3.244  1.00  0.00     0.097 A 
HETATM   10  S   UNL     1      42.492 -16.873   4.932  1.00  0.00    -0.082 SA
HETATM   11  C   UNL     1      43.327 -18.370   5.017  1.00  0.00     0.017 A 
HETATM   12  C   UNL     1      43.815 -18.755   3.766  1.00  0.00     0.004 A 
HETATM   13  C   UNL     1      43.528 -19.158   6.167  1.00  0.00     0.020 A 
HETATM   14  C   UNL     1      43.466 -17.787   2.755  1.00  0.00     0.068 A 
HETATM   15  C   UNL     1      44.536 -19.976   3.689  1.00  0.00     0.014 A 
HETATM   16 CL   UNL     1      43.948 -18.002   1.116  1.00  0.00    -0.082 Cl
HETATM   17  C   UNL     1      44.739 -20.761   4.827  1.00  0.00     0.001 A 
HETATM   18  C   UNL     1      44.237 -20.356   6.054  1.00  0.00     0.001 A 
ENDBRANCH   6   9
ENDBRANCH   2   5
BRANCH   1  19
HETATM   19  C   UNL     1      40.144 -13.741  -1.254  1.00  0.00     0.180 C 
BRANCH  19  20
HETATM   20  C   UNL     1      39.247 -12.795  -0.437  1.00  0.00     0.045 C 
BRANCH  20  21
HETATM   21  C   UNL     1      39.870 -11.418  -0.215  1.00  0.00     0.076 C 
BRANCH  21  22
HETATM   22  S   UNL     1      38.983 -10.560   1.128  1.00  0.00    -0.173 SA
HETATM   23  C   UNL     1      38.184 -11.993   1.886  1.00  0.00     0.089 C 
ENDBRANCH  21  22
ENDBRANCH  20  21
ENDBRANCH  19  20
BRANCH  19  24
HETATM   24  N   UNL     1      41.245 -13.098  -1.979  1.00  0.00    -0.330 N 
HETATM   25  C   UNL     1      41.548 -13.415  -3.271  1.00  0.00     0.314 C 
HETATM   26  N   UNL     1      42.489 -12.597  -3.803  1.00  0.00    -0.352 N 
HETATM   27  O   UNL     1      41.103 -14.363  -3.898  1.00  0.00    -0.248 OA
HETATM   28  H   UNL     1      42.493 -11.624  -3.541  1.00  0.00     0.160 HD
HETATM   29  H   UNL     1      42.664 -12.775  -4.784  1.00  0.00     0.160 HD
HETATM   30  H   UNL     1      41.374 -12.121  -1.764  1.00  0.00     0.165 HD
ENDBRANCH  19  24
ENDBRANCH   1  19
TORSDOF 7
ENDMDL
