MODEL 1
REMARK VINA RESULT:      -9.0      0.000      0.000
REMARK  5 active torsions:
REMARK  status: ('A' for Active; 'I' for Inactive)
REMARK    1  A    between atoms: C_2  and  C_3 
REMARK    2  A    between atoms: C_7  and  N_8 
REMARK    3  A    between atoms: C_13  and  N_14 
REMARK       I    between atoms: N_14  and  C_15 
REMARK    4  A    between atoms: C_15  and  C_16 
REMARK       I    between atoms: C_16  and  N_17 
REMARK    5  A    between atoms: N_17  and  C_18 
ROOT
HETATM    1  N   UNL     1      42.450 -10.190  10.291  1.00  0.00    -0.045 N 
HETATM    2  N   UNL     1      42.376  -9.428  11.418  1.00  0.00    -0.156 NA
HETATM    3  C   UNL     1      43.283  -9.967  12.239  1.00  0.00     0.055 A 
HETATM    4  C   UNL     1      43.505  -9.405  13.597  1.00  0.00     0.072 C 
HETATM    5  C   UNL     1      43.945 -11.069  11.647  1.00  0.00     0.079 A 
HETATM    6  C   UNL     1      43.394 -11.200  10.394  1.00  0.00     0.152 A 
ENDROOT
BRANCH   6   7
HETATM    7  N   UNL     1      43.679 -12.134   9.404  1.00  0.00    -0.303 N 
HETATM    8  C   UNL     1      44.892 -12.175   8.648  1.00  0.00     0.315 C 
HETATM    9  O   UNL     1      45.795 -11.367   8.781  1.00  0.00    -0.262 OA
HETATM   10  H   UNL     1      42.975 -12.855   9.204  1.00  0.00     0.171 HD
BRANCH   8  11
HETATM   11  C   UNL     1      44.983 -13.337   7.644  1.00  0.00     0.310 C 
HETATM   12  N   UNL     1      43.899 -14.190   7.656  1.00  0.00    -0.348 N 
HETATM   13  H   UNL     1      43.196 -14.042   8.378  1.00  0.00     0.163 HD
HETATM   14  O   UNL     1      45.972 -13.419   6.928  1.00  0.00    -0.262 OA
BRANCH  12  15
HETATM   15  C   UNL     1      43.817 -15.398   6.843  1.00  0.00     0.085 C 
HETATM   16  C   UNL     1      42.662 -15.258   5.842  1.00  0.00     0.034 C 
HETATM   17  C   UNL     1      42.433 -16.510   4.971  1.00  0.00    -0.045 C 
HETATM   18  C   UNL     1      43.530 -16.632   3.898  1.00  0.00     0.015 C 
HETATM   19  C   UNL     1      41.090 -16.350   4.225  1.00  0.00     0.015 C 
HETATM   20  C   UNL     1      42.349 -17.776   5.857  1.00  0.00     0.013 C 
HETATM   21  C   UNL     1      43.420 -17.928   6.951  1.00  0.00    -0.016 C 
HETATM   22  C   UNL     1      43.617 -16.626   7.739  1.00  0.00     0.029 C 
HETATM   23  C   UNL     1      44.745 -18.490   6.436  1.00  0.00     0.010 C 
ENDBRANCH  12  15
ENDBRANCH   8  11
ENDBRANCH   6   7
BRANCH   1  24
HETATM   24  C   UNL     1      41.625  -9.921   9.191  1.00  0.00     0.732 A 
HETATM   25  N   UNL     1      40.309 -10.113   9.480  1.00  0.00    -0.152 N 
HETATM   26  C   UNL     1      39.345  -9.912   8.547  1.00  0.00     0.268 A 
HETATM   27  H   UNL     1      40.029 -10.418  10.407  1.00  0.00     0.188 HD
HETATM   28  C   UNL     1      39.833  -9.466   7.209  1.00  0.00     0.035 A 
HETATM   29  O   UNL     1      38.158 -10.086   8.795  1.00  0.00    -0.267 OA
HETATM   30  C   UNL     1      41.167  -9.309   7.050  1.00  0.00     0.061 A 
HETATM   31  N   UNL     1      42.097  -9.538   8.048  1.00  0.00    -0.067 NA
HETATM   32  C   UNL     1      41.789  -8.837   5.758  1.00  0.00     0.072 C 
BRANCH  28  33
HETATM   33  C   UNL     1      38.770  -9.278   6.158  1.00  0.00     0.042 C 
HETATM   34  C   UNL     1      38.221  -7.858   6.148  1.00  0.00     0.010 C 
ENDBRANCH  28  33
ENDBRANCH   1  24
TORSDOF 5
ENDMDL
MODEL 2
REMARK VINA RESULT:      -8.5      3.286      9.196
REMARK  5 active torsions:
REMARK  status: ('A' for Active; 'I' for Inactive)
REMARK    1  A    between atoms: C_2  and  C_3 
REMARK    2  A    between atoms: C_7  and  N_8 
REMARK    3  A    between atoms: C_13  and  N_14 
REMARK       I    between atoms: N_14  and  C_15 
REMARK    4  A    between atoms: C_15  and  C_16 
REMARK       I    between atoms: C_16  and  N_17 
REMARK    5  A    between atoms: N_17  and  C_18 
ROOT
HETATM    1  N   UNL     1      41.724 -16.312   3.593  1.00  0.00    -0.045 N 
HETATM    2  N   UNL     1      40.895 -16.386   2.514  1.00  0.00    -0.156 NA
HETATM    3  C   UNL     1      40.160 -15.270   2.587  1.00  0.00     0.055 A 
HETATM    4  C   UNL     1      39.120 -14.981   1.567  1.00  0.00     0.072 C 
HETATM    5  C   UNL     1      40.514 -14.476   3.705  1.00  0.00     0.079 A 
HETATM    6  C   UNL     1      41.519 -15.164   4.342  1.00  0.00     0.152 A 
ENDROOT
BRANCH   6   7
HETATM    7  N   UNL     1      42.213 -14.829   5.500  1.00  0.00    -0.303 N 
HETATM    8  C   UNL     1      43.402 -14.035   5.536  1.00  0.00     0.315 C 
HETATM    9  O   UNL     1      43.946 -13.592   4.539  1.00  0.00    -0.262 OA
HETATM   10  H   UNL     1      41.844 -15.165   6.398  1.00  0.00     0.171 HD
BRANCH   8  11
HETATM   11  C   UNL     1      43.951 -13.766   6.948  1.00  0.00     0.310 C 
HETATM   12  N   UNL     1      43.376 -12.688   7.590  1.00  0.00    -0.348 N 
HETATM   13  H   UNL     1      42.729 -12.114   7.052  1.00  0.00     0.163 HD
HETATM   14  O   UNL     1      44.822 -14.503   7.390  1.00  0.00    -0.262 OA
BRANCH  12  15
HETATM   15  C   UNL     1      43.804 -12.212   8.900  1.00  0.00     0.085 C 
HETATM   16  C   UNL     1      42.831 -11.131   9.389  1.00  0.00     0.034 C 
HETATM   17  C   UNL     1      43.223 -10.499  10.740  1.00  0.00    -0.045 C 
HETATM   18  C   UNL     1      42.938 -11.473  11.897  1.00  0.00     0.015 C 
HETATM   19  C   UNL     1      42.341  -9.252  10.974  1.00  0.00     0.015 C 
HETATM   20  C   UNL     1      44.703 -10.049  10.716  1.00  0.00     0.013 C 
HETATM   21  C   UNL     1      45.721 -11.049  10.141  1.00  0.00    -0.016 C 
HETATM   22  C   UNL     1      45.233 -11.663   8.822  1.00  0.00     0.029 C 
HETATM   23  C   UNL     1      46.160 -12.118  11.143  1.00  0.00     0.010 C 
ENDBRANCH  12  15
ENDBRANCH   8  11
ENDBRANCH   6   7
BRANCH   1  24
HETATM   24  C   UNL     1      42.652 -17.329   3.851  1.00  0.00     0.732 A 
HETATM   25  N   UNL     1      42.620 -18.304   2.902  1.00  0.00    -0.152 N 
HETATM   26  C   UNL     1      43.438 -19.384   2.970  1.00  0.00     0.268 A 
HETATM   27  H   UNL     1      41.971 -18.236   2.123  1.00  0.00     0.188 HD
HETATM   28  C   UNL     1      44.361 -19.412   4.143  1.00  0.00     0.035 A 
HETATM   29  O   UNL     1      43.414 -20.269   2.124  1.00  0.00    -0.267 OA
HETATM   30  C   UNL     1      44.297 -18.381   5.015  1.00  0.00     0.061 A 
HETATM   31  N   UNL     1      43.431 -17.311   4.884  1.00  0.00    -0.067 NA
HETATM   32  C   UNL     1      45.193 -18.274   6.225  1.00  0.00     0.072 C 
BRANCH  28  33
HETATM   33  C   UNL     1      45.245 -20.629   4.244  1.00  0.00     0.042 C 
HETATM   34  C   UNL     1      44.675 -21.672   5.195  1.00  0.00     0.010 C 
ENDBRANCH  28  33
ENDBRANCH   1  24
TORSDOF 5
ENDMDL
MODEL 3
REMARK VINA RESULT:      -8.5      2.554      7.352
REMARK  5 active torsions:
REMARK  status: ('A' for Active; 'I' for Inactive)
REMARK    1  A    between atoms: C_2  and  C_3 
REMARK    2  A    between atoms: C_7  and  N_8 
REMARK    3  A    between atoms: C_13  and  N_14 
REMARK       I    between atoms: N_14  and  C_15 
REMARK    4  A    between atoms: C_15  and  C_16 
REMARK       I    between atoms: C_16  and  N_17 
REMARK    5  A    between atoms: N_17  and  C_18 
ROOT
HETATM    1  N   UNL     1      43.280 -15.508   5.702  1.00  0.00    -0.045 N 
HETATM    2  N   UNL     1      43.498 -16.724   5.126  1.00  0.00    -0.156 NA
HETATM    3  C   UNL     1      44.326 -17.345   5.974  1.00  0.00     0.055 A 
HETATM    4  C   UNL     1      44.806 -18.722   5.690  1.00  0.00     0.072 C 
HETATM    5  C   UNL     1      44.639 -16.538   7.094  1.00  0.00     0.079 A 
HETATM    6  C   UNL     1      43.960 -15.359   6.901  1.00  0.00     0.152 A 
ENDROOT
BRANCH   6   7
HETATM    7  N   UNL     1      43.932 -14.222   7.701  1.00  0.00    -0.303 N 
HETATM    8  C   UNL     1      44.958 -13.227   7.739  1.00  0.00     0.315 C 
HETATM    9  O   UNL     1      45.984 -13.293   7.084  1.00  0.00    -0.262 OA
HETATM   10  H   UNL     1      43.113 -14.076   8.304  1.00  0.00     0.171 HD
BRANCH   8  11
HETATM   11  C   UNL     1      44.666 -12.039   8.673  1.00  0.00     0.310 C 
HETATM   12  N   UNL     1      43.350 -11.941   9.078  1.00  0.00    -0.348 N 
HETATM   13  H   UNL     1      42.682 -12.582   8.656  1.00  0.00     0.163 HD
HETATM   14  O   UNL     1      45.586 -11.296   8.985  1.00  0.00    -0.262 OA
BRANCH  12  15
HETATM   15  C   UNL     1      42.842 -10.847   9.898  1.00  0.00     0.085 C 
HETATM   16  C   UNL     1      43.015 -11.203  11.381  1.00  0.00     0.034 C 
HETATM   17  C   UNL     1      42.446 -10.146  12.349  1.00  0.00    -0.045 C 
HETATM   18  C   UNL     1      43.359  -8.908  12.399  1.00  0.00     0.015 C 
HETATM   19  C   UNL     1      42.423 -10.745  13.773  1.00  0.00     0.015 C 
HETATM   20  C   UNL     1      40.996  -9.778  11.954  1.00  0.00     0.013 C 
HETATM   21  C   UNL     1      40.731  -9.508  10.463  1.00  0.00    -0.016 C 
HETATM   22  C   UNL     1      41.369 -10.580   9.569  1.00  0.00     0.029 C 
HETATM   23  C   UNL     1      41.111  -8.094  10.021  1.00  0.00     0.010 C 
ENDBRANCH  12  15
ENDBRANCH   8  11
ENDBRANCH   6   7
BRANCH   1  24
HETATM   24  C   UNL     1      42.449 -14.565   5.084  1.00  0.00     0.732 A 
HETATM   25  N   UNL     1      42.918 -14.191   3.863  1.00  0.00    -0.152 N 
HETATM   26  C   UNL     1      42.262 -13.280   3.102  1.00  0.00     0.268 A 
HETATM   27  H   UNL     1      43.779 -14.592   3.502  1.00  0.00     0.188 HD
HETATM   28  C   UNL     1      41.006 -12.737   3.698  1.00  0.00     0.035 A 
HETATM   29  O   UNL     1      42.677 -12.934   2.003  1.00  0.00    -0.267 OA
HETATM   30  C   UNL     1      40.646 -13.190   4.920  1.00  0.00     0.061 A 
HETATM   31  N   UNL     1      41.369 -14.121   5.644  1.00  0.00    -0.067 NA
HETATM   32  C   UNL     1      39.387 -12.743   5.622  1.00  0.00     0.072 C 
BRANCH  28  33
HETATM   33  C   UNL     1      40.293 -11.695   2.875  1.00  0.00     0.042 C 
HETATM   34  C   UNL     1      39.203 -12.304   2.002  1.00  0.00     0.010 C 
ENDBRANCH  28  33
ENDBRANCH   1  24
TORSDOF 5
ENDMDL
MODEL 4
REMARK VINA RESULT:      -8.5      6.021     10.354
REMARK  5 active torsions:
REMARK  status: ('A' for Active; 'I' for Inactive)
REMARK    1  A    between atoms: C_2  and  C_3 
REMARK    2  A    between atoms: C_7  and  N_8 
REMARK    3  A    between atoms: C_13  and  N_14 
REMARK       I    between atoms: N_14  and  C_15 
REMARK    4  A    between atoms: C_15  and  C_16 
REMARK       I    between atoms: C_16  and  N_17 
REMARK    5  A    between atoms: N_17  and  C_18 
ROOT
HETATM    1  N   UNL     1      43.785 -19.420   3.506  1.00  0.00    -0.045 N 
HETATM    2  N   UNL     1      44.508 -20.546   3.762  1.00  0.00    -0.156 NA
HETATM    3  C   UNL     1      44.280 -21.331   2.702  1.00  0.00     0.055 A 
HETATM    4  C   UNL     1      44.905 -22.675   2.607  1.00  0.00     0.072 C 
HETATM    5  C   UNL     1      43.419 -20.714   1.763  1.00  0.00     0.079 A 
HETATM    6  C   UNL     1      43.108 -19.487   2.298  1.00  0.00     0.152 A 
ENDROOT
BRANCH   6   7
HETATM    7  N   UNL     1      42.287 -18.489   1.784  1.00  0.00    -0.303 N 
HETATM    8  C   UNL     1      42.750 -17.348   1.056  1.00  0.00     0.315 C 
HETATM    9  O   UNL     1      43.927 -17.123   0.836  1.00  0.00    -0.262 OA
HETATM   10  H   UNL     1      41.273 -18.577   1.926  1.00  0.00     0.171 HD
BRANCH   8  11
HETATM   11  C   UNL     1      41.635 -16.414   0.552  1.00  0.00     0.310 C 
HETATM   12  N   UNL     1      41.958 -15.699  -0.583  1.00  0.00    -0.348 N 
HETATM   13  H   UNL     1      42.915 -15.770  -0.924  1.00  0.00     0.163 HD
HETATM   14  O   UNL     1      40.578 -16.376   1.167  1.00  0.00    -0.262 OA
BRANCH  12  15
HETATM   15  C   UNL     1      41.079 -14.700  -1.180  1.00  0.00     0.085 C 
HETATM   16  C   UNL     1      40.116 -15.391  -2.156  1.00  0.00     0.034 C 
HETATM   17  C   UNL     1      39.180 -14.421  -2.904  1.00  0.00    -0.045 C 
HETATM   18  C   UNL     1      38.075 -13.901  -1.967  1.00  0.00     0.015 C 
HETATM   19  C   UNL     1      38.477 -15.195  -4.042  1.00  0.00     0.015 C 
HETATM   20  C   UNL     1      39.993 -13.264  -3.534  1.00  0.00     0.013 C 
HETATM   21  C   UNL     1      41.050 -12.594  -2.640  1.00  0.00    -0.016 C 
HETATM   22  C   UNL     1      41.907 -13.629  -1.898  1.00  0.00     0.029 C 
HETATM   23  C   UNL     1      40.471 -11.545  -1.690  1.00  0.00     0.010 C 
ENDBRANCH  12  15
ENDBRANCH   8  11
ENDBRANCH   6   7
BRANCH   1  24
HETATM   24  C   UNL     1      43.776 -18.356   4.417  1.00  0.00     0.732 A 
HETATM   25  N   UNL     1      44.640 -18.558   5.448  1.00  0.00    -0.152 N 
HETATM   26  C   UNL     1      44.778 -17.646   6.444  1.00  0.00     0.268 A 
HETATM   27  H   UNL     1      45.197 -19.406   5.488  1.00  0.00     0.188 HD
HETATM   28  C   UNL     1      43.927 -16.427   6.314  1.00  0.00     0.035 A 
HETATM   29  O   UNL     1      45.549 -17.820   7.378  1.00  0.00    -0.267 OA
HETATM   30  C   UNL     1      43.110 -16.344   5.240  1.00  0.00     0.061 A 
HETATM   31  N   UNL     1      43.017 -17.318   4.263  1.00  0.00    -0.067 NA
HETATM   32  C   UNL     1      42.220 -15.154   4.977  1.00  0.00     0.072 C 
BRANCH  28  33
HETATM   33  C   UNL     1      44.047 -15.428   7.437  1.00  0.00     0.042 C 
HETATM   34  C   UNL     1      44.934 -14.249   7.061  1.00  0.00     0.010 C 
ENDBRANCH  28  33
ENDBRANCH   1  24
TORSDOF 5
ENDMDL
MODEL 5
REMARK VINA RESULT:      -8.3      5.262      9.327
REMARK  5 active torsions:
REMARK  status: ('A' for Active; 'I' for Inactive)
REMARK    1  A    between atoms: C_2  and  C_3 
REMARK    2  A    between atoms: C_7  and  N_8 
REMARK    3  A    between atoms: C_13  and  N_14 
REMARK       I    between atoms: N_14  and  C_15 
REMARK    4  A    between atoms: C_15  and  C_16 
REMARK       I    between atoms: C_16  and  N_17 
REMARK    5  A    between atoms: N_17  and  C_18 
ROOT
HETATM    1  N   UNL     1      43.619 -15.578   4.980  1.00  0.00    -0.045 N 
HETATM    2  N   UNL     1      44.217 -15.476   6.200  1.00  0.00    -0.156 NA
HETATM    3  C   UNL     1      43.873 -14.258   6.633  1.00  0.00     0.055 A 
HETATM    4  C   UNL     1      44.341 -13.764   7.954  1.00  0.00     0.072 C 
HETATM    5  C   UNL     1      43.053 -13.577   5.702  1.00  0.00     0.079 A 
HETATM    6  C   UNL     1      42.903 -14.440   4.643  1.00  0.00     0.152 A 
ENDROOT
BRANCH   6   7
HETATM    7  N   UNL     1      42.200 -14.259   3.456  1.00  0.00    -0.303 N 
HETATM    8  C   UNL     1      40.785 -14.406   3.317  1.00  0.00     0.315 C 
HETATM    9  O   UNL     1      40.050 -14.736   4.232  1.00  0.00    -0.262 OA
HETATM   10  H   UNL     1      42.730 -13.990   2.618  1.00  0.00     0.171 HD
BRANCH   8  11
HETATM   11  C   UNL     1      40.244 -14.102   1.909  1.00  0.00     0.310 C 
HETATM   12  N   UNL     1      41.211 -14.034   0.927  1.00  0.00    -0.348 N 
HETATM   13  H   UNL     1      42.183 -14.086   1.224  1.00  0.00     0.163 HD
HETATM   14  O   UNL     1      39.038 -13.954   1.762  1.00  0.00    -0.262 OA
BRANCH  12  15
HETATM   15  C   UNL     1      40.925 -13.679  -0.458  1.00  0.00     0.085 C 
HETATM   16  C   UNL     1      40.480 -14.935  -1.221  1.00  0.00     0.034 C 
HETATM   17  C   UNL     1      40.217 -14.696  -2.722  1.00  0.00    -0.045 C 
HETATM   18  C   UNL     1      38.894 -13.936  -2.926  1.00  0.00     0.015 C 
HETATM   19  C   UNL     1      40.060 -16.066  -3.417  1.00  0.00     0.015 C 
HETATM   20  C   UNL     1      41.413 -13.956  -3.368  1.00  0.00     0.013 C 
HETATM   21  C   UNL     1      41.976 -12.747  -2.602  1.00  0.00    -0.016 C 
HETATM   22  C   UNL     1      42.164 -13.056  -1.111  1.00  0.00     0.029 C 
HETATM   23  C   UNL     1      41.181 -11.460  -2.824  1.00  0.00     0.010 C 
ENDBRANCH  12  15
ENDBRANCH   8  11
ENDBRANCH   6   7
BRANCH   1  24
HETATM   24  C   UNL     1      43.764 -16.739   4.210  1.00  0.00     0.732 A 
HETATM   25  N   UNL     1      44.027 -17.832   4.976  1.00  0.00    -0.152 N 
HETATM   26  C   UNL     1      44.209 -19.057   4.421  1.00  0.00     0.268 A 
HETATM   27  H   UNL     1      44.096 -17.743   5.985  1.00  0.00     0.188 HD
HETATM   28  C   UNL     1      44.092 -19.108   2.934  1.00  0.00     0.035 A 
HETATM   29  O   UNL     1      44.450 -20.047   5.101  1.00  0.00    -0.267 OA
HETATM   30  C   UNL     1      43.825 -17.951   2.287  1.00  0.00     0.061 A 
HETATM   31  N   UNL     1      43.656 -16.733   2.919  1.00  0.00    -0.067 NA
HETATM   32  C   UNL     1      43.654 -17.870   0.789  1.00  0.00     0.072 C 
BRANCH  28  33
HETATM   33  C   UNL     1      44.330 -20.458   2.309  1.00  0.00     0.042 C 
HETATM   34  C   UNL     1      43.028 -21.167   1.963  1.00  0.00     0.010 C 
ENDBRANCH  28  33
ENDBRANCH   1  24
TORSDOF 5
ENDMDL
MODEL 6
REMARK VINA RESULT:      -8.3      4.864      9.019
REMARK  5 active torsions:
REMARK  status: ('A' for Active; 'I' for Inactive)
REMARK    1  A    between atoms: C_2  and  C_3 
REMARK    2  A    between atoms: C_7  and  N_8 
REMARK    3  A    between atoms: C_13  and  N_14 
REMARK       I    between atoms: N_14  and  C_15 
REMARK    4  A    between atoms: C_15  and  C_16 
REMARK       I    between atoms: C_16  and  N_17 
REMARK    5  A    between atoms: N_17  and  C_18 
ROOT
HETATM    1  N   UNL     1      43.936 -15.886   6.149  1.00  0.00    -0.045 N 
HETATM    2  N   UNL     1      44.528 -15.385   7.270  1.00  0.00    -0.156 NA
HETATM    3  C   UNL     1      44.349 -14.063   7.173  1.00  0.00     0.055 A 
HETATM    4  C   UNL     1      44.865 -13.150   8.225  1.00  0.00     0.072 C 
HETATM    5  C   UNL     1      43.642 -13.709   5.999  1.00  0.00     0.079 A 
HETATM    6  C   UNL     1      43.387 -14.894   5.350  1.00  0.00     0.152 A 
ENDROOT
BRANCH   6   7
HETATM    7  N   UNL     1      42.730 -15.111   4.144  1.00  0.00    -0.303 N 
HETATM    8  C   UNL     1      41.333 -15.390   4.016  1.00  0.00     0.315 C 
HETATM    9  O   UNL     1      40.578 -15.495   4.967  1.00  0.00    -0.262 OA
HETATM   10  H   UNL     1      43.281 -15.057   3.278  1.00  0.00     0.171 HD
BRANCH   8  11
HETATM   11  C   UNL     1      40.840 -15.542   2.566  1.00  0.00     0.310 C 
HETATM   12  N   UNL     1      41.022 -14.423   1.780  1.00  0.00    -0.348 N 
HETATM   13  H   UNL     1      41.362 -13.580   2.238  1.00  0.00     0.163 HD
HETATM   14  O   UNL     1      40.345 -16.607   2.223  1.00  0.00    -0.262 OA
BRANCH  12  15
HETATM   15  C   UNL     1      40.554 -14.325   0.402  1.00  0.00     0.085 C 
HETATM   16  C   UNL     1      41.740 -13.984  -0.512  1.00  0.00     0.034 C 
HETATM   17  C   UNL     1      41.353 -13.784  -1.991  1.00  0.00    -0.045 C 
HETATM   18  C   UNL     1      41.050 -15.137  -2.660  1.00  0.00     0.015 C 
HETATM   19  C   UNL     1      42.561 -13.174  -2.737  1.00  0.00     0.015 C 
HETATM   20  C   UNL     1      40.162 -12.802  -2.110  1.00  0.00     0.013 C 
HETATM   21  C   UNL     1      38.982 -13.026  -1.150  1.00  0.00    -0.016 C 
HETATM   22  C   UNL     1      39.456 -13.261   0.290  1.00  0.00     0.029 C 
HETATM   23  C   UNL     1      38.011 -14.112  -1.617  1.00  0.00     0.010 C 
ENDBRANCH  12  15
ENDBRANCH   8  11
ENDBRANCH   6   7
BRANCH   1  24
HETATM   24  C   UNL     1      43.930 -17.264   5.901  1.00  0.00     0.732 A 
HETATM   25  N   UNL     1      43.864 -17.991   7.050  1.00  0.00    -0.152 N 
HETATM   26  C   UNL     1      43.854 -19.347   7.028  1.00  0.00     0.268 A 
HETATM   27  H   UNL     1      43.827 -17.520   7.949  1.00  0.00     0.188 HD
HETATM   28  C   UNL     1      43.912 -19.965   5.671  1.00  0.00     0.035 A 
HETATM   29  O   UNL     1      43.799 -20.011   8.056  1.00  0.00    -0.267 OA
HETATM   30  C   UNL     1      43.972 -19.133   4.606  1.00  0.00     0.061 A 
HETATM   31  N   UNL     1      43.984 -17.753   4.703  1.00  0.00    -0.067 NA
HETATM   32  C   UNL     1      44.007 -19.627   3.181  1.00  0.00     0.072 C 
BRANCH  28  33
HETATM   33  C   UNL     1      43.939 -21.471   5.643  1.00  0.00     0.042 C 
HETATM   34  C   UNL     1      45.274 -22.010   5.150  1.00  0.00     0.010 C 
ENDBRANCH  28  33
ENDBRANCH   1  24
TORSDOF 5
ENDMDL
MODEL 7
REMARK VINA RESULT:      -8.1      2.093      4.671
REMARK  5 active torsions:
REMARK  status: ('A' for Active; 'I' for Inactive)
REMARK    1  A    between atoms: C_2  and  C_3 
REMARK    2  A    between atoms: C_7  and  N_8 
REMARK    3  A    between atoms: C_13  and  N_14 
REMARK       I    between atoms: N_14  and  C_15 
REMARK    4  A    between atoms: C_15  and  C_16 
REMARK       I    between atoms: C_16  and  N_17 
REMARK    5  A    between atoms: N_17  and  C_18 
ROOT
HETATM    1  N   UNL     1      40.520  -9.864   7.670  1.00  0.00    -0.045 N 
HETATM    2  N   UNL     1      39.642  -8.823   7.713  1.00  0.00    -0.156 NA
HETATM    3  C   UNL     1      39.147  -8.759   6.472  1.00  0.00     0.055 A 
HETATM    4  C   UNL     1      38.138  -7.730   6.111  1.00  0.00     0.072 C 
HETATM    5  C   UNL     1      39.697  -9.756   5.631  1.00  0.00     0.079 A 
HETATM    6  C   UNL     1      40.581 -10.456   6.418  1.00  0.00     0.152 A 
ENDROOT
BRANCH   6   7
HETATM    7  N   UNL     1      41.395 -11.532   6.079  1.00  0.00    -0.303 N 
HETATM    8  C   UNL     1      40.957 -12.891   6.000  1.00  0.00     0.315 C 
HETATM    9  O   UNL     1      39.819 -13.247   6.251  1.00  0.00    -0.262 OA
HETATM   10  H   UNL     1      42.380 -11.341   5.859  1.00  0.00     0.171 HD
BRANCH   8  11
HETATM   11  C   UNL     1      42.042 -13.888   5.556  1.00  0.00     0.310 C 
HETATM   12  N   UNL     1      41.562 -14.994   4.884  1.00  0.00    -0.348 N 
HETATM   13  H   UNL     1      40.551 -15.105   4.829  1.00  0.00     0.163 HD
HETATM   14  O   UNL     1      43.211 -13.639   5.816  1.00  0.00    -0.262 OA
BRANCH  12  15
HETATM   15  C   UNL     1      42.408 -16.098   4.447  1.00  0.00     0.085 C 
HETATM   16  C   UNL     1      41.961 -16.558   3.053  1.00  0.00     0.034 C 
HETATM   17  C   UNL     1      42.742 -17.774   2.514  1.00  0.00    -0.045 C 
HETATM   18  C   UNL     1      44.157 -17.358   2.074  1.00  0.00     0.015 C 
HETATM   19  C   UNL     1      42.018 -18.306   1.257  1.00  0.00     0.015 C 
HETATM   20  C   UNL     1      42.776 -18.905   3.571  1.00  0.00     0.013 C 
HETATM   21  C   UNL     1      43.117 -18.495   5.013  1.00  0.00    -0.016 C 
HETATM   22  C   UNL     1      42.332 -17.252   5.453  1.00  0.00     0.029 C 
HETATM   23  C   UNL     1      44.618 -18.342   5.266  1.00  0.00     0.010 C 
ENDBRANCH  12  15
ENDBRANCH   8  11
ENDBRANCH   6   7
BRANCH   1  24
HETATM   24  C   UNL     1      41.247 -10.232   8.809  1.00  0.00     0.732 A 
HETATM   25  N   UNL     1      40.435 -10.550   9.854  1.00  0.00    -0.152 N 
HETATM   26  C   UNL     1      40.943 -10.927  11.054  1.00  0.00     0.268 A 
HETATM   27  H   UNL     1      39.426 -10.504   9.748  1.00  0.00     0.188 HD
HETATM   28  C   UNL     1      42.433 -10.970  11.132  1.00  0.00     0.035 A 
HETATM   29  O   UNL     1      40.221 -11.211  12.002  1.00  0.00    -0.267 OA
HETATM   30  C   UNL     1      43.128 -10.632  10.022  1.00  0.00     0.061 A 
HETATM   31  N   UNL     1      42.541 -10.251   8.829  1.00  0.00    -0.067 NA
HETATM   32  C   UNL     1      44.636 -10.660   9.959  1.00  0.00     0.072 C 
BRANCH  28  33
HETATM   33  C   UNL     1      43.003 -11.351  12.474  1.00  0.00     0.042 C 
HETATM   34  C   UNL     1      43.196 -10.141  13.378  1.00  0.00     0.010 C 
ENDBRANCH  28  33
ENDBRANCH   1  24
TORSDOF 5
ENDMDL
MODEL 8
REMARK VINA RESULT:      -8.1      2.970      8.281
REMARK  5 active torsions:
REMARK  status: ('A' for Active; 'I' for Inactive)
REMARK    1  A    between atoms: C_2  and  C_3 
REMARK    2  A    between atoms: C_7  and  N_8 
REMARK    3  A    between atoms: C_13  and  N_14 
REMARK       I    between atoms: N_14  and  C_15 
REMARK    4  A    between atoms: C_15  and  C_16 
REMARK       I    between atoms: C_16  and  N_17 
REMARK    5  A    between atoms: N_17  and  C_18 
ROOT
HETATM    1  N   UNL     1      41.704 -12.902   3.815  1.00  0.00    -0.045 N 
HETATM    2  N   UNL     1      41.770 -13.181   2.482  1.00  0.00    -0.156 NA
HETATM    3  C   UNL     1      41.140 -12.154   1.900  1.00  0.00     0.055 A 
HETATM    4  C   UNL     1      40.999 -12.092   0.423  1.00  0.00     0.072 C 
HETATM    5  C   UNL     1      40.674 -11.213   2.849  1.00  0.00     0.079 A 
HETATM    6  C   UNL     1      41.042 -11.712   4.076  1.00  0.00     0.152 A 
ENDROOT
BRANCH   6   7
HETATM    7  N   UNL     1      40.818 -11.181   5.342  1.00  0.00    -0.303 N 
HETATM    8  C   UNL     1      39.647 -11.417   6.128  1.00  0.00     0.315 C 
HETATM    9  O   UNL     1      38.707 -12.093   5.748  1.00  0.00    -0.262 OA
HETATM   10  H   UNL     1      41.548 -10.585   5.751  1.00  0.00     0.171 HD
BRANCH   8  11
HETATM   11  C   UNL     1      39.663 -10.754   7.516  1.00  0.00     0.310 C 
HETATM   12  N   UNL     1      40.809 -10.988   8.249  1.00  0.00    -0.348 N 
HETATM   13  H   UNL     1      41.485 -11.645   7.863  1.00  0.00     0.163 HD
HETATM   14  O   UNL     1      38.698 -10.085   7.859  1.00  0.00    -0.262 OA
BRANCH  12  15
HETATM   15  C   UNL     1      40.997 -10.521   9.618  1.00  0.00     0.085 C 
HETATM   16  C   UNL     1      42.480 -10.637   9.994  1.00  0.00     0.034 C 
HETATM   17  C   UNL     1      42.791 -10.236  11.450  1.00  0.00    -0.045 C 
HETATM   18  C   UNL     1      42.726  -8.707  11.616  1.00  0.00     0.015 C 
HETATM   19  C   UNL     1      44.238 -10.664  11.780  1.00  0.00     0.015 C 
HETATM   20  C   UNL     1      41.834 -10.963  12.426  1.00  0.00     0.013 C 
HETATM   21  C   UNL     1      40.342 -10.973  12.054  1.00  0.00    -0.016 C 
HETATM   22  C   UNL     1      40.125 -11.337  10.579  1.00  0.00     0.029 C 
HETATM   23  C   UNL     1      39.608  -9.688  12.440  1.00  0.00     0.010 C 
ENDBRANCH  12  15
ENDBRANCH   8  11
ENDBRANCH   6   7
BRANCH   1  24
HETATM   24  C   UNL     1      42.265 -13.775   4.755  1.00  0.00     0.732 A 
HETATM   25  N   UNL     1      41.562 -14.936   4.858  1.00  0.00    -0.152 N 
HETATM   26  C   UNL     1      41.937 -15.915   5.720  1.00  0.00     0.268 A 
HETATM   27  H   UNL     1      40.736 -15.085   4.287  1.00  0.00     0.188 HD
HETATM   28  C   UNL     1      43.161 -15.623   6.523  1.00  0.00     0.035 A 
HETATM   29  O   UNL     1      41.310 -16.962   5.823  1.00  0.00    -0.267 OA
HETATM   30  C   UNL     1      43.771 -14.433   6.327  1.00  0.00     0.061 A 
HETATM   31  N   UNL     1      43.328 -13.476   5.431  1.00  0.00    -0.067 NA
HETATM   32  C   UNL     1      45.029 -14.026   7.053  1.00  0.00     0.072 C 
BRANCH  28  33
HETATM   33  C   UNL     1      43.560 -16.691   7.509  1.00  0.00     0.042 C 
HETATM   34  C   UNL     1      44.548 -17.682   6.910  1.00  0.00     0.010 C 
ENDBRANCH  28  33
ENDBRANCH   1  24
TORSDOF 5
ENDMDL
MODEL 9
REMARK VINA RESULT:      -8.0      5.887      9.619
REMARK  5 active torsions:
REMARK  status: ('A' for Active; 'I' for Inactive)
REMARK    1  A    between atoms: C_2  and  C_3 
REMARK    2  A    between atoms: C_7  and  N_8 
REMARK    3  A    between atoms: C_13  and  N_14 
REMARK       I    between atoms: N_14  and  C_15 
REMARK    4  A    between atoms: C_15  and  C_16 
REMARK       I    between atoms: C_16  and  N_17 
REMARK    5  A    between atoms: N_17  and  C_18 
ROOT
HETATM    1  N   UNL     1      43.180 -17.810   3.084  1.00  0.00    -0.045 N 
HETATM    2  N   UNL     1      43.657 -18.891   3.764  1.00  0.00    -0.156 NA
HETATM    3  C   UNL     1      44.070 -19.726   2.804  1.00  0.00     0.055 A 
HETATM    4  C   UNL     1      44.663 -21.043   3.151  1.00  0.00     0.072 C 
HETATM    5  C   UNL     1      43.867 -19.188   1.510  1.00  0.00     0.079 A 
HETATM    6  C   UNL     1      43.291 -17.956   1.710  1.00  0.00     0.152 A 
ENDROOT
BRANCH   6   7
HETATM    7  N   UNL     1      42.879 -17.018   0.769  1.00  0.00    -0.303 N 
HETATM    8  C   UNL     1      41.515 -16.692   0.487  1.00  0.00     0.315 C 
HETATM    9  O   UNL     1      40.568 -17.232   1.032  1.00  0.00    -0.262 OA
HETATM   10  H   UNL     1      43.602 -16.513   0.243  1.00  0.00     0.171 HD
BRANCH   8  11
HETATM   11  C   UNL     1      41.325 -15.585  -0.564  1.00  0.00     0.310 C 
HETATM   12  N   UNL     1      41.490 -14.303  -0.081  1.00  0.00    -0.348 N 
HETATM   13  H   UNL     1      41.619 -14.195   0.923  1.00  0.00     0.163 HD
HETATM   14  O   UNL     1      41.057 -15.906  -1.714  1.00  0.00    -0.262 OA
BRANCH  12  15
HETATM   15  C   UNL     1      41.277 -13.107  -0.887  1.00  0.00     0.085 C 
HETATM   16  C   UNL     1      42.549 -12.248  -0.865  1.00  0.00     0.034 C 
HETATM   17  C   UNL     1      42.418 -10.915  -1.631  1.00  0.00    -0.045 C 
HETATM   18  C   UNL     1      42.443 -11.158  -3.150  1.00  0.00     0.015 C 
HETATM   19  C   UNL     1      43.642 -10.033  -1.295  1.00  0.00     0.015 C 
HETATM   20  C   UNL     1      41.140 -10.162  -1.187  1.00  0.00     0.013 C 
HETATM   21  C   UNL     1      39.848 -10.989  -1.089  1.00  0.00    -0.016 C 
HETATM   22  C   UNL     1      40.076 -12.317  -0.355  1.00  0.00     0.029 C 
HETATM   23  C   UNL     1      39.148 -11.192  -2.434  1.00  0.00     0.010 C 
ENDBRANCH  12  15
ENDBRANCH   8  11
ENDBRANCH   6   7
BRANCH   1  24
HETATM   24  C   UNL     1      42.649 -16.712   3.772  1.00  0.00     0.732 A 
HETATM   25  N   UNL     1      41.766 -17.090   4.735  1.00  0.00    -0.152 N 
HETATM   26  C   UNL     1      41.134 -16.176   5.513  1.00  0.00     0.268 A 
HETATM   27  H   UNL     1      41.563 -18.074   4.884  1.00  0.00     0.188 HD
HETATM   28  C   UNL     1      41.483 -14.751   5.236  1.00  0.00     0.035 A 
HETATM   29  O   UNL     1      40.334 -16.505   6.380  1.00  0.00    -0.267 OA
HETATM   30  C   UNL     1      42.378 -14.506   4.252  1.00  0.00     0.061 A 
HETATM   31  N   UNL     1      42.982 -15.492   3.493  1.00  0.00    -0.067 NA
HETATM   32  C   UNL     1      42.838 -13.115   3.890  1.00  0.00     0.072 C 
BRANCH  28  33
HETATM   33  C   UNL     1      40.755 -13.729   6.070  1.00  0.00     0.042 C 
HETATM   34  C   UNL     1      39.491 -13.227   5.386  1.00  0.00     0.010 C 
ENDBRANCH  28  33
ENDBRANCH   1  24
TORSDOF 5
ENDMDL
MODEL 10
REMARK VINA RESULT:      -8.0      2.992      8.606
REMARK  5 active torsions:
REMARK  status: ('A' for Active; 'I' for Inactive)
REMARK    1  A    between atoms: C_2  and  C_3 
REMARK    2  A    between atoms: C_7  and  N_8 
REMARK    3  A    between atoms: C_13  and  N_14 
REMARK       I    between atoms: N_14  and  C_15 
REMARK    4  A    between atoms: C_15  and  C_16 
REMARK       I    between atoms: C_16  and  N_17 
REMARK    5  A    between atoms: N_17  and  C_18 
ROOT
HETATM    1  N   UNL     1      40.889 -14.361   4.002  1.00  0.00    -0.045 N 
HETATM    2  N   UNL     1      40.609 -14.645   2.699  1.00  0.00    -0.156 NA
HETATM    3  C   UNL     1      39.657 -13.766   2.369  1.00  0.00     0.055 A 
HETATM    4  C   UNL     1      39.075 -13.757   1.001  1.00  0.00     0.072 C 
HETATM    5  C   UNL     1      39.326 -12.913   3.449  1.00  0.00     0.079 A 
HETATM    6  C   UNL     1      40.126 -13.313   4.493  1.00  0.00     0.152 A 
ENDROOT
BRANCH   6   7
HETATM    7  N   UNL     1      40.193 -12.813   5.789  1.00  0.00    -0.303 N 
HETATM    8  C   UNL     1      40.763 -11.552   6.147  1.00  0.00     0.315 C 
HETATM    9  O   UNL     1      41.279 -10.794   5.343  1.00  0.00    -0.262 OA
HETATM   10  H   UNL     1      39.796 -13.382   6.546  1.00  0.00     0.171 HD
BRANCH   8  11
HETATM   11  C   UNL     1      40.669 -11.208   7.644  1.00  0.00     0.310 C 
HETATM   12  N   UNL     1      41.884 -10.967   8.253  1.00  0.00    -0.348 N 
HETATM   13  H   UNL     1      42.724 -11.133   7.702  1.00  0.00     0.163 HD
HETATM   14  O   UNL     1      39.565 -11.168   8.169  1.00  0.00    -0.262 OA
BRANCH  12  15
HETATM   15  C   UNL     1      42.029 -10.703   9.680  1.00  0.00     0.085 C 
HETATM   16  C   UNL     1      41.622  -9.252   9.970  1.00  0.00     0.034 C 
HETATM   17  C   UNL     1      41.802  -8.834  11.444  1.00  0.00    -0.045 C 
HETATM   18  C   UNL     1      40.706  -9.461  12.323  1.00  0.00     0.015 C 
HETATM   19  C   UNL     1      41.636  -7.301  11.544  1.00  0.00     0.015 C 
HETATM   20  C   UNL     1      43.221  -9.202  11.940  1.00  0.00     0.013 C 
HETATM   21  C   UNL     1      43.732 -10.611  11.593  1.00  0.00    -0.016 C 
HETATM   22  C   UNL     1      43.473 -10.963  10.122  1.00  0.00     0.029 C 
HETATM   23  C   UNL     1      43.221 -11.697  12.540  1.00  0.00     0.010 C 
ENDBRANCH  12  15
ENDBRANCH   8  11
ENDBRANCH   6   7
BRANCH   1  24
HETATM   24  C   UNL     1      41.855 -15.097   4.700  1.00  0.00     0.732 A 
HETATM   25  N   UNL     1      41.762 -16.431   4.450  1.00  0.00    -0.152 N 
HETATM   26  C   UNL     1      42.603 -17.321   5.035  1.00  0.00     0.268 A 
HETATM   27  H   UNL     1      41.049 -16.783   3.818  1.00  0.00     0.188 HD
HETATM   28  C   UNL     1      43.622 -16.728   5.951  1.00  0.00     0.035 A 
HETATM   29  O   UNL     1      42.525 -18.524   4.820  1.00  0.00    -0.267 OA
HETATM   30  C   UNL     1      43.612 -15.386   6.114  1.00  0.00     0.061 A 
HETATM   31  N   UNL     1      42.718 -14.537   5.487  1.00  0.00    -0.067 NA
HETATM   32  C   UNL     1      44.604 -14.659   6.989  1.00  0.00     0.072 C 
BRANCH  28  33
HETATM   33  C   UNL     1      44.535 -17.714   6.633  1.00  0.00     0.042 C 
HETATM   34  C   UNL     1      43.972 -18.187   7.966  1.00  0.00     0.010 C 
ENDBRANCH  28  33
ENDBRANCH   1  24
TORSDOF 5
ENDMDL
