MODEL 1
REMARK VINA RESULT:      -9.5      0.000      0.000
REMARK  3 active torsions:
REMARK  status: ('A' for Active; 'I' for Inactive)
REMARK    1  A    between atoms: C_2  and  C_3 
REMARK    2  A    between atoms: C_12  and  C_13 
REMARK    3  A    between atoms: C_16  and  O_17 
ROOT
HETATM    1  C   UNL     1      41.739 -12.775   5.774  1.00  0.00    -0.007 C 
HETATM    2  C   UNL     1      41.142 -14.198   5.871  1.00  0.00     0.009 C 
HETATM    3  C   UNL     1      40.145 -14.579   4.759  1.00  0.00     0.056 C 
HETATM    4  C   UNL     1      40.578 -14.190   3.329  1.00  0.00     0.129 C 
HETATM    5  N   UNL     1      41.487 -15.172   2.678  1.00  0.00    -0.223 N 
HETATM    6  C   UNL     1      41.577 -15.221   1.277  1.00  0.00     0.142 C 
HETATM    7  N   UNL     1      42.674 -15.836   0.740  1.00  0.00    -0.305 N 
HETATM    8  C   UNL     1      43.509 -16.593   1.519  1.00  0.00     0.278 C 
HETATM    9  O   UNL     1      44.585 -17.009   1.122  1.00  0.00    -0.265 OA
HETATM   10  C   UNL     1      42.951 -16.925   2.908  1.00  0.00     0.155 C 
HETATM   11  N   UNL     1      42.041 -16.159   3.461  1.00  0.00    -0.162 NA
HETATM   12  C   UNL     1      40.601 -14.718   0.486  1.00  0.00     0.036 C 
HETATM   13  C   UNL     1      39.363 -14.259   1.216  1.00  0.00     0.044 C 
HETATM   14  N   UNL     1      39.344 -14.099   2.492  1.00  0.00    -0.361 N 
HETATM   15  H   UNL     1      38.479 -13.821   2.952  1.00  0.00     0.162 HD
HETATM   16  C   UNL     1      40.578 -14.697  -0.964  1.00  0.00     0.017 C 
HETATM   17  C   UNL     1      39.461 -14.371  -1.628  1.00  0.00     0.001 C 
HETATM   18  C   UNL     1      38.233 -14.056  -0.938  1.00  0.00     0.002 C 
HETATM   19  C   UNL     1      38.148 -13.997   0.398  1.00  0.00     0.030 C 
HETATM   20  C   UNL     1      41.206 -12.776   3.282  1.00  0.00     0.056 C 
HETATM   21  C   UNL     1      42.267 -12.566   4.346  1.00  0.00     0.009 C 
HETATM   22  H   UNL     1      42.934 -15.761  -0.233  1.00  0.00     0.170 HD
ENDROOT
BRANCH   1  23
HETATM   23  C   UNL     1      40.855 -11.612   6.393  1.00  0.00    -0.048 C 
HETATM   24  C   UNL     1      41.681 -10.915   7.504  1.00  0.00     0.015 C 
HETATM   25  C   UNL     1      39.538 -12.071   7.042  1.00  0.00     0.015 C 
HETATM   26  C   UNL     1      40.508 -10.528   5.350  1.00  0.00     0.015 C 
ENDBRANCH   1  23
BRANCH  10  27
HETATM   27  C   UNL     1      43.365 -18.191   3.585  1.00  0.00     0.000 A 
HETATM   28  C   UNL     1      43.724 -19.303   2.817  1.00  0.00     0.017 A 
HETATM   29  C   UNL     1      44.246 -20.445   3.434  1.00  0.00     0.037 A 
HETATM   30  C   UNL     1      44.432 -20.491   4.818  1.00  0.00     0.068 A 
HETATM   31  C   UNL     1      44.061 -19.392   5.588  1.00  0.00     0.037 A 
HETATM   32  C   UNL     1      43.536 -18.247   4.975  1.00  0.00     0.017 A 
BRANCH  30  33
HETATM   33  O   UNL     1      44.984 -21.648   5.290  1.00  0.00    -0.356 OA
HETATM   34  C   UNL     1      44.723 -22.836   4.549  1.00  0.00     0.210 C 
ENDBRANCH  30  33
ENDBRANCH  10  27
TORSDOF 3
ENDMDL
MODEL 2
REMARK VINA RESULT:      -9.4      2.785      7.697
REMARK  3 active torsions:
REMARK  status: ('A' for Active; 'I' for Inactive)
REMARK    1  A    between atoms: C_2  and  C_3 
REMARK    2  A    between atoms: C_12  and  C_13 
REMARK    3  A    between atoms: C_16  and  O_17 
ROOT
HETATM    1  C   UNL     1      43.314 -18.319   1.508  1.00  0.00    -0.007 C 
HETATM    2  C   UNL     1      41.798 -18.149   1.259  1.00  0.00     0.009 C 
HETATM    3  C   UNL     1      41.050 -17.268   2.279  1.00  0.00     0.056 C 
HETATM    4  C   UNL     1      41.763 -15.951   2.655  1.00  0.00     0.129 C 
HETATM    5  N   UNL     1      41.524 -14.833   1.703  1.00  0.00    -0.223 N 
HETATM    6  C   UNL     1      41.682 -13.505   2.128  1.00  0.00     0.142 C 
HETATM    7  N   UNL     1      41.837 -12.550   1.161  1.00  0.00    -0.305 N 
HETATM    8  C   UNL     1      41.591 -12.835  -0.156  1.00  0.00     0.278 C 
HETATM    9  O   UNL     1      41.883 -12.073  -1.062  1.00  0.00    -0.265 OA
HETATM   10  C   UNL     1      40.860 -14.163  -0.390  1.00  0.00     0.155 C 
HETATM   11  N   UNL     1      40.930 -15.128   0.495  1.00  0.00    -0.162 NA
HETATM   12  C   UNL     1      41.642 -13.171   3.439  1.00  0.00     0.036 C 
HETATM   13  C   UNL     1      41.260 -14.294   4.370  1.00  0.00     0.044 C 
HETATM   14  N   UNL     1      41.246 -15.521   3.988  1.00  0.00    -0.361 N 
HETATM   15  H   UNL     1      40.948 -16.248   4.637  1.00  0.00     0.162 HD
HETATM   16  C   UNL     1      41.801 -11.845   4.007  1.00  0.00     0.017 C 
HETATM   17  C   UNL     1      41.523 -11.614   5.297  1.00  0.00     0.001 C 
HETATM   18  C   UNL     1      41.032 -12.655   6.166  1.00  0.00     0.002 C 
HETATM   19  C   UNL     1      40.891 -13.927   5.765  1.00  0.00     0.030 C 
HETATM   20  C   UNL     1      43.285 -16.157   2.857  1.00  0.00     0.056 C 
HETATM   21  C   UNL     1      43.932 -16.928   1.721  1.00  0.00     0.009 C 
HETATM   22  H   UNL     1      42.146 -11.608   1.353  1.00  0.00     0.170 HD
ENDROOT
BRANCH   1  23
HETATM   23  C   UNL     1      43.722 -19.453   2.540  1.00  0.00    -0.048 C 
HETATM   24  C   UNL     1      43.137 -20.797   2.038  1.00  0.00     0.015 C 
HETATM   25  C   UNL     1      43.197 -19.248   3.972  1.00  0.00     0.015 C 
HETATM   26  C   UNL     1      45.252 -19.639   2.627  1.00  0.00     0.015 C 
ENDBRANCH   1  23
BRANCH  10  27
HETATM   27  C   UNL     1      39.970 -14.314  -1.582  1.00  0.00     0.000 A 
HETATM   28  C   UNL     1      40.317 -15.210  -2.598  1.00  0.00     0.017 A 
HETATM   29  C   UNL     1      39.426 -15.463  -3.646  1.00  0.00     0.037 A 
HETATM   30  C   UNL     1      38.176 -14.842  -3.691  1.00  0.00     0.068 A 
HETATM   31  C   UNL     1      37.834 -13.935  -2.691  1.00  0.00     0.037 A 
HETATM   32  C   UNL     1      38.723 -13.678  -1.639  1.00  0.00     0.017 A 
BRANCH  30  33
HETATM   33  O   UNL     1      37.387 -15.203  -4.746  1.00  0.00    -0.356 OA
HETATM   34  C   UNL     1      36.173 -14.480  -4.920  1.00  0.00     0.210 C 
ENDBRANCH  30  33
ENDBRANCH  10  27
TORSDOF 3
ENDMDL
MODEL 3
REMARK VINA RESULT:      -9.4      1.927      5.286
REMARK  3 active torsions:
REMARK  status: ('A' for Active; 'I' for Inactive)
REMARK    1  A    between atoms: C_2  and  C_3 
REMARK    2  A    between atoms: C_12  and  C_13 
REMARK    3  A    between atoms: C_16  and  O_17 
ROOT
HETATM    1  C   UNL     1      39.928 -14.396   0.277  1.00  0.00    -0.007 C 
HETATM    2  C   UNL     1      41.395 -14.600   0.720  1.00  0.00     0.009 C 
HETATM    3  C   UNL     1      41.941 -13.559   1.717  1.00  0.00     0.056 C 
HETATM    4  C   UNL     1      40.990 -13.207   2.882  1.00  0.00     0.129 C 
HETATM    5  N   UNL     1      41.053 -14.155   4.028  1.00  0.00    -0.223 N 
HETATM    6  C   UNL     1      40.645 -13.737   5.305  1.00  0.00     0.142 C 
HETATM    7  N   UNL     1      40.348 -14.710   6.219  1.00  0.00    -0.305 N 
HETATM    8  C   UNL     1      40.681 -16.018   5.988  1.00  0.00     0.278 C 
HETATM    9  O   UNL     1      40.283 -16.934   6.688  1.00  0.00    -0.265 OA
HETATM   10  C   UNL     1      41.646 -16.228   4.815  1.00  0.00     0.155 C 
HETATM   11  N   UNL     1      41.725 -15.343   3.850  1.00  0.00    -0.162 NA
HETATM   12  C   UNL     1      40.584 -12.426   5.636  1.00  0.00     0.036 C 
HETATM   13  C   UNL     1      41.135 -11.481   4.597  1.00  0.00     0.044 C 
HETATM   14  N   UNL     1      41.381 -11.860   3.394  1.00  0.00    -0.361 N 
HETATM   15  H   UNL     1      41.786 -11.201   2.731  1.00  0.00     0.162 HD
HETATM   16  C   UNL     1      40.171 -11.866   6.909  1.00  0.00     0.017 C 
HETATM   17  C   UNL     1      40.364 -10.568   7.182  1.00  0.00     0.001 C 
HETATM   18  C   UNL     1      41.009  -9.683   6.243  1.00  0.00     0.002 C 
HETATM   19  C   UNL     1      41.389 -10.077   5.020  1.00  0.00     0.030 C 
HETATM   20  C   UNL     1      39.526 -13.051   2.404  1.00  0.00     0.056 C 
HETATM   21  C   UNL     1      39.063 -14.205   1.533  1.00  0.00     0.009 C 
HETATM   22  H   UNL     1      39.868 -14.529   7.089  1.00  0.00     0.170 HD
ENDROOT
BRANCH   1  23
HETATM   23  C   UNL     1      39.702 -13.375  -0.916  1.00  0.00    -0.048 C 
HETATM   24  C   UNL     1      40.056 -14.093  -2.242  1.00  0.00     0.015 C 
HETATM   25  C   UNL     1      40.566 -12.103  -0.855  1.00  0.00     0.015 C 
HETATM   26  C   UNL     1      38.227 -12.932  -1.030  1.00  0.00     0.015 C 
ENDBRANCH   1  23
BRANCH  10  27
HETATM   27  C   UNL     1      42.584 -17.392   4.831  1.00  0.00     0.000 A 
HETATM   28  C   UNL     1      42.609 -18.278   3.750  1.00  0.00     0.017 A 
HETATM   29  C   UNL     1      43.577 -19.287   3.690  1.00  0.00     0.037 A 
HETATM   30  C   UNL     1      44.539 -19.418   4.695  1.00  0.00     0.068 A 
HETATM   31  C   UNL     1      44.507 -18.549   5.782  1.00  0.00     0.037 A 
HETATM   32  C   UNL     1      43.539 -17.538   5.847  1.00  0.00     0.017 A 
BRANCH  30  33
HETATM   33  O   UNL     1      45.448 -20.419   4.498  1.00  0.00    -0.356 OA
HETATM   34  C   UNL     1      45.060 -21.729   4.896  1.00  0.00     0.210 C 
ENDBRANCH  30  33
ENDBRANCH  10  27
TORSDOF 3
ENDMDL
MODEL 4
REMARK VINA RESULT:      -9.1      2.868      6.749
REMARK  3 active torsions:
REMARK  status: ('A' for Active; 'I' for Inactive)
REMARK    1  A    between atoms: C_2  and  C_3 
REMARK    2  A    between atoms: C_12  and  C_13 
REMARK    3  A    between atoms: C_16  and  O_17 
ROOT
HETATM    1  C   UNL     1      43.454 -17.034   4.767  1.00  0.00    -0.007 C 
HETATM    2  C   UNL     1      42.076 -17.110   4.072  1.00  0.00     0.009 C 
HETATM    3  C   UNL     1      41.005 -16.140   4.607  1.00  0.00     0.056 C 
HETATM    4  C   UNL     1      41.492 -14.695   4.849  1.00  0.00     0.129 C 
HETATM    5  N   UNL     1      41.483 -13.836   3.633  1.00  0.00    -0.223 N 
HETATM    6  C   UNL     1      41.427 -12.439   3.763  1.00  0.00     0.142 C 
HETATM    7  N   UNL     1      41.808 -11.693   2.683  1.00  0.00    -0.305 N 
HETATM    8  C   UNL     1      41.987 -12.271   1.454  1.00  0.00     0.278 C 
HETATM    9  O   UNL     1      42.492 -11.682   0.514  1.00  0.00    -0.265 OA
HETATM   10  C   UNL     1      41.441 -13.700   1.342  1.00  0.00     0.155 C 
HETATM   11  N   UNL     1      41.299 -14.445   2.412  1.00  0.00    -0.162 NA
HETATM   12  C   UNL     1      40.976 -11.851   4.895  1.00  0.00     0.036 C 
HETATM   13  C   UNL     1      40.398 -12.797   5.918  1.00  0.00     0.044 C 
HETATM   14  N   UNL     1      40.573 -14.068   5.845  1.00  0.00    -0.361 N 
HETATM   15  H   UNL     1      40.138 -14.677   6.536  1.00  0.00     0.162 HD
HETATM   16  C   UNL     1      40.877 -10.427   5.158  1.00  0.00     0.017 C 
HETATM   17  C   UNL     1      40.211  -9.972   6.228  1.00  0.00     0.001 C 
HETATM   18  C   UNL     1      39.544 -10.866   7.143  1.00  0.00     0.002 C 
HETATM   19  C   UNL     1      39.607 -12.200   7.028  1.00  0.00     0.030 C 
HETATM   20  C   UNL     1      42.892 -14.662   5.510  1.00  0.00     0.056 C 
HETATM   21  C   UNL     1      43.895 -15.563   4.813  1.00  0.00     0.009 C 
HETATM   22  H   UNL     1      41.989 -10.700   2.728  1.00  0.00     0.170 HD
ENDROOT
BRANCH   1  23
HETATM   23  C   UNL     1      43.600 -17.871   6.107  1.00  0.00    -0.048 C 
HETATM   24  C   UNL     1      43.350 -19.364   5.775  1.00  0.00     0.015 C 
HETATM   25  C   UNL     1      42.607 -17.493   7.220  1.00  0.00     0.015 C 
HETATM   26  C   UNL     1      45.022 -17.779   6.699  1.00  0.00     0.015 C 
ENDBRANCH   1  23
BRANCH  10  27
HETATM   27  C   UNL     1      40.961 -14.204   0.019  1.00  0.00     0.000 A 
HETATM   28  C   UNL     1      40.137 -13.398  -0.773  1.00  0.00     0.017 A 
HETATM   29  C   UNL     1      39.797 -13.800  -2.069  1.00  0.00     0.037 A 
HETATM   30  C   UNL     1      40.283 -14.997  -2.600  1.00  0.00     0.068 A 
HETATM   31  C   UNL     1      41.090 -15.811  -1.808  1.00  0.00     0.037 A 
HETATM   32  C   UNL     1      41.432 -15.414  -0.509  1.00  0.00     0.017 A 
BRANCH  30  33
HETATM   33  O   UNL     1      39.907 -15.255  -3.887  1.00  0.00    -0.356 OA
HETATM   34  C   UNL     1      38.882 -16.224  -4.078  1.00  0.00     0.210 C 
ENDBRANCH  30  33
ENDBRANCH  10  27
TORSDOF 3
ENDMDL
MODEL 5
REMARK VINA RESULT:      -8.8      2.994      7.014
REMARK  3 active torsions:
REMARK  status: ('A' for Active; 'I' for Inactive)
REMARK    1  A    between atoms: C_2  and  C_3 
REMARK    2  A    between atoms: C_12  and  C_13 
REMARK    3  A    between atoms: C_16  and  O_17 
ROOT
HETATM    1  C   UNL     1      40.103 -12.195   4.009  1.00  0.00    -0.007 C 
HETATM    2  C   UNL     1      41.428 -11.871   3.280  1.00  0.00     0.009 C 
HETATM    3  C   UNL     1      42.476 -13.000   3.271  1.00  0.00     0.056 C 
HETATM    4  C   UNL     1      41.924 -14.405   2.946  1.00  0.00     0.129 C 
HETATM    5  N   UNL     1      41.790 -14.687   1.490  1.00  0.00    -0.223 N 
HETATM    6  C   UNL     1      41.773 -16.014   1.033  1.00  0.00     0.142 C 
HETATM    7  N   UNL     1      41.268 -16.241  -0.218  1.00  0.00    -0.305 N 
HETATM    8  C   UNL     1      41.032 -15.203  -1.081  1.00  0.00     0.278 C 
HETATM    9  O   UNL     1      40.423 -15.341  -2.128  1.00  0.00    -0.265 OA
HETATM   10  C   UNL     1      41.652 -13.868  -0.650  1.00  0.00     0.155 C 
HETATM   11  N   UNL     1      41.918 -13.634   0.613  1.00  0.00    -0.162 NA
HETATM   12  C   UNL     1      42.272 -17.027   1.778  1.00  0.00     0.036 C 
HETATM   13  C   UNL     1      42.980 -16.600   3.040  1.00  0.00     0.044 C 
HETATM   14  N   UNL     1      42.876 -15.408   3.509  1.00  0.00    -0.361 N 
HETATM   15  H   UNL     1      43.397 -15.148   4.345  1.00  0.00     0.162 HD
HETATM   16  C   UNL     1      42.306 -18.434   1.427  1.00  0.00     0.017 C 
HETATM   17  C   UNL     1      43.022 -19.305   2.151  1.00  0.00     0.001 C 
HETATM   18  C   UNL     1      43.808 -18.884   3.285  1.00  0.00     0.002 C 
HETATM   19  C   UNL     1      43.816 -17.620   3.730  1.00  0.00     0.030 C 
HETATM   20  C   UNL     1      40.578 -14.675   3.663  1.00  0.00     0.056 C 
HETATM   21  C   UNL     1      39.580 -13.544   3.490  1.00  0.00     0.009 C 
HETATM   22  H   UNL     1      41.032 -17.159  -0.565  1.00  0.00     0.170 HD
ENDROOT
BRANCH   1  23
HETATM   23  C   UNL     1      40.109 -11.981   5.581  1.00  0.00    -0.048 C 
HETATM   24  C   UNL     1      39.649 -10.531   5.874  1.00  0.00     0.015 C 
HETATM   25  C   UNL     1      41.481 -12.156   6.255  1.00  0.00     0.015 C 
HETATM   26  C   UNL     1      39.114 -12.917   6.299  1.00  0.00     0.015 C 
ENDBRANCH   1  23
BRANCH  10  27
HETATM   27  C   UNL     1      42.060 -12.876  -1.690  1.00  0.00     0.000 A 
HETATM   28  C   UNL     1      41.702 -13.083  -3.026  1.00  0.00     0.017 A 
HETATM   29  C   UNL     1      41.956 -12.095  -3.983  1.00  0.00     0.037 A 
HETATM   30  C   UNL     1      42.554 -10.884  -3.624  1.00  0.00     0.068 A 
HETATM   31  C   UNL     1      42.927 -10.681  -2.298  1.00  0.00     0.037 A 
HETATM   32  C   UNL     1      42.677 -11.668  -1.336  1.00  0.00     0.017 A 
BRANCH  30  33
HETATM   33  O   UNL     1      42.712  -9.991  -4.645  1.00  0.00    -0.356 OA
HETATM   34  C   UNL     1      41.826 -10.115  -5.753  1.00  0.00     0.210 C 
ENDBRANCH  30  33
ENDBRANCH  10  27
TORSDOF 3
ENDMDL
MODEL 6
REMARK VINA RESULT:      -8.6      2.412      6.417
REMARK  3 active torsions:
REMARK  status: ('A' for Active; 'I' for Inactive)
REMARK    1  A    between atoms: C_2  and  C_3 
REMARK    2  A    between atoms: C_12  and  C_13 
REMARK    3  A    between atoms: C_16  and  O_17 
ROOT
HETATM    1  C   UNL     1      40.056 -12.195   5.368  1.00  0.00    -0.007 C 
HETATM    2  C   UNL     1      41.220 -12.046   4.362  1.00  0.00     0.009 C 
HETATM    3  C   UNL     1      42.454 -12.928   4.635  1.00  0.00     0.056 C 
HETATM    4  C   UNL     1      42.142 -14.396   5.001  1.00  0.00     0.129 C 
HETATM    5  N   UNL     1      41.921 -15.284   3.828  1.00  0.00    -0.223 N 
HETATM    6  C   UNL     1      42.106 -16.670   3.955  1.00  0.00     0.142 C 
HETATM    7  N   UNL     1      41.532 -17.470   3.005  1.00  0.00    -0.305 N 
HETATM    8  C   UNL     1      41.025 -16.937   1.849  1.00  0.00     0.278 C 
HETATM    9  O   UNL     1      40.353 -17.584   1.064  1.00  0.00    -0.265 OA
HETATM   10  C   UNL     1      41.426 -15.479   1.595  1.00  0.00     0.155 C 
HETATM   11  N   UNL     1      41.765 -14.698   2.592  1.00  0.00    -0.162 NA
HETATM   12  C   UNL     1      42.854 -17.197   4.952  1.00  0.00     0.036 C 
HETATM   13  C   UNL     1      43.590 -16.188   5.796  1.00  0.00     0.044 C 
HETATM   14  N   UNL     1      43.313 -14.933   5.755  1.00  0.00    -0.361 N 
HETATM   15  H   UNL     1      43.857 -14.278   6.315  1.00  0.00     0.162 HD
HETATM   16  C   UNL     1      43.113 -18.603   5.198  1.00  0.00     0.017 C 
HETATM   17  C   UNL     1      44.045 -18.985   6.082  1.00  0.00     0.001 C 
HETATM   18  C   UNL     1      44.846 -18.024   6.801  1.00  0.00     0.002 C 
HETATM   19  C   UNL     1      44.664 -16.701   6.690  1.00  0.00     0.030 C 
HETATM   20  C   UNL     1      40.946 -14.504   5.979  1.00  0.00     0.056 C 
HETATM   21  C   UNL     1      39.744 -13.690   5.533  1.00  0.00     0.009 C 
HETATM   22  H   UNL     1      41.438 -18.470   3.102  1.00  0.00     0.170 HD
ENDROOT
BRANCH   1  23
HETATM   23  C   UNL     1      40.176 -11.333   6.695  1.00  0.00    -0.048 C 
HETATM   24  C   UNL     1      39.563  -9.937   6.423  1.00  0.00     0.015 C 
HETATM   25  C   UNL     1      41.614 -11.098   7.190  1.00  0.00     0.015 C 
HETATM   26  C   UNL     1      39.376 -11.950   7.863  1.00  0.00     0.015 C 
ENDBRANCH   1  23
BRANCH  10  27
HETATM   27  C   UNL     1      41.540 -14.981   0.191  1.00  0.00     0.000 A 
HETATM   28  C   UNL     1      41.217 -15.827  -0.875  1.00  0.00     0.017 A 
HETATM   29  C   UNL     1      41.185 -15.330  -2.182  1.00  0.00     0.037 A 
HETATM   30  C   UNL     1      41.457 -13.985  -2.446  1.00  0.00     0.068 A 
HETATM   31  C   UNL     1      41.796 -13.143  -1.390  1.00  0.00     0.037 A 
HETATM   32  C   UNL     1      41.831 -13.636  -0.079  1.00  0.00     0.017 A 
BRANCH  30  33
HETATM   33  O   UNL     1      41.355 -13.621  -3.758  1.00  0.00    -0.356 OA
HETATM   34  C   UNL     1      41.369 -12.225  -4.042  1.00  0.00     0.210 C 
ENDBRANCH  30  33
ENDBRANCH  10  27
TORSDOF 3
ENDMDL
MODEL 7
REMARK VINA RESULT:      -8.3      3.414      7.563
REMARK  3 active torsions:
REMARK  status: ('A' for Active; 'I' for Inactive)
REMARK    1  A    between atoms: C_2  and  C_3 
REMARK    2  A    between atoms: C_12  and  C_13 
REMARK    3  A    between atoms: C_16  and  O_17 
ROOT
HETATM    1  C   UNL     1      43.084 -16.858   7.358  1.00  0.00    -0.007 C 
HETATM    2  C   UNL     1      43.750 -15.504   7.021  1.00  0.00     0.009 C 
HETATM    3  C   UNL     1      43.821 -15.150   5.523  1.00  0.00     0.056 C 
HETATM    4  C   UNL     1      42.524 -15.412   4.726  1.00  0.00     0.129 C 
HETATM    5  N   UNL     1      41.523 -14.314   4.810  1.00  0.00    -0.223 N 
HETATM    6  C   UNL     1      40.552 -14.174   3.806  1.00  0.00     0.142 C 
HETATM    7  N   UNL     1      39.444 -13.430   4.104  1.00  0.00    -0.305 N 
HETATM    8  C   UNL     1      39.402 -12.648   5.229  1.00  0.00     0.278 C 
HETATM    9  O   UNL     1      38.380 -12.112   5.622  1.00  0.00    -0.265 OA
HETATM   10  C   UNL     1      40.760 -12.451   5.913  1.00  0.00     0.155 C 
HETATM   11  N   UNL     1      41.721 -13.328   5.751  1.00  0.00    -0.162 NA
HETATM   12  C   UNL     1      40.719 -14.717   2.578  1.00  0.00     0.036 C 
HETATM   13  C   UNL     1      42.075 -15.329   2.332  1.00  0.00     0.044 C 
HETATM   14  N   UNL     1      42.899 -15.566   3.289  1.00  0.00    -0.361 N 
HETATM   15  H   UNL     1      43.820 -15.949   3.078  1.00  0.00     0.162 HD
HETATM   16  C   UNL     1      39.792 -14.653   1.463  1.00  0.00     0.017 C 
HETATM   17  C   UNL     1      40.167 -15.040   0.236  1.00  0.00     0.001 C 
HETATM   18  C   UNL     1      41.505 -15.507  -0.036  1.00  0.00     0.002 C 
HETATM   19  C   UNL     1      42.431 -15.652   0.923  1.00  0.00     0.030 C 
HETATM   20  C   UNL     1      41.868 -16.758   5.120  1.00  0.00     0.056 C 
HETATM   21  C   UNL     1      41.737 -16.933   6.623  1.00  0.00     0.009 C 
HETATM   22  H   UNL     1      38.608 -13.423   3.537  1.00  0.00     0.170 HD
ENDROOT
BRANCH   1  23
HETATM   23  C   UNL     1      44.026 -18.132   7.268  1.00  0.00    -0.048 C 
HETATM   24  C   UNL     1      44.333 -18.608   8.710  1.00  0.00     0.015 C 
HETATM   25  C   UNL     1      45.382 -17.891   6.582  1.00  0.00     0.015 C 
HETATM   26  C   UNL     1      43.340 -19.311   6.546  1.00  0.00     0.015 C 
ENDBRANCH   1  23
BRANCH  10  27
HETATM   27  C   UNL     1      41.024 -11.195   6.678  1.00  0.00     0.000 A 
HETATM   28  C   UNL     1      41.327 -10.015   5.991  1.00  0.00     0.017 A 
HETATM   29  C   UNL     1      41.438  -8.806   6.686  1.00  0.00     0.037 A 
HETATM   30  C   UNL     1      41.235  -8.751   8.067  1.00  0.00     0.068 A 
HETATM   31  C   UNL     1      40.950  -9.926   8.757  1.00  0.00     0.037 A 
HETATM   32  C   UNL     1      40.839 -11.140   8.067  1.00  0.00     0.017 A 
BRANCH  30  33
HETATM   33  O   UNL     1      41.335  -7.505   8.618  1.00  0.00    -0.356 OA
HETATM   34  C   UNL     1      40.763  -7.323   9.909  1.00  0.00     0.210 C 
ENDBRANCH  30  33
ENDBRANCH  10  27
TORSDOF 3
ENDMDL
MODEL 8
REMARK VINA RESULT:      -8.0      3.299      7.332
REMARK  3 active torsions:
REMARK  status: ('A' for Active; 'I' for Inactive)
REMARK    1  A    between atoms: C_2  and  C_3 
REMARK    2  A    between atoms: C_12  and  C_13 
REMARK    3  A    between atoms: C_16  and  O_17 
ROOT
HETATM    1  C   UNL     1      42.391 -16.843   3.194  1.00  0.00    -0.007 C 
HETATM    2  C   UNL     1      43.074 -15.478   2.953  1.00  0.00     0.009 C 
HETATM    3  C   UNL     1      43.006 -14.944   1.509  1.00  0.00     0.056 C 
HETATM    4  C   UNL     1      41.625 -15.068   0.829  1.00  0.00     0.129 C 
HETATM    5  N   UNL     1      40.684 -13.961   1.150  1.00  0.00    -0.223 N 
HETATM    6  C   UNL     1      39.622 -13.670   0.279  1.00  0.00     0.142 C 
HETATM    7  N   UNL     1      38.582 -12.937   0.781  1.00  0.00    -0.305 N 
HETATM    8  C   UNL     1      38.687 -12.299   1.989  1.00  0.00     0.278 C 
HETATM    9  O   UNL     1      37.733 -11.788   2.551  1.00  0.00    -0.265 OA
HETATM   10  C   UNL     1      40.115 -12.228   2.544  1.00  0.00     0.155 C 
HETATM   11  N   UNL     1      41.018 -13.105   2.176  1.00  0.00    -0.162 NA
HETATM   12  C   UNL     1      39.640 -14.061  -1.016  1.00  0.00     0.036 C 
HETATM   13  C   UNL     1      40.937 -14.677  -1.477  1.00  0.00     0.044 C 
HETATM   14  N   UNL     1      41.845 -15.054  -0.648  1.00  0.00    -0.361 N 
HETATM   15  H   UNL     1      42.722 -15.433  -1.000  1.00  0.00     0.162 HD
HETATM   16  C   UNL     1      38.608 -13.833  -2.010  1.00  0.00     0.017 C 
HETATM   17  C   UNL     1      38.840 -14.076  -3.307  1.00  0.00     0.001 C 
HETATM   18  C   UNL     1      40.123 -14.544  -3.774  1.00  0.00     0.002 C 
HETATM   19  C   UNL     1      41.134 -14.833  -2.944  1.00  0.00     0.030 C 
HETATM   20  C   UNL     1      40.957 -16.433   1.126  1.00  0.00     0.056 C 
HETATM   21  C   UNL     1      40.973 -16.789   2.602  1.00  0.00     0.009 C 
HETATM   22  H   UNL     1      37.694 -12.837   0.311  1.00  0.00     0.170 HD
ENDROOT
BRANCH   1  23
HETATM   23  C   UNL     1      43.265 -18.123   2.852  1.00  0.00    -0.048 C 
HETATM   24  C   UNL     1      44.340 -17.712   1.816  1.00  0.00     0.015 C 
HETATM   25  C   UNL     1      42.484 -19.298   2.239  1.00  0.00     0.015 C 
HETATM   26  C   UNL     1      44.019 -18.658   4.088  1.00  0.00     0.015 C 
ENDBRANCH   1  23
BRANCH  10  27
HETATM   27  C   UNL     1      40.508 -11.084   3.422  1.00  0.00     0.000 A 
HETATM   28  C   UNL     1      40.887 -11.323   4.746  1.00  0.00     0.017 A 
HETATM   29  C   UNL     1      41.389 -10.281   5.533  1.00  0.00     0.037 A 
HETATM   30  C   UNL     1      41.535  -8.994   5.010  1.00  0.00     0.068 A 
HETATM   31  C   UNL     1      41.142  -8.747   3.697  1.00  0.00     0.037 A 
HETATM   32  C   UNL     1      40.638  -9.787   2.906  1.00  0.00     0.017 A 
BRANCH  30  33
HETATM   33  O   UNL     1      42.072  -8.077   5.869  1.00  0.00    -0.356 OA
HETATM   34  C   UNL     1      41.378  -7.858   7.093  1.00  0.00     0.210 C 
ENDBRANCH  30  33
ENDBRANCH  10  27
TORSDOF 3
ENDMDL
MODEL 9
REMARK VINA RESULT:      -7.8      2.885      6.792
REMARK  3 active torsions:
REMARK  status: ('A' for Active; 'I' for Inactive)
REMARK    1  A    between atoms: C_2  and  C_3 
REMARK    2  A    between atoms: C_12  and  C_13 
REMARK    3  A    between atoms: C_16  and  O_17 
ROOT
HETATM    1  C   UNL     1      39.743 -11.051   6.162  1.00  0.00    -0.007 C 
HETATM    2  C   UNL     1      41.074 -10.879   5.394  1.00  0.00     0.009 C 
HETATM    3  C   UNL     1      42.068 -12.050   5.513  1.00  0.00     0.056 C 
HETATM    4  C   UNL     1      41.446 -13.455   5.357  1.00  0.00     0.129 C 
HETATM    5  N   UNL     1      41.284 -13.899   3.946  1.00  0.00    -0.223 N 
HETATM    6  C   UNL     1      41.199 -15.268   3.648  1.00  0.00     0.142 C 
HETATM    7  N   UNL     1      40.671 -15.615   2.435  1.00  0.00    -0.305 N 
HETATM    8  C   UNL     1      40.476 -14.676   1.457  1.00  0.00     0.278 C 
HETATM    9  O   UNL     1      39.851 -14.906   0.436  1.00  0.00    -0.265 OA
HETATM   10  C   UNL     1      41.163 -13.331   1.725  1.00  0.00     0.155 C 
HETATM   11  N   UNL     1      41.452 -12.963   2.950  1.00  0.00    -0.162 NA
HETATM   12  C   UNL     1      41.658 -16.210   4.505  1.00  0.00     0.036 C 
HETATM   13  C   UNL     1      42.398 -15.672   5.704  1.00  0.00     0.044 C 
HETATM   14  N   UNL     1      42.355 -14.430   6.031  1.00  0.00    -0.361 N 
HETATM   15  H   UNL     1      42.897 -14.099   6.827  1.00  0.00     0.162 HD
HETATM   16  C   UNL     1      41.621 -17.649   4.321  1.00  0.00     0.017 C 
HETATM   17  C   UNL     1      42.302 -18.462   5.139  1.00  0.00     0.001 C 
HETATM   18  C   UNL     1      43.119 -17.949   6.213  1.00  0.00     0.002 C 
HETATM   19  C   UNL     1      43.192 -16.643   6.506  1.00  0.00     0.030 C 
HETATM   20  C   UNL     1      40.096 -13.574   6.107  1.00  0.00     0.056 C 
HETATM   21  C   UNL     1      39.152 -12.424   5.808  1.00  0.00     0.009 C 
HETATM   22  H   UNL     1      40.389 -16.555   2.199  1.00  0.00     0.170 HD
ENDROOT
BRANCH   1  23
HETATM   23  C   UNL     1      39.775 -10.654   7.698  1.00  0.00    -0.048 C 
HETATM   24  C   UNL     1      41.256 -10.496   8.126  1.00  0.00     0.015 C 
HETATM   25  C   UNL     1      39.147 -11.688   8.649  1.00  0.00     0.015 C 
HETATM   26  C   UNL     1      39.087  -9.298   7.963  1.00  0.00     0.015 C 
ENDBRANCH   1  23
BRANCH  10  27
HETATM   27  C   UNL     1      41.607 -12.489   0.573  1.00  0.00     0.000 A 
HETATM   28  C   UNL     1      41.758 -11.108   0.741  1.00  0.00     0.017 A 
HETATM   29  C   UNL     1      42.306 -10.331  -0.286  1.00  0.00     0.037 A 
HETATM   30  C   UNL     1      42.723 -10.917  -1.484  1.00  0.00     0.068 A 
HETATM   31  C   UNL     1      42.559 -12.288  -1.661  1.00  0.00     0.037 A 
HETATM   32  C   UNL     1      42.010 -13.070  -0.637  1.00  0.00     0.017 A 
BRANCH  30  33
HETATM   33  O   UNL     1      43.274 -10.054  -2.388  1.00  0.00    -0.356 OA
HETATM   34  C   UNL     1      42.537  -9.815  -3.582  1.00  0.00     0.210 C 
ENDBRANCH  30  33
ENDBRANCH  10  27
TORSDOF 3
ENDMDL
MODEL 10
REMARK VINA RESULT:      -7.7      3.574      7.285
REMARK  3 active torsions:
REMARK  status: ('A' for Active; 'I' for Inactive)
REMARK    1  A    between atoms: C_2  and  C_3 
REMARK    2  A    between atoms: C_12  and  C_13 
REMARK    3  A    between atoms: C_16  and  O_17 
ROOT
HETATM    1  C   UNL     1      41.967 -16.530   3.483  1.00  0.00    -0.007 C 
HETATM    2  C   UNL     1      42.785 -15.367   4.089  1.00  0.00     0.009 C 
HETATM    3  C   UNL     1      43.097 -14.201   3.130  1.00  0.00     0.056 C 
HETATM    4  C   UNL     1      41.910 -13.730   2.263  1.00  0.00     0.129 C 
HETATM    5  N   UNL     1      41.003 -12.765   2.941  1.00  0.00    -0.223 N 
HETATM    6  C   UNL     1      40.199 -11.904   2.177  1.00  0.00     0.142 C 
HETATM    7  N   UNL     1      39.126 -11.329   2.801  1.00  0.00    -0.305 N 
HETATM    8  C   UNL     1      38.990 -11.383   4.163  1.00  0.00     0.278 C 
HETATM    9  O   UNL     1      37.971 -11.042   4.739  1.00  0.00    -0.265 OA
HETATM   10  C   UNL     1      40.249 -11.847   4.906  1.00  0.00     0.155 C 
HETATM   11  N   UNL     1      41.147 -12.586   4.299  1.00  0.00    -0.162 NA
HETATM   12  C   UNL     1      40.493 -11.619   0.888  1.00  0.00     0.036 C 
HETATM   13  C   UNL     1      41.813 -12.160   0.401  1.00  0.00     0.044 C 
HETATM   14  N   UNL     1      42.471 -13.046   1.060  1.00  0.00    -0.361 N 
HETATM   15  H   UNL     1      43.377 -13.361   0.716  1.00  0.00     0.162 HD
HETATM   16  C   UNL     1      39.742 -10.758  -0.008  1.00  0.00     0.017 C 
HETATM   17  C   UNL     1      40.254 -10.383  -1.188  1.00  0.00     0.001 C 
HETATM   18  C   UNL     1      41.574 -10.791  -1.607  1.00  0.00     0.002 C 
HETATM   19  C   UNL     1      42.338 -11.622  -0.884  1.00  0.00     0.030 C 
HETATM   20  C   UNL     1      41.093 -14.923   1.708  1.00  0.00     0.056 C 
HETATM   21  C   UNL     1      40.736 -15.941   2.775  1.00  0.00     0.009 C 
HETATM   22  H   UNL     1      38.383 -10.856   2.307  1.00  0.00     0.170 HD
ENDROOT
BRANCH   1  23
HETATM   23  C   UNL     1      42.801 -17.621   2.688  1.00  0.00    -0.048 C 
HETATM   24  C   UNL     1      43.412 -18.606   3.716  1.00  0.00     0.015 C 
HETATM   25  C   UNL     1      43.971 -17.066   1.857  1.00  0.00     0.015 C 
HETATM   26  C   UNL     1      41.913 -18.457   1.743  1.00  0.00     0.015 C 
ENDBRANCH   1  23
BRANCH  10  27
HETATM   27  C   UNL     1      40.506 -11.360   6.295  1.00  0.00     0.000 A 
HETATM   28  C   UNL     1      41.514 -10.418   6.524  1.00  0.00     0.017 A 
HETATM   29  C   UNL     1      41.671  -9.851   7.794  1.00  0.00     0.037 A 
HETATM   30  C   UNL     1      40.821 -10.201   8.846  1.00  0.00     0.068 A 
HETATM   31  C   UNL     1      39.827 -11.152   8.626  1.00  0.00     0.037 A 
HETATM   32  C   UNL     1      39.666 -11.723   7.357  1.00  0.00     0.017 A 
BRANCH  30  33
HETATM   33  O   UNL     1      41.056  -9.549  10.023  1.00  0.00    -0.356 OA
HETATM   34  C   UNL     1      42.021 -10.125  10.897  1.00  0.00     0.210 C 
ENDBRANCH  30  33
ENDBRANCH  10  27
TORSDOF 3
ENDMDL
