MODEL 1
REMARK VINA RESULT:      -9.7      0.000      0.000
REMARK  7 active torsions:
REMARK  status: ('A' for Active; 'I' for Inactive)
REMARK    1  A    between atoms: C_7  and  C_8 
REMARK    2  A    between atoms: C_8  and  C_9 
REMARK       I    between atoms: C_9  and  N_10 
REMARK    3  A    between atoms: N_10  and  N_11 
REMARK       I    between atoms: N_11  and  C_12 
REMARK    4  A    between atoms: C_12  and  C_13 
REMARK    5  A    between atoms: C_23  and  O_24 
REMARK    6  A    between atoms: O_24  and  C_25 
REMARK    7  A    between atoms: C_25  and  C_26 
ROOT
HETATM    1  C   UNL     1      41.877 -11.986   4.769  1.00  0.00     0.068 C 
HETATM    2  C   UNL     1      42.090 -13.444   4.966  1.00  0.00     0.013 A 
HETATM    3  N   UNL     1      41.165 -14.367   4.549  1.00  0.00    -0.359 N 
HETATM    4  H   UNL     1      40.292 -14.150   4.088  1.00  0.00     0.166 HD
HETATM    5  C   UNL     1      41.589 -15.642   4.840  1.00  0.00     0.043 A 
HETATM    6  C   UNL     1      42.827 -15.530   5.468  1.00  0.00     0.002 A 
HETATM    7  C   UNL     1      43.138 -14.133   5.557  1.00  0.00    -0.015 A 
HETATM    8  C   UNL     1      40.974 -16.873   4.597  1.00  0.00     0.033 A 
HETATM    9  C   UNL     1      41.649 -18.034   5.000  1.00  0.00     0.039 A 
HETATM   10  C   UNL     1      42.895 -17.962   5.622  1.00  0.00     0.070 A 
HETATM   11  C   UNL     1      43.483 -16.714   5.865  1.00  0.00     0.051 A 
ENDROOT
BRANCH   7  12
HETATM   12  C   UNL     1      44.367 -13.536   6.174  1.00  0.00     0.146 C 
BRANCH  12  13
HETATM   13  C   UNL     1      44.255 -13.253   7.664  1.00  0.00     0.240 C 
HETATM   14  N   UNL     1      43.546 -12.124   8.019  1.00  0.00    -0.267 N 
HETATM   15  H   UNL     1      43.308 -11.388   7.354  1.00  0.00     0.190 HD
HETATM   16  O   UNL     1      44.703 -14.039   8.504  1.00  0.00    -0.272 OA
BRANCH  14  17
HETATM   17  N   UNL     1      43.457 -11.796   9.372  1.00  0.00    -0.262 N 
HETATM   18  C   UNL     1      42.604 -10.792   9.781  1.00  0.00     0.288 C 
HETATM   19  O   UNL     1      41.939 -10.106   9.010  1.00  0.00    -0.264 OA
HETATM   20  H   UNL     1      43.993 -12.344  10.046  1.00  0.00     0.190 HD
BRANCH  18  21
HETATM   21  C   UNL     1      42.547 -10.609  11.264  1.00  0.00     0.125 A 
HETATM   22  N   UNL     1      41.487 -11.177  11.905  1.00  0.00    -0.255 NA
HETATM   23  C   UNL     1      41.427 -10.998  13.242  1.00  0.00     0.117 A 
HETATM   24  C   UNL     1      42.366 -10.282  13.968  1.00  0.00     0.019 A 
HETATM   25  C   UNL     1      43.439  -9.713  13.288  1.00  0.00     0.004 A 
HETATM   26  C   UNL     1      43.537  -9.877  11.909  1.00  0.00     0.037 A 
ENDBRANCH  18  21
ENDBRANCH  14  17
ENDBRANCH  12  13
ENDBRANCH   7  12
BRANCH  10  27
HETATM   27  O   UNL     1      43.646 -19.028   6.041  1.00  0.00    -0.347 OA
BRANCH  27  28
HETATM   28  C   UNL     1      44.843 -19.309   5.315  1.00  0.00     0.214 C 
BRANCH  28  29
HETATM   29  C   UNL     1      44.566 -20.217   4.136  1.00  0.00    -0.034 A 
HETATM   30  C   UNL     1      44.205 -19.715   2.877  1.00  0.00     0.009 A 
HETATM   31  C   UNL     1      43.984 -20.579   1.803  1.00  0.00     0.001 A 
HETATM   32  C   UNL     1      44.133 -21.955   1.968  1.00  0.00     0.000 A 
HETATM   33  C   UNL     1      44.507 -22.467   3.208  1.00  0.00     0.001 A 
HETATM   34  C   UNL     1      44.727 -21.605   4.284  1.00  0.00     0.009 A 
ENDBRANCH  28  29
ENDBRANCH  27  28
ENDBRANCH  10  27
TORSDOF 7
ENDMDL
MODEL 2
REMARK VINA RESULT:      -9.3      3.892      8.031
REMARK  7 active torsions:
REMARK  status: ('A' for Active; 'I' for Inactive)
REMARK    1  A    between atoms: C_7  and  C_8 
REMARK    2  A    between atoms: C_8  and  C_9 
REMARK       I    between atoms: C_9  and  N_10 
REMARK    3  A    between atoms: N_10  and  N_11 
REMARK       I    between atoms: N_11  and  C_12 
REMARK    4  A    between atoms: C_12  and  C_13 
REMARK    5  A    between atoms: C_23  and  O_24 
REMARK    6  A    between atoms: O_24  and  C_25 
REMARK    7  A    between atoms: C_25  and  C_26 
ROOT
HETATM    1  C   UNL     1      41.048 -11.795   5.962  1.00  0.00     0.068 C 
HETATM    2  C   UNL     1      41.688 -13.136   5.999  1.00  0.00     0.013 A 
HETATM    3  N   UNL     1      42.971 -13.308   6.454  1.00  0.00    -0.359 N 
HETATM    4  H   UNL     1      43.573 -12.570   6.792  1.00  0.00     0.166 HD
HETATM    5  C   UNL     1      43.333 -14.632   6.391  1.00  0.00     0.043 A 
HETATM    6  C   UNL     1      42.244 -15.332   5.876  1.00  0.00     0.002 A 
HETATM    7  C   UNL     1      41.205 -14.380   5.617  1.00  0.00    -0.015 A 
HETATM    8  C   UNL     1      44.532 -15.256   6.748  1.00  0.00     0.033 A 
HETATM    9  C   UNL     1      44.622 -16.645   6.583  1.00  0.00     0.039 A 
HETATM   10  C   UNL     1      43.550 -17.382   6.080  1.00  0.00     0.070 A 
HETATM   11  C   UNL     1      42.364 -16.729   5.718  1.00  0.00     0.051 A 
ENDROOT
BRANCH   7  12
HETATM   12  C   UNL     1      39.853 -14.676   5.041  1.00  0.00     0.146 C 
BRANCH  12  13
HETATM   13  C   UNL     1      39.707 -14.350   3.564  1.00  0.00     0.240 C 
HETATM   14  N   UNL     1      39.672 -15.426   2.701  1.00  0.00    -0.267 N 
HETATM   15  H   UNL     1      39.959 -16.366   2.977  1.00  0.00     0.190 HD
HETATM   16  O   UNL     1      39.545 -13.190   3.174  1.00  0.00    -0.272 OA
BRANCH  14  17
HETATM   17  N   UNL     1      39.588 -15.176   1.332  1.00  0.00    -0.262 N 
HETATM   18  C   UNL     1      40.739 -15.063   0.582  1.00  0.00     0.288 C 
HETATM   19  O   UNL     1      41.870 -15.112   1.056  1.00  0.00    -0.264 OA
HETATM   20  H   UNL     1      38.664 -15.129   0.898  1.00  0.00     0.190 HD
BRANCH  18  21
HETATM   21  C   UNL     1      40.496 -14.882  -0.883  1.00  0.00     0.125 A 
HETATM   22  N   UNL     1      39.649 -13.876  -1.237  1.00  0.00    -0.255 NA
HETATM   23  C   UNL     1      39.417 -13.723  -2.559  1.00  0.00     0.117 A 
HETATM   24  C   UNL     1      39.984 -14.522  -3.540  1.00  0.00     0.019 A 
HETATM   25  C   UNL     1      40.847 -15.542  -3.149  1.00  0.00     0.004 A 
HETATM   26  C   UNL     1      41.112 -15.730  -1.796  1.00  0.00     0.037 A 
ENDBRANCH  18  21
ENDBRANCH  14  17
ENDBRANCH  12  13
ENDBRANCH   7  12
BRANCH  10  27
HETATM   27  O   UNL     1      43.524 -18.738   5.893  1.00  0.00    -0.347 OA
BRANCH  27  28
HETATM   28  C   UNL     1      44.704 -19.347   5.368  1.00  0.00     0.214 C 
BRANCH  28  29
HETATM   29  C   UNL     1      44.397 -20.138   4.113  1.00  0.00    -0.034 A 
HETATM   30  C   UNL     1      43.849 -19.538   2.970  1.00  0.00     0.009 A 
HETATM   31  C   UNL     1      43.605 -20.289   1.819  1.00  0.00     0.001 A 
HETATM   32  C   UNL     1      43.917 -21.647   1.790  1.00  0.00     0.000 A 
HETATM   33  C   UNL     1      44.478 -22.254   2.912  1.00  0.00     0.001 A 
HETATM   34  C   UNL     1      44.721 -21.504   4.064  1.00  0.00     0.009 A 
ENDBRANCH  28  29
ENDBRANCH  27  28
ENDBRANCH  10  27
TORSDOF 7
ENDMDL
MODEL 3
REMARK VINA RESULT:      -9.2      4.805      8.871
REMARK  7 active torsions:
REMARK  status: ('A' for Active; 'I' for Inactive)
REMARK    1  A    between atoms: C_7  and  C_8 
REMARK    2  A    between atoms: C_8  and  C_9 
REMARK       I    between atoms: C_9  and  N_10 
REMARK    3  A    between atoms: N_10  and  N_11 
REMARK       I    between atoms: N_11  and  C_12 
REMARK    4  A    between atoms: C_12  and  C_13 
REMARK    5  A    between atoms: C_23  and  O_24 
REMARK    6  A    between atoms: O_24  and  C_25 
REMARK    7  A    between atoms: C_25  and  C_26 
ROOT
HETATM    1  C   UNL     1      39.444 -12.268   6.375  1.00  0.00     0.068 C 
HETATM    2  C   UNL     1      40.024 -13.506   5.789  1.00  0.00     0.013 A 
HETATM    3  N   UNL     1      40.142 -14.660   6.522  1.00  0.00    -0.359 N 
HETATM    4  H   UNL     1      39.856 -14.771   7.485  1.00  0.00     0.166 HD
HETATM    5  C   UNL     1      40.703 -15.659   5.763  1.00  0.00     0.043 A 
HETATM    6  C   UNL     1      40.955 -15.125   4.502  1.00  0.00     0.002 A 
HETATM    7  C   UNL     1      40.535 -13.755   4.524  1.00  0.00    -0.015 A 
HETATM    8  C   UNL     1      41.003 -16.983   6.097  1.00  0.00     0.033 A 
HETATM    9  C   UNL     1      41.573 -17.795   5.107  1.00  0.00     0.039 A 
HETATM   10  C   UNL     1      41.832 -17.299   3.830  1.00  0.00     0.070 A 
HETATM   11  C   UNL     1      41.532 -15.964   3.526  1.00  0.00     0.051 A 
ENDROOT
BRANCH   7  12
HETATM   12  C   UNL     1      40.630 -12.779   3.390  1.00  0.00     0.146 C 
BRANCH  12  13
HETATM   13  C   UNL     1      39.804 -13.145   2.167  1.00  0.00     0.240 C 
HETATM   14  N   UNL     1      40.475 -13.786   1.146  1.00  0.00    -0.267 N 
HETATM   15  H   UNL     1      41.493 -13.812   1.084  1.00  0.00     0.190 HD
HETATM   16  O   UNL     1      38.585 -12.953   2.134  1.00  0.00    -0.272 OA
BRANCH  14  17
HETATM   17  N   UNL     1      39.770 -14.099  -0.016  1.00  0.00    -0.262 N 
HETATM   18  C   UNL     1      40.448 -14.279  -1.203  1.00  0.00     0.288 C 
HETATM   19  O   UNL     1      41.659 -14.122  -1.328  1.00  0.00    -0.264 OA
HETATM   20  H   UNL     1      38.760 -14.238   0.045  1.00  0.00     0.190 HD
BRANCH  18  21
HETATM   21  C   UNL     1      39.575 -14.695  -2.345  1.00  0.00     0.125 A 
HETATM   22  N   UNL     1      38.387 -14.041  -2.470  1.00  0.00    -0.255 NA
HETATM   23  C   UNL     1      37.593 -14.427  -3.491  1.00  0.00     0.117 A 
HETATM   24  C   UNL     1      37.923 -15.431  -4.389  1.00  0.00     0.019 A 
HETATM   25  C   UNL     1      39.144 -16.082  -4.238  1.00  0.00     0.004 A 
HETATM   26  C   UNL     1      39.991 -15.711  -3.198  1.00  0.00     0.037 A 
ENDBRANCH  18  21
ENDBRANCH  14  17
ENDBRANCH  12  13
ENDBRANCH   7  12
BRANCH  10  27
HETATM   27  O   UNL     1      42.370 -18.005   2.787  1.00  0.00    -0.347 OA
BRANCH  27  28
HETATM   28  C   UNL     1      43.779 -18.234   2.811  1.00  0.00     0.214 C 
BRANCH  28  29
HETATM   29  C   UNL     1      44.090 -19.703   3.002  1.00  0.00    -0.034 A 
HETATM   30  C   UNL     1      44.574 -20.210   4.217  1.00  0.00     0.009 A 
HETATM   31  C   UNL     1      44.823 -21.576   4.370  1.00  0.00     0.001 A 
HETATM   32  C   UNL     1      44.580 -22.454   3.315  1.00  0.00     0.000 A 
HETATM   33  C   UNL     1      44.085 -21.967   2.108  1.00  0.00     0.001 A 
HETATM   34  C   UNL     1      43.836 -20.602   1.953  1.00  0.00     0.009 A 
ENDBRANCH  28  29
ENDBRANCH  27  28
ENDBRANCH  10  27
TORSDOF 7
ENDMDL
MODEL 4
REMARK VINA RESULT:      -9.2      4.671      8.656
REMARK  7 active torsions:
REMARK  status: ('A' for Active; 'I' for Inactive)
REMARK    1  A    between atoms: C_7  and  C_8 
REMARK    2  A    between atoms: C_8  and  C_9 
REMARK       I    between atoms: C_9  and  N_10 
REMARK    3  A    between atoms: N_10  and  N_11 
REMARK       I    between atoms: N_11  and  C_12 
REMARK    4  A    between atoms: C_12  and  C_13 
REMARK    5  A    between atoms: C_23  and  O_24 
REMARK    6  A    between atoms: O_24  and  C_25 
REMARK    7  A    between atoms: C_25  and  C_26 
ROOT
HETATM    1  C   UNL     1      38.630 -13.846  -0.364  1.00  0.00     0.068 C 
HETATM    2  C   UNL     1      39.635 -13.711   0.724  1.00  0.00     0.013 A 
HETATM    3  N   UNL     1      39.414 -12.901   1.809  1.00  0.00    -0.359 N 
HETATM    4  H   UNL     1      38.581 -12.348   1.963  1.00  0.00     0.166 HD
HETATM    5  C   UNL     1      40.483 -12.946   2.671  1.00  0.00     0.043 A 
HETATM    6  C   UNL     1      41.423 -13.812   2.117  1.00  0.00     0.002 A 
HETATM    7  C   UNL     1      40.888 -14.287   0.875  1.00  0.00    -0.015 A 
HETATM    8  C   UNL     1      40.686 -12.290   3.889  1.00  0.00     0.033 A 
HETATM    9  C   UNL     1      41.886 -12.531   4.571  1.00  0.00     0.039 A 
HETATM   10  C   UNL     1      42.846 -13.399   4.053  1.00  0.00     0.070 A 
HETATM   11  C   UNL     1      42.622 -14.034   2.824  1.00  0.00     0.051 A 
ENDROOT
BRANCH   7  12
HETATM   12  C   UNL     1      41.560 -15.230  -0.077  1.00  0.00     0.146 C 
BRANCH  12  13
HETATM   13  C   UNL     1      41.879 -16.598   0.505  1.00  0.00     0.240 C 
HETATM   14  N   UNL     1      43.217 -16.904   0.647  1.00  0.00    -0.267 N 
HETATM   15  H   UNL     1      43.957 -16.374   0.187  1.00  0.00     0.190 HD
HETATM   16  O   UNL     1      40.986 -17.351   0.904  1.00  0.00    -0.272 OA
BRANCH  14  17
HETATM   17  N   UNL     1      43.560 -18.165   1.132  1.00  0.00    -0.262 N 
HETATM   18  C   UNL     1      43.880 -18.327   2.463  1.00  0.00     0.288 C 
HETATM   19  O   UNL     1      43.941 -17.402   3.267  1.00  0.00    -0.264 OA
HETATM   20  H   UNL     1      43.521 -18.963   0.494  1.00  0.00     0.190 HD
BRANCH  18  21
HETATM   21  C   UNL     1      44.142 -19.746   2.858  1.00  0.00     0.125 A 
HETATM   22  N   UNL     1      43.853 -20.698   1.928  1.00  0.00    -0.255 NA
HETATM   23  C   UNL     1      44.075 -21.979   2.290  1.00  0.00     0.117 A 
HETATM   24  C   UNL     1      44.565 -22.357   3.531  1.00  0.00     0.019 A 
HETATM   25  C   UNL     1      44.852 -21.363   4.462  1.00  0.00     0.004 A 
HETATM   26  C   UNL     1      44.639 -20.030   4.125  1.00  0.00     0.037 A 
ENDBRANCH  18  21
ENDBRANCH  14  17
ENDBRANCH  12  13
ENDBRANCH   7  12
BRANCH  10  27
HETATM   27  O   UNL     1      44.042 -13.718   4.641  1.00  0.00    -0.347 OA
BRANCH  27  28
HETATM   28  C   UNL     1      44.035 -13.953   6.049  1.00  0.00     0.214 C 
BRANCH  28  29
HETATM   29  C   UNL     1      43.676 -15.390   6.361  1.00  0.00    -0.034 A 
HETATM   30  C   UNL     1      42.353 -15.852   6.324  1.00  0.00     0.009 A 
HETATM   31  C   UNL     1      42.058 -17.191   6.588  1.00  0.00     0.001 A 
HETATM   32  C   UNL     1      43.083 -18.089   6.881  1.00  0.00     0.000 A 
HETATM   33  C   UNL     1      44.405 -17.648   6.905  1.00  0.00     0.001 A 
HETATM   34  C   UNL     1      44.700 -16.309   6.643  1.00  0.00     0.009 A 
ENDBRANCH  28  29
ENDBRANCH  27  28
ENDBRANCH  10  27
TORSDOF 7
ENDMDL
MODEL 5
REMARK VINA RESULT:      -9.2      5.007      9.435
REMARK  7 active torsions:
REMARK  status: ('A' for Active; 'I' for Inactive)
REMARK    1  A    between atoms: C_7  and  C_8 
REMARK    2  A    between atoms: C_8  and  C_9 
REMARK       I    between atoms: C_9  and  N_10 
REMARK    3  A    between atoms: N_10  and  N_11 
REMARK       I    between atoms: N_11  and  C_12 
REMARK    4  A    between atoms: C_12  and  C_13 
REMARK    5  A    between atoms: C_23  and  O_24 
REMARK    6  A    between atoms: O_24  and  C_25 
REMARK    7  A    between atoms: C_25  and  C_26 
ROOT
HETATM    1  C   UNL     1      44.530 -21.293   2.203  1.00  0.00     0.068 C 
HETATM    2  C   UNL     1      44.343 -20.175   3.165  1.00  0.00     0.013 A 
HETATM    3  N   UNL     1      45.096 -20.076   4.308  1.00  0.00    -0.359 N 
HETATM    4  H   UNL     1      45.818 -20.726   4.587  1.00  0.00     0.166 HD
HETATM    5  C   UNL     1      44.738 -18.962   5.028  1.00  0.00     0.043 A 
HETATM    6  C   UNL     1      43.719 -18.326   4.323  1.00  0.00     0.002 A 
HETATM    7  C   UNL     1      43.461 -19.103   3.147  1.00  0.00    -0.015 A 
HETATM    8  C   UNL     1      45.236 -18.475   6.240  1.00  0.00     0.033 A 
HETATM    9  C   UNL     1      44.682 -17.291   6.747  1.00  0.00     0.039 A 
HETATM   10  C   UNL     1      43.668 -16.621   6.066  1.00  0.00     0.070 A 
HETATM   11  C   UNL     1      43.178 -17.139   4.859  1.00  0.00     0.051 A 
ENDROOT
BRANCH   7  12
HETATM   12  C   UNL     1      42.431 -18.810   2.097  1.00  0.00     0.146 C 
BRANCH  12  13
HETATM   13  C   UNL     1      42.793 -17.673   1.155  1.00  0.00     0.240 C 
HETATM   14  N   UNL     1      41.740 -16.934   0.656  1.00  0.00    -0.267 N 
HETATM   15  H   UNL     1      40.771 -17.250   0.706  1.00  0.00     0.190 HD
HETATM   16  O   UNL     1      43.970 -17.380   0.922  1.00  0.00    -0.272 OA
BRANCH  14  17
HETATM   17  N   UNL     1      42.018 -15.912  -0.250  1.00  0.00    -0.262 N 
HETATM   18  C   UNL     1      41.154 -14.844  -0.367  1.00  0.00     0.288 C 
HETATM   19  O   UNL     1      40.095 -14.752   0.246  1.00  0.00    -0.264 OA
HETATM   20  H   UNL     1      42.891 -15.949  -0.779  1.00  0.00     0.190 HD
BRANCH  18  21
HETATM   21  C   UNL     1      41.623 -13.782  -1.311  1.00  0.00     0.125 A 
HETATM   22  N   UNL     1      41.491 -14.052  -2.640  1.00  0.00    -0.255 NA
HETATM   23  C   UNL     1      41.929 -13.101  -3.493  1.00  0.00     0.117 A 
HETATM   24  C   UNL     1      42.491 -11.900  -3.087  1.00  0.00     0.019 A 
HETATM   25  C   UNL     1      42.612 -11.650  -1.723  1.00  0.00     0.004 A 
HETATM   26  C   UNL     1      42.170 -12.606  -0.813  1.00  0.00     0.037 A 
ENDBRANCH  18  21
ENDBRANCH  14  17
ENDBRANCH  12  13
ENDBRANCH   7  12
BRANCH  10  27
HETATM   27  O   UNL     1      43.068 -15.455   6.461  1.00  0.00    -0.347 OA
BRANCH  27  28
HETATM   28  C   UNL     1      43.701 -14.233   6.080  1.00  0.00     0.214 C 
BRANCH  28  29
HETATM   29  C   UNL     1      42.948 -13.557   4.953  1.00  0.00    -0.034 A 
HETATM   30  C   UNL     1      43.275 -13.769   3.606  1.00  0.00     0.009 A 
HETATM   31  C   UNL     1      42.542 -13.153   2.590  1.00  0.00     0.001 A 
HETATM   32  C   UNL     1      41.465 -12.328   2.905  1.00  0.00     0.000 A 
HETATM   33  C   UNL     1      41.117 -12.121   4.238  1.00  0.00     0.001 A 
HETATM   34  C   UNL     1      41.850 -12.734   5.256  1.00  0.00     0.009 A 
ENDBRANCH  28  29
ENDBRANCH  27  28
ENDBRANCH  10  27
TORSDOF 7
ENDMDL
MODEL 6
REMARK VINA RESULT:      -9.0      1.937      3.171
REMARK  7 active torsions:
REMARK  status: ('A' for Active; 'I' for Inactive)
REMARK    1  A    between atoms: C_7  and  C_8 
REMARK    2  A    between atoms: C_8  and  C_9 
REMARK       I    between atoms: C_9  and  N_10 
REMARK    3  A    between atoms: N_10  and  N_11 
REMARK       I    between atoms: N_11  and  C_12 
REMARK    4  A    between atoms: C_12  and  C_13 
REMARK    5  A    between atoms: C_23  and  O_24 
REMARK    6  A    between atoms: O_24  and  C_25 
REMARK    7  A    between atoms: C_25  and  C_26 
ROOT
HETATM    1  C   UNL     1      40.187  -9.670   4.337  1.00  0.00     0.068 C 
HETATM    2  C   UNL     1      40.764 -11.032   4.480  1.00  0.00     0.013 A 
HETATM    3  N   UNL     1      41.827 -11.445   3.717  1.00  0.00    -0.359 N 
HETATM    4  H   UNL     1      42.296 -10.884   3.018  1.00  0.00     0.166 HD
HETATM    5  C   UNL     1      42.177 -12.736   4.033  1.00  0.00     0.043 A 
HETATM    6  C   UNL     1      41.306 -13.165   5.032  1.00  0.00     0.002 A 
HETATM    7  C   UNL     1      40.403 -12.086   5.306  1.00  0.00    -0.015 A 
HETATM    8  C   UNL     1      43.190 -13.547   3.514  1.00  0.00     0.033 A 
HETATM    9  C   UNL     1      43.327 -14.840   4.038  1.00  0.00     0.039 A 
HETATM   10  C   UNL     1      42.480 -15.302   5.046  1.00  0.00     0.070 A 
HETATM   11  C   UNL     1      41.465 -14.471   5.539  1.00  0.00     0.051 A 
ENDROOT
BRANCH   7  12
HETATM   12  C   UNL     1      39.280 -12.100   6.300  1.00  0.00     0.146 C 
BRANCH  12  13
HETATM   13  C   UNL     1      39.575 -11.367   7.599  1.00  0.00     0.240 C 
HETATM   14  N   UNL     1      40.830 -11.560   8.138  1.00  0.00    -0.267 N 
HETATM   15  H   UNL     1      41.449 -12.315   7.842  1.00  0.00     0.190 HD
HETATM   16  O   UNL     1      38.762 -10.579   8.091  1.00  0.00    -0.272 OA
BRANCH  14  17
HETATM   17  N   UNL     1      41.130 -10.947   9.354  1.00  0.00    -0.262 N 
HETATM   18  C   UNL     1      42.414 -10.512   9.606  1.00  0.00     0.288 C 
HETATM   19  O   UNL     1      43.355 -10.681   8.837  1.00  0.00    -0.264 OA
HETATM   20  H   UNL     1      40.374 -10.786  10.023  1.00  0.00     0.190 HD
BRANCH  18  21
HETATM   21  C   UNL     1      42.569  -9.797  10.911  1.00  0.00     0.125 A 
HETATM   22  N   UNL     1      41.933  -8.597  11.025  1.00  0.00    -0.255 NA
HETATM   23  C   UNL     1      42.087  -7.945  12.197  1.00  0.00     0.117 A 
HETATM   24  C   UNL     1      42.842  -8.426  13.255  1.00  0.00     0.019 A 
HETATM   25  C   UNL     1      43.480  -9.655  13.112  1.00  0.00     0.004 A 
HETATM   26  C   UNL     1      43.344 -10.358  11.919  1.00  0.00     0.037 A 
ENDBRANCH  18  21
ENDBRANCH  14  17
ENDBRANCH  12  13
ENDBRANCH   7  12
BRANCH  10  27
HETATM   27  O   UNL     1      42.534 -16.536   5.638  1.00  0.00    -0.347 OA
BRANCH  27  28
HETATM   28  C   UNL     1      41.859 -17.607   4.977  1.00  0.00     0.214 C 
BRANCH  28  29
HETATM   29  C   UNL     1      42.833 -18.469   4.202  1.00  0.00    -0.034 A 
HETATM   30  C   UNL     1      43.787 -19.275   4.840  1.00  0.00     0.009 A 
HETATM   31  C   UNL     1      44.651 -20.081   4.097  1.00  0.00     0.001 A 
HETATM   32  C   UNL     1      44.565 -20.102   2.706  1.00  0.00     0.000 A 
HETATM   33  C   UNL     1      43.612 -19.320   2.058  1.00  0.00     0.001 A 
HETATM   34  C   UNL     1      42.748 -18.512   2.800  1.00  0.00     0.009 A 
ENDBRANCH  28  29
ENDBRANCH  27  28
ENDBRANCH  10  27
TORSDOF 7
ENDMDL
MODEL 7
REMARK VINA RESULT:      -8.9      1.462      2.093
REMARK  7 active torsions:
REMARK  status: ('A' for Active; 'I' for Inactive)
REMARK    1  A    between atoms: C_7  and  C_8 
REMARK    2  A    between atoms: C_8  and  C_9 
REMARK       I    between atoms: C_9  and  N_10 
REMARK    3  A    between atoms: N_10  and  N_11 
REMARK       I    between atoms: N_11  and  C_12 
REMARK    4  A    between atoms: C_12  and  C_13 
REMARK    5  A    between atoms: C_23  and  O_24 
REMARK    6  A    between atoms: O_24  and  C_25 
REMARK    7  A    between atoms: C_25  and  C_26 
ROOT
HETATM    1  C   UNL     1      39.110 -12.699   6.078  1.00  0.00     0.068 C 
HETATM    2  C   UNL     1      40.064 -13.816   5.847  1.00  0.00     0.013 A 
HETATM    3  N   UNL     1      39.656 -15.126   5.872  1.00  0.00    -0.359 N 
HETATM    4  H   UNL     1      38.709 -15.438   6.040  1.00  0.00     0.166 HD
HETATM    5  C   UNL     1      40.716 -15.967   5.630  1.00  0.00     0.043 A 
HETATM    6  C   UNL     1      41.842 -15.167   5.447  1.00  0.00     0.002 A 
HETATM    7  C   UNL     1      41.429 -13.803   5.597  1.00  0.00    -0.015 A 
HETATM    8  C   UNL     1      40.761 -17.362   5.560  1.00  0.00     0.033 A 
HETATM    9  C   UNL     1      41.996 -17.965   5.286  1.00  0.00     0.039 A 
HETATM   10  C   UNL     1      43.143 -17.198   5.088  1.00  0.00     0.070 A 
HETATM   11  C   UNL     1      43.072 -15.801   5.175  1.00  0.00     0.051 A 
ENDROOT
BRANCH   7  12
HETATM   12  C   UNL     1      42.309 -12.594   5.501  1.00  0.00     0.146 C 
BRANCH  12  13
HETATM   13  C   UNL     1      42.149 -11.600   6.640  1.00  0.00     0.240 C 
HETATM   14  N   UNL     1      42.695 -11.968   7.852  1.00  0.00    -0.267 N 
HETATM   15  H   UNL     1      42.980 -12.924   8.063  1.00  0.00     0.190 HD
HETATM   16  O   UNL     1      41.632 -10.493   6.460  1.00  0.00    -0.272 OA
BRANCH  14  17
HETATM   17  N   UNL     1      42.531 -11.111   8.940  1.00  0.00    -0.262 N 
HETATM   18  C   UNL     1      43.275 -11.303  10.085  1.00  0.00     0.288 C 
HETATM   19  O   UNL     1      44.054 -12.238  10.243  1.00  0.00    -0.264 OA
HETATM   20  H   UNL     1      41.892 -10.318   8.849  1.00  0.00     0.190 HD
BRANCH  18  21
HETATM   21  C   UNL     1      43.059 -10.259  11.134  1.00  0.00     0.125 A 
HETATM   22  N   UNL     1      43.661 -10.475  12.337  1.00  0.00    -0.255 NA
HETATM   23  C   UNL     1      43.453  -9.540  13.289  1.00  0.00     0.117 A 
HETATM   24  C   UNL     1      42.676  -8.407  13.103  1.00  0.00     0.019 A 
HETATM   25  C   UNL     1      42.073  -8.212  11.863  1.00  0.00     0.004 A 
HETATM   26  C   UNL     1      42.266  -9.152  10.855  1.00  0.00     0.037 A 
ENDBRANCH  18  21
ENDBRANCH  14  17
ENDBRANCH  12  13
ENDBRANCH   7  12
BRANCH  10  27
HETATM   27  O   UNL     1      44.393 -17.680   4.800  1.00  0.00    -0.347 OA
BRANCH  27  28
HETATM   28  C   UNL     1      44.698 -19.005   5.236  1.00  0.00     0.214 C 
BRANCH  28  29
HETATM   29  C   UNL     1      44.505 -20.005   4.115  1.00  0.00    -0.034 A 
HETATM   30  C   UNL     1      44.781 -21.370   4.279  1.00  0.00     0.009 A 
HETATM   31  C   UNL     1      44.565 -22.271   3.234  1.00  0.00     0.001 A 
HETATM   32  C   UNL     1      44.057 -21.822   2.016  1.00  0.00     0.000 A 
HETATM   33  C   UNL     1      43.762 -20.471   1.844  1.00  0.00     0.001 A 
HETATM   34  C   UNL     1      43.980 -19.570   2.887  1.00  0.00     0.009 A 
ENDBRANCH  28  29
ENDBRANCH  27  28
ENDBRANCH  10  27
TORSDOF 7
ENDMDL
MODEL 8
REMARK VINA RESULT:      -8.7      4.756      8.905
REMARK  7 active torsions:
REMARK  status: ('A' for Active; 'I' for Inactive)
REMARK    1  A    between atoms: C_7  and  C_8 
REMARK    2  A    between atoms: C_8  and  C_9 
REMARK       I    between atoms: C_9  and  N_10 
REMARK    3  A    between atoms: N_10  and  N_11 
REMARK       I    between atoms: N_11  and  C_12 
REMARK    4  A    between atoms: C_12  and  C_13 
REMARK    5  A    between atoms: C_23  and  O_24 
REMARK    6  A    between atoms: O_24  and  C_25 
REMARK    7  A    between atoms: C_25  and  C_26 
ROOT
HETATM    1  C   UNL     1      44.403 -21.689   1.717  1.00  0.00     0.068 C 
HETATM    2  C   UNL     1      44.292 -20.617   2.741  1.00  0.00     0.013 A 
HETATM    3  N   UNL     1      44.476 -20.878   4.076  1.00  0.00    -0.359 N 
HETATM    4  H   UNL     1      44.696 -21.783   4.468  1.00  0.00     0.166 HD
HETATM    5  C   UNL     1      44.324 -19.731   4.817  1.00  0.00     0.043 A 
HETATM    6  C   UNL     1      44.030 -18.701   3.926  1.00  0.00     0.002 A 
HETATM    7  C   UNL     1      43.998 -19.268   2.611  1.00  0.00    -0.015 A 
HETATM    8  C   UNL     1      44.423 -19.531   6.197  1.00  0.00     0.033 A 
HETATM    9  C   UNL     1      44.225 -18.232   6.687  1.00  0.00     0.039 A 
HETATM   10  C   UNL     1      43.939 -17.174   5.826  1.00  0.00     0.070 A 
HETATM   11  C   UNL     1      43.832 -17.405   4.447  1.00  0.00     0.051 A 
ENDROOT
BRANCH   7  12
HETATM   12  C   UNL     1      43.704 -18.536   1.336  1.00  0.00     0.146 C 
BRANCH  12  13
HETATM   13  C   UNL     1      42.488 -17.625   1.394  1.00  0.00     0.240 C 
HETATM   14  N   UNL     1      42.691 -16.311   1.027  1.00  0.00    -0.267 N 
HETATM   15  H   UNL     1      43.619 -15.896   0.947  1.00  0.00     0.190 HD
HETATM   16  O   UNL     1      41.368 -18.064   1.674  1.00  0.00    -0.272 OA
BRANCH  14  17
HETATM   17  N   UNL     1      41.616 -15.426   1.110  1.00  0.00    -0.262 N 
HETATM   18  C   UNL     1      40.909 -15.093  -0.025  1.00  0.00     0.288 C 
HETATM   19  O   UNL     1      41.202 -15.488  -1.151  1.00  0.00    -0.264 OA
HETATM   20  H   UNL     1      41.340 -15.075   2.030  1.00  0.00     0.190 HD
BRANCH  18  21
HETATM   21  C   UNL     1      39.732 -14.205   0.228  1.00  0.00     0.125 A 
HETATM   22  N   UNL     1      38.915 -13.964  -0.835  1.00  0.00    -0.255 NA
HETATM   23  C   UNL     1      37.862 -13.150  -0.611  1.00  0.00     0.117 A 
HETATM   24  C   UNL     1      37.586 -12.564   0.615  1.00  0.00     0.019 A 
HETATM   25  C   UNL     1      38.438 -12.829   1.684  1.00  0.00     0.004 A 
HETATM   26  C   UNL     1      39.534 -13.665   1.493  1.00  0.00     0.037 A 
ENDBRANCH  18  21
ENDBRANCH  14  17
ENDBRANCH  12  13
ENDBRANCH   7  12
BRANCH  10  27
HETATM   27  O   UNL     1      43.742 -15.869   6.193  1.00  0.00    -0.347 OA
BRANCH  27  28
HETATM   28  C   UNL     1      43.503 -14.925   5.148  1.00  0.00     0.214 C 
BRANCH  28  29
HETATM   29  C   UNL     1      42.170 -14.232   5.334  1.00  0.00    -0.034 A 
HETATM   30  C   UNL     1      42.078 -12.882   5.702  1.00  0.00     0.009 A 
HETATM   31  C   UNL     1      40.833 -12.264   5.837  1.00  0.00     0.001 A 
HETATM   32  C   UNL     1      39.664 -12.984   5.594  1.00  0.00     0.000 A 
HETATM   33  C   UNL     1      39.740 -14.321   5.212  1.00  0.00     0.001 A 
HETATM   34  C   UNL     1      40.984 -14.940   5.079  1.00  0.00     0.009 A 
ENDBRANCH  28  29
ENDBRANCH  27  28
ENDBRANCH  10  27
TORSDOF 7
ENDMDL
MODEL 9
REMARK VINA RESULT:      -8.5      2.193      2.957
REMARK  7 active torsions:
REMARK  status: ('A' for Active; 'I' for Inactive)
REMARK    1  A    between atoms: C_7  and  C_8 
REMARK    2  A    between atoms: C_8  and  C_9 
REMARK       I    between atoms: C_9  and  N_10 
REMARK    3  A    between atoms: N_10  and  N_11 
REMARK       I    between atoms: N_11  and  C_12 
REMARK    4  A    between atoms: C_12  and  C_13 
REMARK    5  A    between atoms: C_23  and  O_24 
REMARK    6  A    between atoms: O_24  and  C_25 
REMARK    7  A    between atoms: C_25  and  C_26 
ROOT
HETATM    1  C   UNL     1      38.815 -12.153   2.452  1.00  0.00     0.068 C 
HETATM    2  C   UNL     1      39.698 -13.349   2.492  1.00  0.00     0.013 A 
HETATM    3  N   UNL     1      39.283 -14.564   2.009  1.00  0.00    -0.359 N 
HETATM    4  H   UNL     1      38.379 -14.750   1.597  1.00  0.00     0.166 HD
HETATM    5  C   UNL     1      40.273 -15.506   2.156  1.00  0.00     0.043 A 
HETATM    6  C   UNL     1      41.358 -14.872   2.757  1.00  0.00     0.002 A 
HETATM    7  C   UNL     1      40.987 -13.505   2.980  1.00  0.00    -0.015 A 
HETATM    8  C   UNL     1      40.288 -16.859   1.806  1.00  0.00     0.033 A 
HETATM    9  C   UNL     1      41.455 -17.591   2.069  1.00  0.00     0.039 A 
HETATM   10  C   UNL     1      42.565 -16.989   2.660  1.00  0.00     0.070 A 
HETATM   11  C   UNL     1      42.518 -15.633   3.012  1.00  0.00     0.051 A 
ENDROOT
BRANCH   7  12
HETATM   12  C   UNL     1      41.836 -12.448   3.620  1.00  0.00     0.146 C 
BRANCH  12  13
HETATM   13  C   UNL     1      41.916 -12.531   5.136  1.00  0.00     0.240 C 
HETATM   14  N   UNL     1      41.043 -11.727   5.839  1.00  0.00    -0.267 N 
HETATM   15  H   UNL     1      40.538 -10.952   5.409  1.00  0.00     0.190 HD
HETATM   16  O   UNL     1      42.664 -13.338   5.697  1.00  0.00    -0.272 OA
BRANCH  14  17
HETATM   17  N   UNL     1      41.112 -11.732   7.231  1.00  0.00    -0.262 N 
HETATM   18  C   UNL     1      41.609 -10.633   7.899  1.00  0.00     0.288 C 
HETATM   19  O   UNL     1      42.063  -9.641   7.337  1.00  0.00    -0.264 OA
HETATM   20  H   UNL     1      40.743 -12.539   7.738  1.00  0.00     0.190 HD
BRANCH  18  21
HETATM   21  C   UNL     1      41.542 -10.745   9.390  1.00  0.00     0.125 A 
HETATM   22  N   UNL     1      42.730 -10.701  10.055  1.00  0.00    -0.255 NA
HETATM   23  C   UNL     1      42.671 -10.817  11.399  1.00  0.00     0.117 A 
HETATM   24  C   UNL     1      41.490 -10.977  12.109  1.00  0.00     0.019 A 
HETATM   25  C   UNL     1      40.291 -11.018  11.403  1.00  0.00     0.004 A 
HETATM   26  C   UNL     1      40.311 -10.899  10.016  1.00  0.00     0.037 A 
ENDBRANCH  18  21
ENDBRANCH  14  17
ENDBRANCH  12  13
ENDBRANCH   7  12
BRANCH  10  27
HETATM   27  O   UNL     1      43.755 -17.603   2.947  1.00  0.00    -0.347 OA
BRANCH  27  28
HETATM   28  C   UNL     1      44.121 -18.725   2.143  1.00  0.00     0.214 C 
BRANCH  28  29
HETATM   29  C   UNL     1      44.361 -19.952   2.998  1.00  0.00    -0.034 A 
HETATM   30  C   UNL     1      44.518 -19.871   4.389  1.00  0.00     0.009 A 
HETATM   31  C   UNL     1      44.709 -21.025   5.152  1.00  0.00     0.001 A 
HETATM   32  C   UNL     1      44.732 -22.276   4.537  1.00  0.00     0.000 A 
HETATM   33  C   UNL     1      44.560 -22.373   3.158  1.00  0.00     0.001 A 
HETATM   34  C   UNL     1      44.371 -21.220   2.394  1.00  0.00     0.009 A 
ENDBRANCH  28  29
ENDBRANCH  27  28
ENDBRANCH  10  27
TORSDOF 7
ENDMDL
MODEL 10
REMARK VINA RESULT:      -8.5      4.380      8.229
REMARK  7 active torsions:
REMARK  status: ('A' for Active; 'I' for Inactive)
REMARK    1  A    between atoms: C_7  and  C_8 
REMARK    2  A    between atoms: C_8  and  C_9 
REMARK       I    between atoms: C_9  and  N_10 
REMARK    3  A    between atoms: N_10  and  N_11 
REMARK       I    between atoms: N_11  and  C_12 
REMARK    4  A    between atoms: C_12  and  C_13 
REMARK    5  A    between atoms: C_23  and  O_24 
REMARK    6  A    between atoms: O_24  and  C_25 
REMARK    7  A    between atoms: C_25  and  C_26 
ROOT
HETATM    1  C   UNL     1      39.828 -13.664   5.059  1.00  0.00     0.068 C 
HETATM    2  C   UNL     1      40.964 -14.603   5.254  1.00  0.00     0.013 A 
HETATM    3  N   UNL     1      41.859 -14.444   6.282  1.00  0.00    -0.359 N 
HETATM    4  H   UNL     1      41.828 -13.706   6.973  1.00  0.00     0.166 HD
HETATM    5  C   UNL     1      42.811 -15.435   6.251  1.00  0.00     0.043 A 
HETATM    6  C   UNL     1      42.517 -16.254   5.164  1.00  0.00     0.002 A 
HETATM    7  C   UNL     1      41.352 -15.718   4.525  1.00  0.00    -0.015 A 
HETATM    8  C   UNL     1      43.901 -15.663   7.097  1.00  0.00     0.033 A 
HETATM    9  C   UNL     1      44.715 -16.772   6.831  1.00  0.00     0.039 A 
HETATM   10  C   UNL     1      44.447 -17.621   5.758  1.00  0.00     0.070 A 
HETATM   11  C   UNL     1      43.355 -17.362   4.919  1.00  0.00     0.051 A 
ENDROOT
BRANCH   7  12
HETATM   12  C   UNL     1      40.681 -16.264   3.301  1.00  0.00     0.146 C 
BRANCH  12  13
HETATM   13  C   UNL     1      41.199 -15.699   1.989  1.00  0.00     0.240 C 
HETATM   14  N   UNL     1      40.829 -14.404   1.692  1.00  0.00    -0.267 N 
HETATM   15  H   UNL     1      40.073 -13.920   2.178  1.00  0.00     0.190 HD
HETATM   16  O   UNL     1      41.977 -16.341   1.275  1.00  0.00    -0.272 OA
BRANCH  14  17
HETATM   17  N   UNL     1      41.240 -13.859   0.476  1.00  0.00    -0.262 N 
HETATM   18  C   UNL     1      40.353 -13.777  -0.576  1.00  0.00     0.288 C 
HETATM   19  O   UNL     1      39.207 -14.216  -0.538  1.00  0.00    -0.264 OA
HETATM   20  H   UNL     1      42.187 -13.481   0.404  1.00  0.00     0.190 HD
BRANCH  18  21
HETATM   21  C   UNL     1      40.905 -13.092  -1.786  1.00  0.00     0.125 A 
HETATM   22  N   UNL     1      39.996 -12.647  -2.698  1.00  0.00    -0.255 NA
HETATM   23  C   UNL     1      40.495 -12.043  -3.797  1.00  0.00     0.117 A 
HETATM   24  C   UNL     1      41.849 -11.863  -4.033  1.00  0.00     0.019 A 
HETATM   25  C   UNL     1      42.756 -12.328  -3.084  1.00  0.00     0.004 A 
HETATM   26  C   UNL     1      42.280 -12.955  -1.936  1.00  0.00     0.037 A 
ENDBRANCH  18  21
ENDBRANCH  14  17
ENDBRANCH  12  13
ENDBRANCH   7  12
BRANCH  10  27
HETATM   27  O   UNL     1      45.165 -18.737   5.417  1.00  0.00    -0.347 OA
BRANCH  27  28
HETATM   28  C   UNL     1      44.502 -19.998   5.523  1.00  0.00     0.214 C 
BRANCH  28  29
HETATM   29  C   UNL     1      44.410 -20.680   4.174  1.00  0.00    -0.034 A 
HETATM   30  C   UNL     1      44.762 -22.026   3.995  1.00  0.00     0.009 A 
HETATM   31  C   UNL     1      44.638 -22.633   2.744  1.00  0.00     0.001 A 
HETATM   32  C   UNL     1      44.149 -21.908   1.658  1.00  0.00     0.000 A 
HETATM   33  C   UNL     1      43.779 -20.576   1.825  1.00  0.00     0.001 A 
HETATM   34  C   UNL     1      43.905 -19.966   3.075  1.00  0.00     0.009 A 
ENDBRANCH  28  29
ENDBRANCH  27  28
ENDBRANCH  10  27
TORSDOF 7
ENDMDL
