MODEL 1
REMARK VINA RESULT:      -8.2      0.000      0.000
REMARK  7 active torsions:
REMARK  status: ('A' for Active; 'I' for Inactive)
REMARK    1  A    between atoms: C_2  and  N_3 
REMARK    2  A    between atoms: N_3  and  C_4 
REMARK    3  A    between atoms: C_6  and  C_7 
REMARK    4  A    between atoms: C_7  and  N_8 
REMARK       I    between atoms: N_8  and  C_9 
REMARK       I    between atoms: C_9  and  N_10 
REMARK    5  A    between atoms: N_10  and  C_11 
REMARK    6  A    between atoms: C_11  and  C_12 
REMARK    7  A    between atoms: C_12  and  N_13 
ROOT
HETATM    1  N   UNL     1      43.974 -12.542   9.107  1.00  0.00    -0.339 N 
HETATM    2  C   UNL     1      44.708 -13.224   8.190  1.00  0.00     0.316 C 
HETATM    3  N   UNL     1      44.093 -14.373   7.775  1.00  0.00    -0.342 N 
HETATM    4  O   UNL     1      45.817 -12.894   7.788  1.00  0.00    -0.248 OA
HETATM    5  H   UNL     1      43.230 -13.020   9.591  1.00  0.00     0.164 HD
HETATM    6  H   UNL     1      43.113 -14.426   8.025  1.00  0.00     0.164 HD
ENDROOT
BRANCH   1   7
HETATM    7  C   UNL     1      44.446 -11.310   9.709  1.00  0.00     0.162 C 
BRANCH   7   8
HETATM    8  C   UNL     1      43.527 -10.812  10.795  1.00  0.00    -0.039 A 
HETATM    9  C   UNL     1      42.134 -10.930  10.648  1.00  0.00     0.032 A 
HETATM   10  C   UNL     1      41.250 -10.584  11.679  1.00  0.00     0.009 A 
HETATM   11  C   UNL     1      41.782 -10.019  12.840  1.00  0.00     0.023 A 
HETATM   12  C   UNL     1      43.163  -9.884  13.003  1.00  0.00     0.002 A 
HETATM   13  C   UNL     1      44.032 -10.293  11.994  1.00  0.00     0.009 A 
BRANCH  10  14
HETATM   14  N   UNL     1      39.877 -10.712  11.428  1.00  0.00    -0.289 NA
HETATM   15  H   UNL     1      39.748 -11.472  10.759  1.00  0.00     0.128 HD
BRANCH  14  16
HETATM   16  C   UNL     1      39.108  -9.527  11.010  1.00  0.00     0.052 C 
HETATM   17  C   UNL     1      37.999  -9.213  12.017  1.00  0.00     0.026 C 
HETATM   18  C   UNL     1      38.485  -9.819   9.643  1.00  0.00     0.026 C 
ENDBRANCH  14  16
ENDBRANCH  10  14
ENDBRANCH   7   8
ENDBRANCH   1   7
BRANCH   3  19
HETATM   19  C   UNL     1      44.474 -15.161   6.605  1.00  0.00     0.152 C 
BRANCH  19  20
HETATM   20  C   UNL     1      43.375 -15.728   5.680  1.00  0.00     0.255 C 
BRANCH  20  21
HETATM   21  N   UNL     1      43.541 -17.191   5.364  1.00  0.00    -0.065 N 
HETATM   22  H   UNL     1      42.648 -17.618   5.681  1.00  0.00     0.280 HD
HETATM   23  C   UNL     1      43.693 -17.509   3.896  1.00  0.00     0.274 C 
HETATM   24  C   UNL     1      44.039 -18.941   3.661  1.00  0.00    -0.019 A 
HETATM   25  C   UNL     1      44.429 -19.783   4.684  1.00  0.00    -0.008 A 
HETATM   26  C   UNL     1      44.045 -19.624   2.405  1.00  0.00     0.017 A 
HETATM   27  S   UNL     1      44.778 -21.359   4.155  1.00  0.00    -0.106 SA
HETATM   28  C   UNL     1      44.521 -19.382   6.120  1.00  0.00     0.074 C 
HETATM   29  C   UNL     1      44.429 -20.942   2.532  1.00  0.00     0.051 A 
HETATM   30  C   UNL     1      44.609 -17.851   6.225  1.00  0.00     0.240 C 
ENDBRANCH  20  21
ENDBRANCH  19  20
ENDBRANCH   3  19
TORSDOF 7
ENDMDL
MODEL 2
REMARK VINA RESULT:      -8.2      3.678     10.089
REMARK  7 active torsions:
REMARK  status: ('A' for Active; 'I' for Inactive)
REMARK    1  A    between atoms: C_2  and  N_3 
REMARK    2  A    between atoms: N_3  and  C_4 
REMARK    3  A    between atoms: C_6  and  C_7 
REMARK    4  A    between atoms: C_7  and  N_8 
REMARK       I    between atoms: N_8  and  C_9 
REMARK       I    between atoms: C_9  and  N_10 
REMARK    5  A    between atoms: N_10  and  C_11 
REMARK    6  A    between atoms: C_11  and  C_12 
REMARK    7  A    between atoms: C_12  and  N_13 
ROOT
HETATM    1  N   UNL     1      40.517 -15.591   6.556  1.00  0.00    -0.339 N 
HETATM    2  C   UNL     1      40.082 -14.502   5.869  1.00  0.00     0.316 C 
HETATM    3  N   UNL     1      39.984 -13.389   6.657  1.00  0.00    -0.342 N 
HETATM    4  O   UNL     1      39.769 -14.495   4.685  1.00  0.00    -0.248 OA
HETATM    5  H   UNL     1      40.470 -15.583   7.563  1.00  0.00     0.164 HD
HETATM    6  H   UNL     1      40.455 -13.476   7.549  1.00  0.00     0.164 HD
ENDROOT
BRANCH   1   7
HETATM    7  C   UNL     1      40.667 -16.889   5.927  1.00  0.00     0.162 C 
BRANCH   7   8
HETATM    8  C   UNL     1      42.092 -17.379   5.955  1.00  0.00    -0.039 A 
HETATM    9  C   UNL     1      42.568 -18.219   4.933  1.00  0.00     0.032 A 
HETATM   10  C   UNL     1      43.913 -18.606   4.861  1.00  0.00     0.009 A 
HETATM   11  C   UNL     1      44.768 -18.213   5.893  1.00  0.00     0.023 A 
HETATM   12  C   UNL     1      44.313 -17.385   6.923  1.00  0.00     0.002 A 
HETATM   13  C   UNL     1      42.987 -16.957   6.945  1.00  0.00     0.009 A 
BRANCH  10  14
HETATM   14  N   UNL     1      44.286 -19.468   3.820  1.00  0.00    -0.289 NA
HETATM   15  H   UNL     1      45.262 -19.281   3.590  1.00  0.00     0.128 HD
BRANCH  14  16
HETATM   16  C   UNL     1      43.470 -19.511   2.594  1.00  0.00     0.052 C 
HETATM   17  C   UNL     1      43.635 -20.852   1.876  1.00  0.00     0.026 C 
HETATM   18  C   UNL     1      43.933 -18.381   1.672  1.00  0.00     0.026 C 
ENDBRANCH  14  16
ENDBRANCH  10  14
ENDBRANCH   7   8
ENDBRANCH   1   7
BRANCH   3  19
HETATM   19  C   UNL     1      39.832 -12.020   6.171  1.00  0.00     0.152 C 
BRANCH  19  20
HETATM   20  C   UNL     1      39.762 -10.857   7.185  1.00  0.00     0.255 C 
BRANCH  20  21
HETATM   21  N   UNL     1      40.525 -11.113   8.458  1.00  0.00    -0.065 N 
HETATM   22  H   UNL     1      40.537 -12.149   8.538  1.00  0.00     0.280 HD
HETATM   23  C   UNL     1      41.961 -10.648   8.441  1.00  0.00     0.274 C 
HETATM   24  C   UNL     1      42.606 -10.757   9.782  1.00  0.00    -0.019 A 
HETATM   25  C   UNL     1      41.881 -11.002  10.931  1.00  0.00    -0.008 A 
HETATM   26  C   UNL     1      43.998 -10.610  10.076  1.00  0.00     0.017 A 
HETATM   27  S   UNL     1      42.845 -11.071  12.328  1.00  0.00    -0.106 SA
HETATM   28  C   UNL     1      40.402 -11.212  10.970  1.00  0.00     0.074 C 
HETATM   29  C   UNL     1      44.263 -10.755  11.421  1.00  0.00     0.051 A 
HETATM   30  C   UNL     1      39.766 -10.643   9.691  1.00  0.00     0.240 C 
ENDBRANCH  20  21
ENDBRANCH  19  20
ENDBRANCH   3  19
TORSDOF 7
ENDMDL
MODEL 3
REMARK VINA RESULT:      -8.1      5.570      9.707
REMARK  7 active torsions:
REMARK  status: ('A' for Active; 'I' for Inactive)
REMARK    1  A    between atoms: C_2  and  N_3 
REMARK    2  A    between atoms: N_3  and  C_4 
REMARK    3  A    between atoms: C_6  and  C_7 
REMARK    4  A    between atoms: C_7  and  N_8 
REMARK       I    between atoms: N_8  and  C_9 
REMARK       I    between atoms: C_9  and  N_10 
REMARK    5  A    between atoms: N_10  and  C_11 
REMARK    6  A    between atoms: C_11  and  C_12 
REMARK    7  A    between atoms: C_12  and  N_13 
ROOT
HETATM    1  N   UNL     1      41.707 -17.940   1.740  1.00  0.00    -0.339 N 
HETATM    2  C   UNL     1      41.172 -16.731   1.428  1.00  0.00     0.316 C 
HETATM    3  N   UNL     1      39.905 -16.576   1.921  1.00  0.00    -0.342 N 
HETATM    4  O   UNL     1      41.721 -15.870   0.751  1.00  0.00    -0.248 OA
HETATM    5  H   UNL     1      41.095 -18.684   2.038  1.00  0.00     0.164 HD
HETATM    6  H   UNL     1      39.650 -17.264   2.619  1.00  0.00     0.164 HD
ENDROOT
BRANCH   1   7
HETATM    7  C   UNL     1      43.030 -18.334   1.295  1.00  0.00     0.162 C 
BRANCH   7   8
HETATM    8  C   UNL     1      43.650 -19.377   2.189  1.00  0.00    -0.039 A 
HETATM    9  C   UNL     1      43.979 -19.060   3.519  1.00  0.00     0.032 A 
HETATM   10  C   UNL     1      44.451 -20.029   4.415  1.00  0.00     0.009 A 
HETATM   11  C   UNL     1      44.686 -21.316   3.929  1.00  0.00     0.023 A 
HETATM   12  C   UNL     1      44.375 -21.651   2.608  1.00  0.00     0.002 A 
HETATM   13  C   UNL     1      43.845 -20.691   1.748  1.00  0.00     0.009 A 
BRANCH  10  14
HETATM   14  N   UNL     1      44.777 -19.609   5.713  1.00  0.00    -0.289 NA
HETATM   15  H   UNL     1      45.624 -20.100   5.999  1.00  0.00     0.128 HD
BRANCH  14  16
HETATM   16  C   UNL     1      43.757 -19.687   6.772  1.00  0.00     0.052 C 
HETATM   17  C   UNL     1      44.176 -18.869   7.995  1.00  0.00     0.026 C 
HETATM   18  C   UNL     1      43.597 -21.155   7.174  1.00  0.00     0.026 C 
ENDBRANCH  14  16
ENDBRANCH  10  14
ENDBRANCH   7   8
ENDBRANCH   1   7
BRANCH   3  19
HETATM   19  C   UNL     1      39.182 -15.309   2.011  1.00  0.00     0.152 C 
BRANCH  19  20
HETATM   20  C   UNL     1      39.586 -14.280   3.089  1.00  0.00     0.255 C 
BRANCH  20  21
HETATM   21  N   UNL     1      40.676 -14.759   4.011  1.00  0.00    -0.065 N 
HETATM   22  H   UNL     1      40.993 -15.650   3.581  1.00  0.00     0.280 HD
HETATM   23  C   UNL     1      41.878 -13.849   4.096  1.00  0.00     0.274 C 
HETATM   24  C   UNL     1      42.835 -14.277   5.158  1.00  0.00    -0.019 A 
HETATM   25  C   UNL     1      42.509 -15.227   6.106  1.00  0.00    -0.008 A 
HETATM   26  C   UNL     1      44.160 -13.780   5.366  1.00  0.00     0.017 A 
HETATM   27  S   UNL     1      43.765 -15.530   7.208  1.00  0.00    -0.106 SA
HETATM   28  C   UNL     1      41.202 -15.949   6.165  1.00  0.00     0.074 C 
HETATM   29  C   UNL     1      44.774 -14.376   6.447  1.00  0.00     0.051 A 
HETATM   30  C   UNL     1      40.141 -15.162   5.378  1.00  0.00     0.240 C 
ENDBRANCH  20  21
ENDBRANCH  19  20
ENDBRANCH   3  19
TORSDOF 7
ENDMDL
MODEL 4
REMARK VINA RESULT:      -8.0      5.386      9.374
REMARK  7 active torsions:
REMARK  status: ('A' for Active; 'I' for Inactive)
REMARK    1  A    between atoms: C_2  and  N_3 
REMARK    2  A    between atoms: N_3  and  C_4 
REMARK    3  A    between atoms: C_6  and  C_7 
REMARK    4  A    between atoms: C_7  and  N_8 
REMARK       I    between atoms: N_8  and  C_9 
REMARK       I    between atoms: C_9  and  N_10 
REMARK    5  A    between atoms: N_10  and  C_11 
REMARK    6  A    between atoms: C_11  and  C_12 
REMARK    7  A    between atoms: C_12  and  N_13 
ROOT
HETATM    1  N   UNL     1      44.676 -18.250   6.813  1.00  0.00    -0.339 N 
HETATM    2  C   UNL     1      43.800 -17.219   6.938  1.00  0.00     0.316 C 
HETATM    3  N   UNL     1      44.403 -16.000   6.800  1.00  0.00    -0.342 N 
HETATM    4  O   UNL     1      42.606 -17.335   7.185  1.00  0.00    -0.248 OA
HETATM    5  H   UNL     1      45.663 -18.066   6.904  1.00  0.00     0.164 HD
HETATM    6  H   UNL     1      45.335 -16.045   6.406  1.00  0.00     0.164 HD
ENDROOT
BRANCH   1   7
HETATM    7  C   UNL     1      44.263 -19.633   6.953  1.00  0.00     0.162 C 
BRANCH   7   8
HETATM    8  C   UNL     1      44.303 -20.380   5.645  1.00  0.00    -0.039 A 
HETATM    9  C   UNL     1      44.095 -19.694   4.436  1.00  0.00     0.032 A 
HETATM   10  C   UNL     1      44.234 -20.327   3.193  1.00  0.00     0.009 A 
HETATM   11  C   UNL     1      44.493 -21.699   3.178  1.00  0.00     0.023 A 
HETATM   12  C   UNL     1      44.694 -22.403   4.369  1.00  0.00     0.002 A 
HETATM   13  C   UNL     1      44.616 -21.744   5.595  1.00  0.00     0.009 A 
BRANCH  10  14
HETATM   14  N   UNL     1      43.980 -19.565   2.044  1.00  0.00    -0.289 NA
HETATM   15  H   UNL     1      44.824 -19.568   1.470  1.00  0.00     0.128 HD
BRANCH  14  16
HETATM   16  C   UNL     1      43.464 -18.193   2.189  1.00  0.00     0.052 C 
HETATM   17  C   UNL     1      42.001 -18.110   1.748  1.00  0.00     0.026 C 
HETATM   18  C   UNL     1      44.312 -17.268   1.312  1.00  0.00     0.026 C 
ENDBRANCH  14  16
ENDBRANCH  10  14
ENDBRANCH   7   8
ENDBRANCH   1   7
BRANCH   3  19
HETATM   19  C   UNL     1      43.707 -14.732   6.592  1.00  0.00     0.152 C 
BRANCH  19  20
HETATM   20  C   UNL     1      43.899 -13.968   5.264  1.00  0.00     0.255 C 
BRANCH  20  21
HETATM   21  N   UNL     1      42.683 -13.976   4.376  1.00  0.00    -0.065 N 
HETATM   22  H   UNL     1      42.317 -13.007   4.444  1.00  0.00     0.280 HD
HETATM   23  C   UNL     1      42.965 -14.247   2.917  1.00  0.00     0.274 C 
HETATM   24  C   UNL     1      41.714 -14.428   2.125  1.00  0.00    -0.019 A 
HETATM   25  C   UNL     1      40.479 -14.590   2.722  1.00  0.00    -0.008 A 
HETATM   26  C   UNL     1      41.605 -14.484   0.700  1.00  0.00     0.017 A 
HETATM   27  S   UNL     1      39.217 -14.787   1.603  1.00  0.00    -0.106 SA
HETATM   28  C   UNL     1      40.245 -14.573   4.197  1.00  0.00     0.074 C 
HETATM   29  C   UNL     1      40.304 -14.677   0.286  1.00  0.00     0.051 A 
HETATM   30  C   UNL     1      41.566 -14.848   4.934  1.00  0.00     0.240 C 
ENDBRANCH  20  21
ENDBRANCH  19  20
ENDBRANCH   3  19
TORSDOF 7
ENDMDL
MODEL 5
REMARK VINA RESULT:      -8.0      3.504     10.906
REMARK  7 active torsions:
REMARK  status: ('A' for Active; 'I' for Inactive)
REMARK    1  A    between atoms: C_2  and  N_3 
REMARK    2  A    between atoms: N_3  and  C_4 
REMARK    3  A    between atoms: C_6  and  C_7 
REMARK    4  A    between atoms: C_7  and  N_8 
REMARK       I    between atoms: N_8  and  C_9 
REMARK       I    between atoms: C_9  and  N_10 
REMARK    5  A    between atoms: N_10  and  C_11 
REMARK    6  A    between atoms: C_11  and  C_12 
REMARK    7  A    between atoms: C_12  and  N_13 
ROOT
HETATM    1  N   UNL     1      43.009 -16.087   6.042  1.00  0.00    -0.339 N 
HETATM    2  C   UNL     1      43.272 -14.763   6.194  1.00  0.00     0.316 C 
HETATM    3  N   UNL     1      44.117 -14.513   7.239  1.00  0.00    -0.342 N 
HETATM    4  O   UNL     1      42.791 -13.867   5.512  1.00  0.00    -0.248 OA
HETATM    5  H   UNL     1      43.204 -16.715   6.807  1.00  0.00     0.164 HD
HETATM    6  H   UNL     1      44.593 -15.336   7.587  1.00  0.00     0.164 HD
ENDROOT
BRANCH   1   7
HETATM    7  C   UNL     1      42.112 -16.582   5.015  1.00  0.00     0.162 C 
BRANCH   7   8
HETATM    8  C   UNL     1      42.848 -17.047   3.785  1.00  0.00    -0.039 A 
HETATM    9  C   UNL     1      43.535 -18.273   3.797  1.00  0.00     0.032 A 
HETATM   10  C   UNL     1      44.137 -18.794   2.643  1.00  0.00     0.009 A 
HETATM   11  C   UNL     1      44.125 -18.015   1.484  1.00  0.00     0.023 A 
HETATM   12  C   UNL     1      43.456 -16.788   1.453  1.00  0.00     0.002 A 
HETATM   13  C   UNL     1      42.807 -16.315   2.592  1.00  0.00     0.009 A 
BRANCH  10  14
HETATM   14  N   UNL     1      44.822 -20.012   2.761  1.00  0.00    -0.289 NA
HETATM   15  H   UNL     1      45.518 -20.056   2.016  1.00  0.00     0.128 HD
BRANCH  14  16
HETATM   16  C   UNL     1      44.054 -21.268   2.819  1.00  0.00     0.052 C 
HETATM   17  C   UNL     1      44.626 -22.209   3.881  1.00  0.00     0.026 C 
HETATM   18  C   UNL     1      44.135 -21.941   1.447  1.00  0.00     0.026 C 
ENDBRANCH  14  16
ENDBRANCH  10  14
ENDBRANCH   7   8
ENDBRANCH   1   7
BRANCH   3  19
HETATM   19  C   UNL     1      44.814 -13.251   7.479  1.00  0.00     0.152 C 
BRANCH  19  20
HETATM   20  C   UNL     1      45.111 -12.811   8.930  1.00  0.00     0.255 C 
BRANCH  20  21
HETATM   21  N   UNL     1      43.921 -12.228   9.645  1.00  0.00    -0.065 N 
HETATM   22  H   UNL     1      43.200 -12.974   9.579  1.00  0.00     0.280 HD
HETATM   23  C   UNL     1      44.140 -11.945  11.111  1.00  0.00     0.274 C 
HETATM   24  C   UNL     1      42.999 -11.200  11.719  1.00  0.00    -0.019 A 
HETATM   25  C   UNL     1      42.005 -10.622  10.954  1.00  0.00    -0.008 A 
HETATM   26  C   UNL     1      42.779 -10.959  13.111  1.00  0.00     0.017 A 
HETATM   27  S   UNL     1      40.827  -9.825  11.882  1.00  0.00    -0.106 SA
HETATM   28  C   UNL     1      41.934 -10.695   9.464  1.00  0.00     0.074 C 
HETATM   29  C   UNL     1      41.636 -10.223  13.337  1.00  0.00     0.051 A 
HETATM   30  C   UNL     1      43.320 -11.046   8.897  1.00  0.00     0.240 C 
ENDBRANCH  20  21
ENDBRANCH  19  20
ENDBRANCH   3  19
TORSDOF 7
ENDMDL
MODEL 6
REMARK VINA RESULT:      -7.9      1.656      2.626
REMARK  7 active torsions:
REMARK  status: ('A' for Active; 'I' for Inactive)
REMARK    1  A    between atoms: C_2  and  N_3 
REMARK    2  A    between atoms: N_3  and  C_4 
REMARK    3  A    between atoms: C_6  and  C_7 
REMARK    4  A    between atoms: C_7  and  N_8 
REMARK       I    between atoms: N_8  and  C_9 
REMARK       I    between atoms: C_9  and  N_10 
REMARK    5  A    between atoms: N_10  and  C_11 
REMARK    6  A    between atoms: C_11  and  C_12 
REMARK    7  A    between atoms: C_12  and  N_13 
ROOT
HETATM    1  N   UNL     1      44.021 -13.438   7.095  1.00  0.00    -0.339 N 
HETATM    2  C   UNL     1      43.792 -14.696   6.636  1.00  0.00     0.316 C 
HETATM    3  N   UNL     1      42.752 -14.749   5.750  1.00  0.00    -0.342 N 
HETATM    4  O   UNL     1      44.407 -15.696   6.985  1.00  0.00    -0.248 OA
HETATM    5  H   UNL     1      43.301 -12.740   6.988  1.00  0.00     0.164 HD
HETATM    6  H   UNL     1      42.465 -13.844   5.399  1.00  0.00     0.164 HD
ENDROOT
BRANCH   1   7
HETATM    7  C   UNL     1      45.058 -13.149   8.067  1.00  0.00     0.162 C 
BRANCH   7   8
HETATM    8  C   UNL     1      44.642 -12.087   9.052  1.00  0.00    -0.039 A 
HETATM    9  C   UNL     1      43.395 -11.454   8.921  1.00  0.00     0.032 A 
HETATM   10  C   UNL     1      42.923 -10.544   9.877  1.00  0.00     0.009 A 
HETATM   11  C   UNL     1      43.771 -10.198  10.932  1.00  0.00     0.023 A 
HETATM   12  C   UNL     1      45.019 -10.809  11.076  1.00  0.00     0.002 A 
HETATM   13  C   UNL     1      45.446 -11.760  10.152  1.00  0.00     0.009 A 
BRANCH  10  14
HETATM   14  N   UNL     1      41.677  -9.944   9.644  1.00  0.00    -0.289 NA
HETATM   15  H   UNL     1      41.619  -9.104  10.221  1.00  0.00     0.128 HD
BRANCH  14  16
HETATM   16  C   UNL     1      40.453 -10.749   9.785  1.00  0.00     0.052 C 
HETATM   17  C   UNL     1      39.257 -10.042   9.144  1.00  0.00     0.026 C 
HETATM   18  C   UNL     1      40.182 -10.949  11.279  1.00  0.00     0.026 C 
ENDBRANCH  14  16
ENDBRANCH  10  14
ENDBRANCH   7   8
ENDBRANCH   1   7
BRANCH   3  19
HETATM   19  C   UNL     1      42.447 -15.876   4.870  1.00  0.00     0.152 C 
BRANCH  19  20
HETATM   20  C   UNL     1      43.214 -16.028   3.538  1.00  0.00     0.255 C 
BRANCH  20  21
HETATM   21  N   UNL     1      43.694 -17.429   3.269  1.00  0.00    -0.065 N 
HETATM   22  H   UNL     1      44.599 -17.293   2.778  1.00  0.00     0.280 HD
HETATM   23  C   UNL     1      43.975 -18.251   4.505  1.00  0.00     0.274 C 
HETATM   24  C   UNL     1      44.265 -19.678   4.180  1.00  0.00    -0.019 A 
HETATM   25  C   UNL     1      44.035 -20.211   2.927  1.00  0.00    -0.008 A 
HETATM   26  C   UNL     1      44.776 -20.671   5.073  1.00  0.00     0.017 A 
HETATM   27  S   UNL     1      44.437 -21.857   2.817  1.00  0.00    -0.106 SA
HETATM   28  C   UNL     1      43.510 -19.436   1.763  1.00  0.00     0.074 C 
HETATM   29  C   UNL     1      44.915 -21.898   4.460  1.00  0.00     0.051 A 
HETATM   30  C   UNL     1      42.816 -18.158   2.262  1.00  0.00     0.240 C 
ENDBRANCH  20  21
ENDBRANCH  19  20
ENDBRANCH   3  19
TORSDOF 7
ENDMDL
MODEL 7
REMARK VINA RESULT:      -7.9      3.716     11.048
REMARK  7 active torsions:
REMARK  status: ('A' for Active; 'I' for Inactive)
REMARK    1  A    between atoms: C_2  and  N_3 
REMARK    2  A    between atoms: N_3  and  C_4 
REMARK    3  A    between atoms: C_6  and  C_7 
REMARK    4  A    between atoms: C_7  and  N_8 
REMARK       I    between atoms: N_8  and  C_9 
REMARK       I    between atoms: C_9  and  N_10 
REMARK    5  A    between atoms: N_10  and  C_11 
REMARK    6  A    between atoms: C_11  and  C_12 
REMARK    7  A    between atoms: C_12  and  N_13 
ROOT
HETATM    1  N   UNL     1      41.914 -15.656   5.518  1.00  0.00    -0.339 N 
HETATM    2  C   UNL     1      41.031 -14.630   5.628  1.00  0.00     0.316 C 
HETATM    3  N   UNL     1      41.593 -13.513   6.182  1.00  0.00    -0.342 N 
HETATM    4  O   UNL     1      39.849 -14.680   5.312  1.00  0.00    -0.248 OA
HETATM    5  H   UNL     1      42.764 -15.630   6.058  1.00  0.00     0.164 HD
HETATM    6  H   UNL     1      42.604 -13.534   6.211  1.00  0.00     0.164 HD
ENDROOT
BRANCH   1   7
HETATM    7  C   UNL     1      41.529 -16.949   4.985  1.00  0.00     0.162 C 
BRANCH   7   8
HETATM    8  C   UNL     1      42.439 -17.406   3.874  1.00  0.00    -0.039 A 
HETATM    9  C   UNL     1      43.205 -18.575   4.026  1.00  0.00     0.032 A 
HETATM   10  C   UNL     1      43.975 -19.096   2.978  1.00  0.00     0.009 A 
HETATM   11  C   UNL     1      44.047 -18.368   1.789  1.00  0.00     0.023 A 
HETATM   12  C   UNL     1      43.302 -17.198   1.619  1.00  0.00     0.002 A 
HETATM   13  C   UNL     1      42.489 -16.729   2.650  1.00  0.00     0.009 A 
BRANCH  10  14
HETATM   14  N   UNL     1      44.726 -20.252   3.236  1.00  0.00    -0.289 NA
HETATM   15  H   UNL     1      45.597 -20.186   2.709  1.00  0.00     0.128 HD
BRANCH  14  16
HETATM   16  C   UNL     1      44.105 -21.573   3.036  1.00  0.00     0.052 C 
HETATM   17  C   UNL     1      44.690 -22.602   4.005  1.00  0.00     0.026 C 
HETATM   18  C   UNL     1      44.378 -22.017   1.597  1.00  0.00     0.026 C 
ENDBRANCH  14  16
ENDBRANCH  10  14
ENDBRANCH   7   8
ENDBRANCH   1   7
BRANCH   3  19
HETATM   19  C   UNL     1      41.004 -12.175   6.168  1.00  0.00     0.152 C 
BRANCH  19  20
HETATM   20  C   UNL     1      41.694 -11.033   6.947  1.00  0.00     0.255 C 
BRANCH  20  21
HETATM   21  N   UNL     1      41.631 -11.194   8.443  1.00  0.00    -0.065 N 
HETATM   22  H   UNL     1      41.618 -12.223   8.583  1.00  0.00     0.280 HD
HETATM   23  C   UNL     1      42.829 -10.656   9.188  1.00  0.00     0.274 C 
HETATM   24  C   UNL     1      42.629 -10.673  10.667  1.00  0.00    -0.019 A 
HETATM   25  C   UNL     1      41.395 -10.904  11.241  1.00  0.00    -0.008 A 
HETATM   26  C   UNL     1      43.624 -10.441  11.667  1.00  0.00     0.017 A 
HETATM   27  S   UNL     1      41.429 -10.862  12.938  1.00  0.00    -0.106 SA
HETATM   28  C   UNL     1      40.145 -11.189  10.473  1.00  0.00     0.074 C 
HETATM   29  C   UNL     1      43.105 -10.513  12.942  1.00  0.00     0.051 A 
HETATM   30  C   UNL     1      40.309 -10.710   9.022  1.00  0.00     0.240 C 
ENDBRANCH  20  21
ENDBRANCH  19  20
ENDBRANCH   3  19
TORSDOF 7
ENDMDL
MODEL 8
REMARK VINA RESULT:      -7.7      6.820     10.363
REMARK  7 active torsions:
REMARK  status: ('A' for Active; 'I' for Inactive)
REMARK    1  A    between atoms: C_2  and  N_3 
REMARK    2  A    between atoms: N_3  and  C_4 
REMARK    3  A    between atoms: C_6  and  C_7 
REMARK    4  A    between atoms: C_7  and  N_8 
REMARK       I    between atoms: N_8  and  C_9 
REMARK       I    between atoms: C_9  and  N_10 
REMARK    5  A    between atoms: N_10  and  C_11 
REMARK    6  A    between atoms: C_11  and  C_12 
REMARK    7  A    between atoms: C_12  and  N_13 
ROOT
HETATM    1  N   UNL     1      42.195 -17.081   2.423  1.00  0.00    -0.339 N 
HETATM    2  C   UNL     1      40.966 -16.517   2.552  1.00  0.00     0.316 C 
HETATM    3  N   UNL     1      40.971 -15.437   3.391  1.00  0.00    -0.342 N 
HETATM    4  O   UNL     1      39.942 -16.928   2.021  1.00  0.00    -0.248 OA
HETATM    5  H   UNL     1      42.905 -16.868   3.106  1.00  0.00     0.164 HD
HETATM    6  H   UNL     1      41.897 -15.085   3.600  1.00  0.00     0.164 HD
ENDROOT
BRANCH   1   7
HETATM    7  C   UNL     1      42.420 -18.258   1.605  1.00  0.00     0.162 C 
BRANCH   7   8
HETATM    8  C   UNL     1      43.263 -19.291   2.306  1.00  0.00    -0.039 A 
HETATM    9  C   UNL     1      43.761 -19.038   3.596  1.00  0.00     0.032 A 
HETATM   10  C   UNL     1      44.453 -20.014   4.326  1.00  0.00     0.009 A 
HETATM   11  C   UNL     1      44.729 -21.232   3.702  1.00  0.00     0.023 A 
HETATM   12  C   UNL     1      44.251 -21.501   2.416  1.00  0.00     0.002 A 
HETATM   13  C   UNL     1      43.508 -20.543   1.729  1.00  0.00     0.009 A 
BRANCH  10  14
HETATM   14  N   UNL     1      44.934 -19.656   5.594  1.00  0.00    -0.289 NA
HETATM   15  H   UNL     1      45.116 -20.514   6.116  1.00  0.00     0.128 HD
BRANCH  14  16
HETATM   16  C   UNL     1      44.161 -18.711   6.417  1.00  0.00     0.052 C 
HETATM   17  C   UNL     1      44.974 -17.447   6.706  1.00  0.00     0.026 C 
HETATM   18  C   UNL     1      43.811 -19.402   7.737  1.00  0.00     0.026 C 
ENDBRANCH  14  16
ENDBRANCH  10  14
ENDBRANCH   7   8
ENDBRANCH   1   7
BRANCH   3  19
HETATM   19  C   UNL     1      39.896 -14.453   3.509  1.00  0.00     0.152 C 
BRANCH  19  20
HETATM   20  C   UNL     1      39.737 -13.367   2.422  1.00  0.00     0.255 C 
BRANCH  20  21
HETATM   21  N   UNL     1      39.844 -13.895   1.016  1.00  0.00    -0.065 N 
HETATM   22  H   UNL     1      39.912 -14.924   1.139  1.00  0.00     0.280 HD
HETATM   23  C   UNL     1      38.640 -13.626   0.145  1.00  0.00     0.274 C 
HETATM   24  C   UNL     1      38.877 -14.002  -1.279  1.00  0.00    -0.019 A 
HETATM   25  C   UNL     1      40.135 -14.303  -1.762  1.00  0.00    -0.008 A 
HETATM   26  C   UNL     1      37.897 -14.082  -2.317  1.00  0.00     0.017 A 
HETATM   27  S   UNL     1      40.140 -14.690  -3.416  1.00  0.00    -0.106 SA
HETATM   28  C   UNL     1      41.378 -14.319  -0.934  1.00  0.00     0.074 C 
HETATM   29  C   UNL     1      38.450 -14.444  -3.527  1.00  0.00     0.051 A 
HETATM   30  C   UNL     1      41.155 -13.501   0.349  1.00  0.00     0.240 C 
ENDBRANCH  20  21
ENDBRANCH  19  20
ENDBRANCH   3  19
TORSDOF 7
ENDMDL
MODEL 9
REMARK VINA RESULT:      -7.5      4.081     10.319
REMARK  7 active torsions:
REMARK  status: ('A' for Active; 'I' for Inactive)
REMARK    1  A    between atoms: C_2  and  N_3 
REMARK    2  A    between atoms: N_3  and  C_4 
REMARK    3  A    between atoms: C_6  and  C_7 
REMARK    4  A    between atoms: C_7  and  N_8 
REMARK       I    between atoms: N_8  and  C_9 
REMARK       I    between atoms: C_9  and  N_10 
REMARK    5  A    between atoms: N_10  and  C_11 
REMARK    6  A    between atoms: C_11  and  C_12 
REMARK    7  A    between atoms: C_12  and  N_13 
ROOT
HETATM    1  N   UNL     1      39.771 -14.271   5.501  1.00  0.00    -0.339 N 
HETATM    2  C   UNL     1      39.519 -12.993   5.883  1.00  0.00     0.316 C 
HETATM    3  N   UNL     1      39.396 -12.866   7.240  1.00  0.00    -0.342 N 
HETATM    4  O   UNL     1      39.374 -12.044   5.122  1.00  0.00    -0.248 OA
HETATM    5  H   UNL     1      39.586 -15.021   6.148  1.00  0.00     0.164 HD
HETATM    6  H   UNL     1      39.730 -13.668   7.758  1.00  0.00     0.164 HD
ENDROOT
BRANCH   1   7
HETATM    7  C   UNL     1      39.910 -14.645   4.106  1.00  0.00     0.162 C 
BRANCH   7   8
HETATM    8  C   UNL     1      40.827 -15.825   3.916  1.00  0.00    -0.039 A 
HETATM    9  C   UNL     1      41.419 -16.444   5.031  1.00  0.00     0.032 A 
HETATM   10  C   UNL     1      42.186 -17.611   4.908  1.00  0.00     0.009 A 
HETATM   11  C   UNL     1      42.439 -18.101   3.625  1.00  0.00     0.023 A 
HETATM   12  C   UNL     1      41.868 -17.495   2.502  1.00  0.00     0.002 A 
HETATM   13  C   UNL     1      41.054 -16.374   2.648  1.00  0.00     0.009 A 
BRANCH  10  14
HETATM   14  N   UNL     1      42.757 -18.139   6.075  1.00  0.00    -0.289 NA
HETATM   15  H   UNL     1      41.999 -18.391   6.710  1.00  0.00     0.128 HD
BRANCH  14  16
HETATM   16  C   UNL     1      43.786 -17.363   6.787  1.00  0.00     0.052 C 
HETATM   17  C   UNL     1      45.172 -17.978   6.582  1.00  0.00     0.026 C 
HETATM   18  C   UNL     1      43.444 -17.372   8.279  1.00  0.00     0.026 C 
ENDBRANCH  14  16
ENDBRANCH  10  14
ENDBRANCH   7   8
ENDBRANCH   1   7
BRANCH   3  19
HETATM   19  C   UNL     1      39.416 -11.604   7.976  1.00  0.00     0.152 C 
BRANCH  19  20
HETATM   20  C   UNL     1      40.769 -10.932   8.294  1.00  0.00     0.255 C 
BRANCH  20  21
HETATM   21  N   UNL     1      41.146 -10.983   9.751  1.00  0.00    -0.065 N 
HETATM   22  H   UNL     1      41.542 -11.936   9.874  1.00  0.00     0.280 HD
HETATM   23  C   UNL     1      42.214  -9.998  10.164  1.00  0.00     0.274 C 
HETATM   24  C   UNL     1      42.410  -9.965  11.643  1.00  0.00    -0.019 A 
HETATM   25  C   UNL     1      41.529 -10.572  12.517  1.00  0.00    -0.008 A 
HETATM   26  C   UNL     1      43.470  -9.317  12.351  1.00  0.00     0.017 A 
HETATM   27  S   UNL     1      41.971 -10.383  14.147  1.00  0.00    -0.106 SA
HETATM   28  C   UNL     1      40.319 -11.341  12.100  1.00  0.00     0.074 C 
HETATM   29  C   UNL     1      43.349  -9.465  13.716  1.00  0.00     0.051 A 
HETATM   30  C   UNL     1      39.929 -10.953  10.665  1.00  0.00     0.240 C 
ENDBRANCH  20  21
ENDBRANCH  19  20
ENDBRANCH   3  19
TORSDOF 7
ENDMDL
MODEL 10
REMARK VINA RESULT:      -7.5      4.674      8.281
REMARK  7 active torsions:
REMARK  status: ('A' for Active; 'I' for Inactive)
REMARK    1  A    between atoms: C_2  and  N_3 
REMARK    2  A    between atoms: N_3  and  C_4 
REMARK    3  A    between atoms: C_6  and  C_7 
REMARK    4  A    between atoms: C_7  and  N_8 
REMARK       I    between atoms: N_8  and  C_9 
REMARK       I    between atoms: C_9  and  N_10 
REMARK    5  A    between atoms: N_10  and  C_11 
REMARK    6  A    between atoms: C_11  and  C_12 
REMARK    7  A    between atoms: C_12  and  N_13 
ROOT
HETATM    1  N   UNL     1      43.369 -14.501   6.990  1.00  0.00    -0.339 N 
HETATM    2  C   UNL     1      42.985 -13.730   5.939  1.00  0.00     0.316 C 
HETATM    3  N   UNL     1      41.868 -12.991   6.214  1.00  0.00    -0.342 N 
HETATM    4  O   UNL     1      43.533 -13.707   4.844  1.00  0.00    -0.248 OA
HETATM    5  H   UNL     1      42.711 -14.680   7.732  1.00  0.00     0.164 HD
HETATM    6  H   UNL     1      41.636 -12.947   7.198  1.00  0.00     0.164 HD
ENDROOT
BRANCH   1   7
HETATM    7  C   UNL     1      44.512 -15.391   6.914  1.00  0.00     0.162 C 
BRANCH   7   8
HETATM    8  C   UNL     1      44.108 -16.830   6.720  1.00  0.00    -0.039 A 
HETATM    9  C   UNL     1      43.742 -17.292   5.444  1.00  0.00     0.032 A 
HETATM   10  C   UNL     1      43.469 -18.645   5.198  1.00  0.00     0.009 A 
HETATM   11  C   UNL     1      43.472 -19.525   6.283  1.00  0.00     0.023 A 
HETATM   12  C   UNL     1      43.825 -19.085   7.561  1.00  0.00     0.002 A 
HETATM   13  C   UNL     1      44.157 -17.748   7.776  1.00  0.00     0.009 A 
BRANCH  10  14
HETATM   14  N   UNL     1      43.085 -19.005   3.898  1.00  0.00    -0.289 NA
HETATM   15  H   UNL     1      42.292 -19.643   3.969  1.00  0.00     0.128 HD
BRANCH  14  16
HETATM   16  C   UNL     1      44.097 -19.544   2.973  1.00  0.00     0.052 C 
HETATM   17  C   UNL     1      43.434 -20.318   1.832  1.00  0.00     0.026 C 
HETATM   18  C   UNL     1      45.011 -20.485   3.761  1.00  0.00     0.026 C 
ENDBRANCH  14  16
ENDBRANCH  10  14
ENDBRANCH   7   8
ENDBRANCH   1   7
BRANCH   3  19
HETATM   19  C   UNL     1      41.382 -11.866   5.416  1.00  0.00     0.152 C 
BRANCH  19  20
HETATM   20  C   UNL     1      40.439 -12.132   4.223  1.00  0.00     0.255 C 
BRANCH  20  21
HETATM   21  N   UNL     1      40.944 -13.184   3.271  1.00  0.00    -0.065 N 
HETATM   22  H   UNL     1      41.951 -13.276   3.512  1.00  0.00     0.280 HD
HETATM   23  C   UNL     1      40.316 -14.546   3.441  1.00  0.00     0.274 C 
HETATM   24  C   UNL     1      40.715 -15.491   2.358  1.00  0.00    -0.019 A 
HETATM   25  C   UNL     1      41.361 -15.070   1.212  1.00  0.00    -0.008 A 
HETATM   26  C   UNL     1      40.483 -16.902   2.325  1.00  0.00     0.017 A 
HETATM   27  S   UNL     1      41.697 -16.335   0.131  1.00  0.00    -0.106 SA
HETATM   28  C   UNL     1      41.758 -13.656   0.937  1.00  0.00     0.074 C 
HETATM   29  C   UNL     1      40.965 -17.481   1.170  1.00  0.00     0.051 A 
HETATM   30  C   UNL     1      40.938 -12.707   1.825  1.00  0.00     0.240 C 
ENDBRANCH  20  21
ENDBRANCH  19  20
ENDBRANCH   3  19
TORSDOF 7
ENDMDL
