MODEL 1
REMARK VINA RESULT:      -7.8      0.000      0.000
REMARK  3 active torsions:
REMARK  status: ('A' for Active; 'I' for Inactive)
REMARK    1  A    between atoms: C_4  and  N_5 
REMARK       I    between atoms: N_5  and  C_6 
REMARK    2  A    between atoms: C_6  and  C_7 
REMARK    3  A    between atoms: C_7  and  C_8 
ROOT
HETATM    1  C   UNL     1      43.262 -15.800   3.020  1.00  0.00     0.286 C 
HETATM    2  N   UNL     1      42.310 -16.593   2.112  1.00  0.00    -0.056 N 
HETATM    3  H   UNL     1      42.886 -17.036   1.384  1.00  0.00     0.278 HD
HETATM    4  H   UNL     1      41.940 -17.414   2.641  1.00  0.00     0.278 HD
HETATM    5  C   UNL     1      41.193 -15.855   1.443  1.00  0.00     0.209 C 
HETATM    6  C   UNL     1      41.708 -14.502   0.904  1.00  0.00     0.115 C 
HETATM    7  N   UNL     1      42.402 -13.735   1.931  1.00  0.00    -0.353 N 
HETATM    8  C   UNL     1      43.236 -14.277   2.866  1.00  0.00     0.249 C 
HETATM    9  O   UNL     1      43.936 -13.547   3.559  1.00  0.00    -0.271 OA
HETATM   10  C   UNL     1      40.008 -15.715   2.399  1.00  0.00     0.035 C 
HETATM   11  C   UNL     1      38.888 -14.895   1.762  1.00  0.00     0.002 C 
HETATM   12  C   UNL     1      39.390 -13.537   1.277  1.00  0.00     0.002 C 
HETATM   13  C   UNL     1      40.561 -13.684   0.305  1.00  0.00     0.027 C 
HETATM   14  H   UNL     1      42.513 -12.729   1.815  1.00  0.00     0.163 HD
ENDROOT
BRANCH   1  15
HETATM   15  C   UNL     1      43.078 -16.185   4.493  1.00  0.00     0.146 C 
BRANCH  15  16
HETATM   16  C   UNL     1      42.989 -17.683   4.511  1.00  0.00     0.224 C 
HETATM   17  N   UNL     1      44.167 -18.326   4.222  1.00  0.00    -0.327 N 
HETATM   18  H   UNL     1      45.033 -17.794   4.264  1.00  0.00     0.169 HD
HETATM   19  O   UNL     1      41.859 -18.169   4.571  1.00  0.00    -0.273 OA
BRANCH  17  20
HETATM   20  C   UNL     1      44.312 -19.666   3.801  1.00  0.00     0.034 A 
HETATM   21  C   UNL     1      44.708 -20.709   4.643  1.00  0.00     0.029 A 
HETATM   22  C   UNL     1      44.759 -22.022   4.167  1.00  0.00     0.002 A 
HETATM   23  C   UNL     1      44.416 -22.303   2.848  1.00  0.00     0.000 A 
HETATM   24  C   UNL     1      44.036 -21.270   1.998  1.00  0.00     0.002 A 
HETATM   25  C   UNL     1      43.990 -19.956   2.469  1.00  0.00     0.029 A 
ENDBRANCH  17  20
ENDBRANCH  15  16
ENDBRANCH   1  15
TORSDOF 3
ENDMDL
MODEL 2
REMARK VINA RESULT:      -7.8      1.811      2.256
REMARK  3 active torsions:
REMARK  status: ('A' for Active; 'I' for Inactive)
REMARK    1  A    between atoms: C_4  and  N_5 
REMARK       I    between atoms: N_5  and  C_6 
REMARK    2  A    between atoms: C_6  and  C_7 
REMARK    3  A    between atoms: C_7  and  C_8 
ROOT
HETATM    1  C   UNL     1      41.062 -16.638   3.445  1.00  0.00     0.286 C 
HETATM    2  N   UNL     1      40.248 -15.485   4.054  1.00  0.00    -0.056 N 
HETATM    3  H   UNL     1      39.485 -15.910   4.598  1.00  0.00     0.278 HD
HETATM    4  H   UNL     1      40.820 -15.016   4.789  1.00  0.00     0.278 HD
HETATM    5  C   UNL     1      39.655 -14.472   3.125  1.00  0.00     0.209 C 
HETATM    6  C   UNL     1      39.051 -15.181   1.892  1.00  0.00     0.115 C 
HETATM    7  N   UNL     1      40.005 -16.085   1.262  1.00  0.00    -0.353 N 
HETATM    8  C   UNL     1      40.882 -16.878   1.944  1.00  0.00     0.249 C 
HETATM    9  O   UNL     1      41.503 -17.755   1.353  1.00  0.00    -0.271 OA
HETATM   10  C   UNL     1      40.699 -13.415   2.765  1.00  0.00     0.035 C 
HETATM   11  C   UNL     1      40.137 -12.416   1.755  1.00  0.00     0.002 C 
HETATM   12  C   UNL     1      39.588 -13.117   0.515  1.00  0.00     0.002 C 
HETATM   13  C   UNL     1      38.530 -14.159   0.879  1.00  0.00     0.027 C 
HETATM   14  H   UNL     1      39.861 -16.369   0.294  1.00  0.00     0.163 HD
ENDROOT
BRANCH   1  15
HETATM   15  C   UNL     1      42.552 -16.506   3.783  1.00  0.00     0.146 C 
BRANCH  15  16
HETATM   16  C   UNL     1      42.975 -17.858   4.279  1.00  0.00     0.224 C 
HETATM   17  N   UNL     1      43.918 -18.480   3.498  1.00  0.00    -0.327 N 
HETATM   18  H   UNL     1      44.431 -17.922   2.820  1.00  0.00     0.169 HD
HETATM   19  O   UNL     1      42.303 -18.350   5.186  1.00  0.00    -0.273 OA
BRANCH  17  20
HETATM   20  C   UNL     1      44.223 -19.859   3.485  1.00  0.00     0.034 A 
HETATM   21  C   UNL     1      44.745 -20.552   4.580  1.00  0.00     0.029 A 
HETATM   22  C   UNL     1      44.953 -21.932   4.511  1.00  0.00     0.002 A 
HETATM   23  C   UNL     1      44.642 -22.630   3.348  1.00  0.00     0.000 A 
HETATM   24  C   UNL     1      44.136 -21.947   2.247  1.00  0.00     0.002 A 
HETATM   25  C   UNL     1      43.933 -20.567   2.312  1.00  0.00     0.029 A 
ENDBRANCH  17  20
ENDBRANCH  15  16
ENDBRANCH   1  15
TORSDOF 3
ENDMDL
MODEL 3
REMARK VINA RESULT:      -7.6      2.500      3.276
REMARK  3 active torsions:
REMARK  status: ('A' for Active; 'I' for Inactive)
REMARK    1  A    between atoms: C_4  and  N_5 
REMARK       I    between atoms: N_5  and  C_6 
REMARK    2  A    between atoms: C_6  and  C_7 
REMARK    3  A    between atoms: C_7  and  C_8 
ROOT
HETATM    1  C   UNL     1      42.339 -16.109   3.741  1.00  0.00     0.286 C 
HETATM    2  N   UNL     1      42.849 -15.292   4.938  1.00  0.00    -0.056 N 
HETATM    3  H   UNL     1      42.980 -15.949   5.718  1.00  0.00     0.278 HD
HETATM    4  H   UNL     1      43.823 -14.972   4.742  1.00  0.00     0.278 HD
HETATM    5  C   UNL     1      42.011 -14.149   5.422  1.00  0.00     0.209 C 
HETATM    6  C   UNL     1      40.522 -14.563   5.440  1.00  0.00     0.115 C 
HETATM    7  N   UNL     1      40.095 -15.118   4.162  1.00  0.00    -0.353 N 
HETATM    8  C   UNL     1      40.858 -15.945   3.388  1.00  0.00     0.249 C 
HETATM    9  O   UNL     1      40.354 -16.531   2.436  1.00  0.00    -0.271 OA
HETATM   10  C   UNL     1      42.284 -12.903   4.579  1.00  0.00     0.035 C 
HETATM   11  C   UNL     1      41.380 -11.748   5.006  1.00  0.00     0.002 C 
HETATM   12  C   UNL     1      39.906 -12.144   4.973  1.00  0.00     0.002 C 
HETATM   13  C   UNL     1      39.635 -13.378   5.834  1.00  0.00     0.027 C 
HETATM   14  H   UNL     1      39.103 -15.139   3.931  1.00  0.00     0.163 HD
ENDROOT
BRANCH   1  15
HETATM   15  C   UNL     1      43.206 -15.878   2.499  1.00  0.00     0.146 C 
BRANCH  15  16
HETATM   16  C   UNL     1      43.673 -17.239   2.072  1.00  0.00     0.224 C 
HETATM   17  N   UNL     1      43.169 -18.274   2.820  1.00  0.00    -0.327 N 
HETATM   18  H   UNL     1      42.363 -18.095   3.413  1.00  0.00     0.169 HD
HETATM   19  O   UNL     1      44.597 -17.276   1.258  1.00  0.00    -0.273 OA
BRANCH  17  20
HETATM   20  C   UNL     1      43.695 -19.581   2.909  1.00  0.00     0.034 A 
HETATM   21  C   UNL     1      44.417 -20.059   4.005  1.00  0.00     0.029 A 
HETATM   22  C   UNL     1      44.842 -21.389   4.047  1.00  0.00     0.002 A 
HETATM   23  C   UNL     1      44.551 -22.252   2.995  1.00  0.00     0.000 A 
HETATM   24  C   UNL     1      43.846 -21.782   1.892  1.00  0.00     0.002 A 
HETATM   25  C   UNL     1      43.425 -20.451   1.844  1.00  0.00     0.029 A 
ENDBRANCH  17  20
ENDBRANCH  15  16
ENDBRANCH   1  15
TORSDOF 3
ENDMDL
MODEL 4
REMARK VINA RESULT:      -7.5      2.054      2.467
REMARK  3 active torsions:
REMARK  status: ('A' for Active; 'I' for Inactive)
REMARK    1  A    between atoms: C_4  and  N_5 
REMARK       I    between atoms: N_5  and  C_6 
REMARK    2  A    between atoms: C_6  and  C_7 
REMARK    3  A    between atoms: C_7  and  C_8 
ROOT
HETATM    1  C   UNL     1      42.434 -15.349   3.785  1.00  0.00     0.286 C 
HETATM    2  N   UNL     1      40.917 -15.556   3.911  1.00  0.00    -0.056 N 
HETATM    3  H   UNL     1      40.596 -15.981   3.031  1.00  0.00     0.278 HD
HETATM    4  H   UNL     1      40.732 -16.310   4.609  1.00  0.00     0.278 HD
HETATM    5  C   UNL     1      40.062 -14.360   4.194  1.00  0.00     0.209 C 
HETATM    6  C   UNL     1      40.537 -13.163   3.340  1.00  0.00     0.115 C 
HETATM    7  N   UNL     1      41.966 -12.924   3.486  1.00  0.00    -0.353 N 
HETATM    8  C   UNL     1      42.908 -13.909   3.574  1.00  0.00     0.249 C 
HETATM    9  O   UNL     1      44.098 -13.628   3.487  1.00  0.00    -0.271 OA
HETATM   10  C   UNL     1      40.048 -14.068   5.695  1.00  0.00     0.035 C 
HETATM   11  C   UNL     1      39.245 -12.803   5.995  1.00  0.00     0.002 C 
HETATM   12  C   UNL     1      39.750 -11.610   5.188  1.00  0.00     0.002 C 
HETATM   13  C   UNL     1      39.742 -11.901   3.688  1.00  0.00     0.027 C 
HETATM   14  H   UNL     1      42.349 -12.011   3.243  1.00  0.00     0.163 HD
ENDROOT
BRANCH   1  15
HETATM   15  C   UNL     1      43.182 -15.983   4.964  1.00  0.00     0.146 C 
BRANCH  15  16
HETATM   16  C   UNL     1      43.016 -17.465   4.799  1.00  0.00     0.224 C 
HETATM   17  N   UNL     1      44.072 -18.091   4.183  1.00  0.00    -0.327 N 
HETATM   18  H   UNL     1      44.956 -17.593   4.113  1.00  0.00     0.169 HD
HETATM   19  O   UNL     1      41.897 -17.926   5.030  1.00  0.00    -0.273 OA
BRANCH  17  20
HETATM   20  C   UNL     1      44.053 -19.360   3.565  1.00  0.00     0.034 A 
HETATM   21  C   UNL     1      43.503 -19.606   2.305  1.00  0.00     0.029 A 
HETATM   22  C   UNL     1      43.587 -20.877   1.731  1.00  0.00     0.002 A 
HETATM   23  C   UNL     1      44.220 -21.913   2.411  1.00  0.00     0.000 A 
HETATM   24  C   UNL     1      44.758 -21.682   3.673  1.00  0.00     0.002 A 
HETATM   25  C   UNL     1      44.670 -20.414   4.252  1.00  0.00     0.029 A 
ENDBRANCH  17  20
ENDBRANCH  15  16
ENDBRANCH   1  15
TORSDOF 3
ENDMDL
MODEL 5
REMARK VINA RESULT:      -7.5      1.691      2.490
REMARK  3 active torsions:
REMARK  status: ('A' for Active; 'I' for Inactive)
REMARK    1  A    between atoms: C_4  and  N_5 
REMARK       I    between atoms: N_5  and  C_6 
REMARK    2  A    between atoms: C_6  and  C_7 
REMARK    3  A    between atoms: C_7  and  C_8 
ROOT
HETATM    1  C   UNL     1      41.199 -16.391   2.882  1.00  0.00     0.286 C 
HETATM    2  N   UNL     1      40.281 -15.510   3.743  1.00  0.00    -0.056 N 
HETATM    3  H   UNL     1      39.617 -16.138   4.216  1.00  0.00     0.278 HD
HETATM    4  H   UNL     1      40.832 -15.118   4.538  1.00  0.00     0.278 HD
HETATM    5  C   UNL     1      39.500 -14.428   3.064  1.00  0.00     0.209 C 
HETATM    6  C   UNL     1      38.917 -14.958   1.735  1.00  0.00     0.115 C 
HETATM    7  N   UNL     1      39.939 -15.573   0.899  1.00  0.00    -0.353 N 
HETATM    8  C   UNL     1      40.955 -16.353   1.371  1.00  0.00     0.249 C 
HETATM    9  O   UNL     1      41.647 -16.997   0.590  1.00  0.00    -0.271 OA
HETATM   10  C   UNL     1      40.370 -13.182   2.891  1.00  0.00     0.035 C 
HETATM   11  C   UNL     1      39.616 -12.095   2.128  1.00  0.00     0.002 C 
HETATM   12  C   UNL     1      39.085 -12.607   0.792  1.00  0.00     0.002 C 
HETATM   13  C   UNL     1      38.200 -13.840   0.973  1.00  0.00     0.027 C 
HETATM   14  H   UNL     1      39.772 -15.678  -0.101  1.00  0.00     0.163 HD
ENDROOT
BRANCH   1  15
HETATM   15  C   UNL     1      42.677 -16.118   3.185  1.00  0.00     0.146 C 
BRANCH  15  16
HETATM   16  C   UNL     1      43.233 -17.417   3.692  1.00  0.00     0.224 C 
HETATM   17  N   UNL     1      43.709 -18.252   2.712  1.00  0.00    -0.327 N 
HETATM   18  H   UNL     1      43.884 -17.866   1.788  1.00  0.00     0.169 HD
HETATM   19  O   UNL     1      43.019 -17.685   4.875  1.00  0.00    -0.273 OA
BRANCH  17  20
HETATM   20  C   UNL     1      43.932 -19.642   2.827  1.00  0.00     0.034 A 
HETATM   21  C   UNL     1      43.592 -20.572   1.841  1.00  0.00     0.029 A 
HETATM   22  C   UNL     1      43.911 -21.922   2.001  1.00  0.00     0.002 A 
HETATM   23  C   UNL     1      44.571 -22.356   3.147  1.00  0.00     0.000 A 
HETATM   24  C   UNL     1      44.900 -21.441   4.142  1.00  0.00     0.002 A 
HETATM   25  C   UNL     1      44.577 -20.091   3.987  1.00  0.00     0.029 A 
ENDBRANCH  17  20
ENDBRANCH  15  16
ENDBRANCH   1  15
TORSDOF 3
ENDMDL
MODEL 6
REMARK VINA RESULT:      -7.4      2.768      3.290
REMARK  3 active torsions:
REMARK  status: ('A' for Active; 'I' for Inactive)
REMARK    1  A    between atoms: C_4  and  N_5 
REMARK       I    between atoms: N_5  and  C_6 
REMARK    2  A    between atoms: C_6  and  C_7 
REMARK    3  A    between atoms: C_7  and  C_8 
ROOT
HETATM    1  C   UNL     1      43.926 -15.801   5.993  1.00  0.00     0.286 C 
HETATM    2  N   UNL     1      42.946 -15.774   4.810  1.00  0.00    -0.056 N 
HETATM    3  H   UNL     1      43.511 -15.721   3.952  1.00  0.00     0.278 HD
HETATM    4  H   UNL     1      42.489 -16.708   4.725  1.00  0.00     0.278 HD
HETATM    5  C   UNL     1      41.921 -14.684   4.766  1.00  0.00     0.209 C 
HETATM    6  C   UNL     1      42.568 -13.340   5.170  1.00  0.00     0.115 C 
HETATM    7  N   UNL     1      43.283 -13.438   6.435  1.00  0.00    -0.353 N 
HETATM    8  C   UNL     1      44.032 -14.514   6.816  1.00  0.00     0.249 C 
HETATM    9  O   UNL     1      44.764 -14.435   7.797  1.00  0.00    -0.271 OA
HETATM   10  C   UNL     1      40.716 -15.060   5.629  1.00  0.00     0.035 C 
HETATM   11  C   UNL     1      39.694 -13.925   5.661  1.00  0.00     0.002 C 
HETATM   12  C   UNL     1      40.326 -12.610   6.110  1.00  0.00     0.002 C 
HETATM   13  C   UNL     1      41.517 -12.229   5.231  1.00  0.00     0.027 C 
HETATM   14  H   UNL     1      43.483 -12.590   6.965  1.00  0.00     0.163 HD
ENDROOT
BRANCH   1  15
HETATM   15  C   UNL     1      43.653 -16.995   6.915  1.00  0.00     0.146 C 
BRANCH  15  16
HETATM   16  C   UNL     1      43.214 -18.111   6.012  1.00  0.00     0.224 C 
HETATM   17  N   UNL     1      44.235 -18.726   5.330  1.00  0.00    -0.327 N 
HETATM   18  H   UNL     1      45.189 -18.575   5.647  1.00  0.00     0.169 HD
HETATM   19  O   UNL     1      42.003 -18.220   5.817  1.00  0.00    -0.273 OA
BRANCH  17  20
HETATM   20  C   UNL     1      44.112 -19.518   4.168  1.00  0.00     0.034 A 
HETATM   21  C   UNL     1      43.566 -19.060   2.966  1.00  0.00     0.029 A 
HETATM   22  C   UNL     1      43.545 -19.884   1.838  1.00  0.00     0.002 A 
HETATM   23  C   UNL     1      44.067 -21.172   1.902  1.00  0.00     0.000 A 
HETATM   24  C   UNL     1      44.599 -21.644   3.098  1.00  0.00     0.002 A 
HETATM   25  C   UNL     1      44.616 -20.824   4.228  1.00  0.00     0.029 A 
ENDBRANCH  17  20
ENDBRANCH  15  16
ENDBRANCH   1  15
TORSDOF 3
ENDMDL
MODEL 7
REMARK VINA RESULT:      -7.2      2.427      6.696
REMARK  3 active torsions:
REMARK  status: ('A' for Active; 'I' for Inactive)
REMARK    1  A    between atoms: C_4  and  N_5 
REMARK       I    between atoms: N_5  and  C_6 
REMARK    2  A    between atoms: C_6  and  C_7 
REMARK    3  A    between atoms: C_7  and  C_8 
ROOT
HETATM    1  C   UNL     1      42.338 -16.310   2.850  1.00  0.00     0.286 C 
HETATM    2  N   UNL     1      41.949 -17.638   3.517  1.00  0.00    -0.056 N 
HETATM    3  H   UNL     1      40.947 -17.578   3.744  1.00  0.00     0.278 HD
HETATM    4  H   UNL     1      41.976 -18.399   2.803  1.00  0.00     0.278 HD
HETATM    5  C   UNL     1      42.687 -18.051   4.752  1.00  0.00     0.209 C 
HETATM    6  C   UNL     1      42.879 -16.831   5.680  1.00  0.00     0.115 C 
HETATM    7  N   UNL     1      43.473 -15.701   4.979  1.00  0.00    -0.353 N 
HETATM    8  C   UNL     1      43.165 -15.340   3.698  1.00  0.00     0.249 C 
HETATM    9  O   UNL     1      43.552 -14.264   3.255  1.00  0.00    -0.271 OA
HETATM   10  C   UNL     1      43.999 -18.739   4.375  1.00  0.00     0.035 C 
HETATM   11  C   UNL     1      44.804 -19.097   5.623  1.00  0.00     0.002 C 
HETATM   12  C   UNL     1      45.036 -17.879   6.512  1.00  0.00     0.002 C 
HETATM   13  C   UNL     1      43.720 -17.207   6.903  1.00  0.00     0.027 C 
HETATM   14  H   UNL     1      43.934 -14.966   5.513  1.00  0.00     0.163 HD
ENDROOT
BRANCH   1  15
HETATM   15  C   UNL     1      43.025 -16.546   1.499  1.00  0.00     0.146 C 
BRANCH  15  16
HETATM   16  C   UNL     1      41.918 -16.604   0.487  1.00  0.00     0.224 C 
HETATM   17  N   UNL     1      41.981 -15.632  -0.481  1.00  0.00    -0.327 N 
HETATM   18  H   UNL     1      42.854 -15.124  -0.601  1.00  0.00     0.169 HD
HETATM   19  O   UNL     1      40.978 -17.358   0.739  1.00  0.00    -0.273 OA
BRANCH  17  20
HETATM   20  C   UNL     1      40.923 -15.203  -1.311  1.00  0.00     0.034 A 
HETATM   21  C   UNL     1      39.948 -14.282  -0.920  1.00  0.00     0.029 A 
HETATM   22  C   UNL     1      38.974 -13.855  -1.826  1.00  0.00     0.002 A 
HETATM   23  C   UNL     1      38.965 -14.344  -3.129  1.00  0.00     0.000 A 
HETATM   24  C   UNL     1      39.922 -15.272  -3.524  1.00  0.00     0.002 A 
HETATM   25  C   UNL     1      40.894 -15.706  -2.619  1.00  0.00     0.029 A 
ENDBRANCH  17  20
ENDBRANCH  15  16
ENDBRANCH   1  15
TORSDOF 3
ENDMDL
MODEL 8
REMARK VINA RESULT:      -7.2      2.668      3.950
REMARK  3 active torsions:
REMARK  status: ('A' for Active; 'I' for Inactive)
REMARK    1  A    between atoms: C_4  and  N_5 
REMARK       I    between atoms: N_5  and  C_6 
REMARK    2  A    between atoms: C_6  and  C_7 
REMARK    3  A    between atoms: C_7  and  C_8 
ROOT
HETATM    1  C   UNL     1      41.271 -15.624   0.774  1.00  0.00     0.286 C 
HETATM    2  N   UNL     1      41.974 -15.145  -0.506  1.00  0.00    -0.056 N 
HETATM    3  H   UNL     1      42.620 -14.393  -0.231  1.00  0.00     0.278 HD
HETATM    4  H   UNL     1      42.621 -15.892  -0.840  1.00  0.00     0.278 HD
HETATM    5  C   UNL     1      41.125 -14.646  -1.634  1.00  0.00     0.209 C 
HETATM    6  C   UNL     1      39.992 -13.753  -1.080  1.00  0.00     0.115 C 
HETATM    7  N   UNL     1      39.246 -14.415  -0.018  1.00  0.00    -0.353 N 
HETATM    8  C   UNL     1      39.810 -15.200   0.946  1.00  0.00     0.249 C 
HETATM    9  O   UNL     1      39.147 -15.550   1.917  1.00  0.00    -0.271 OA
HETATM   10  C   UNL     1      40.618 -15.821  -2.470  1.00  0.00     0.035 C 
HETATM   11  C   UNL     1      39.684 -15.337  -3.578  1.00  0.00     0.002 C 
HETATM   12  C   UNL     1      38.537 -14.498  -3.023  1.00  0.00     0.002 C 
HETATM   13  C   UNL     1      39.050 -13.313  -2.205  1.00  0.00     0.027 C 
HETATM   14  H   UNL     1      38.309 -14.088   0.215  1.00  0.00     0.163 HD
ENDROOT
BRANCH   1  15
HETATM   15  C   UNL     1      41.403 -17.142   0.945  1.00  0.00     0.146 C 
BRANCH  15  16
HETATM   16  C   UNL     1      42.634 -17.350   1.779  1.00  0.00     0.224 C 
HETATM   17  N   UNL     1      42.400 -17.918   3.007  1.00  0.00    -0.327 N 
HETATM   18  H   UNL     1      41.505 -18.373   3.168  1.00  0.00     0.169 HD
HETATM   19  O   UNL     1      43.668 -16.812   1.380  1.00  0.00    -0.273 OA
BRANCH  17  20
HETATM   20  C   UNL     1      43.263 -17.889   4.124  1.00  0.00     0.034 A 
HETATM   21  C   UNL     1      43.325 -16.831   5.035  1.00  0.00     0.029 A 
HETATM   22  C   UNL     1      44.154 -16.910   6.156  1.00  0.00     0.002 A 
HETATM   23  C   UNL     1      44.930 -18.045   6.376  1.00  0.00     0.000 A 
HETATM   24  C   UNL     1      44.887 -19.097   5.468  1.00  0.00     0.002 A 
HETATM   25  C   UNL     1      44.063 -19.018   4.343  1.00  0.00     0.029 A 
ENDBRANCH  17  20
ENDBRANCH  15  16
ENDBRANCH   1  15
TORSDOF 3
ENDMDL
MODEL 9
REMARK VINA RESULT:      -7.0      4.327      6.955
REMARK  3 active torsions:
REMARK  status: ('A' for Active; 'I' for Inactive)
REMARK    1  A    between atoms: C_4  and  N_5 
REMARK       I    between atoms: N_5  and  C_6 
REMARK    2  A    between atoms: C_6  and  C_7 
REMARK    3  A    between atoms: C_7  and  C_8 
ROOT
HETATM    1  C   UNL     1      42.086 -15.070   5.175  1.00  0.00     0.286 C 
HETATM    2  N   UNL     1      42.690 -14.667   3.821  1.00  0.00    -0.056 N 
HETATM    3  H   UNL     1      42.235 -13.789   3.537  1.00  0.00     0.278 HD
HETATM    4  H   UNL     1      43.682 -14.375   3.963  1.00  0.00     0.278 HD
HETATM    5  C   UNL     1      42.588 -15.637   2.685  1.00  0.00     0.209 C 
HETATM    6  C   UNL     1      41.179 -16.270   2.663  1.00  0.00     0.115 C 
HETATM    7  N   UNL     1      40.811 -16.826   3.958  1.00  0.00    -0.353 N 
HETATM    8  C   UNL     1      41.103 -16.243   5.158  1.00  0.00     0.249 C 
HETATM    9  O   UNL     1      40.583 -16.663   6.186  1.00  0.00    -0.271 OA
HETATM   10  C   UNL     1      43.715 -16.666   2.770  1.00  0.00     0.035 C 
HETATM   11  C   UNL     1      43.581 -17.712   1.665  1.00  0.00     0.002 C 
HETATM   12  C   UNL     1      42.205 -18.373   1.678  1.00  0.00     0.002 C 
HETATM   13  C   UNL     1      41.083 -17.341   1.572  1.00  0.00     0.027 C 
HETATM   14  H   UNL     1      40.074 -17.528   4.011  1.00  0.00     0.163 HD
ENDROOT
BRANCH   1  15
HETATM   15  C   UNL     1      43.180 -15.314   6.221  1.00  0.00     0.146 C 
BRANCH  15  16
HETATM   16  C   UNL     1      43.611 -13.952   6.681  1.00  0.00     0.224 C 
HETATM   17  N   UNL     1      44.545 -13.961   7.688  1.00  0.00    -0.327 N 
HETATM   18  H   UNL     1      45.049 -14.824   7.874  1.00  0.00     0.169 HD
HETATM   19  O   UNL     1      42.951 -12.996   6.273  1.00  0.00    -0.273 OA
BRANCH  17  20
HETATM   20  C   UNL     1      44.851 -12.893   8.559  1.00  0.00     0.034 A 
HETATM   21  C   UNL     1      44.079 -12.547   9.671  1.00  0.00     0.029 A 
HETATM   22  C   UNL     1      44.488 -11.522  10.526  1.00  0.00     0.002 A 
HETATM   23  C   UNL     1      45.672 -10.832  10.278  1.00  0.00     0.000 A 
HETATM   24  C   UNL     1      46.441 -11.159   9.166  1.00  0.00     0.002 A 
HETATM   25  C   UNL     1      46.030 -12.180   8.306  1.00  0.00     0.029 A 
ENDBRANCH  17  20
ENDBRANCH  15  16
ENDBRANCH   1  15
TORSDOF 3
ENDMDL
MODEL 10
REMARK VINA RESULT:      -6.9      2.511      3.664
REMARK  3 active torsions:
REMARK  status: ('A' for Active; 'I' for Inactive)
REMARK    1  A    between atoms: C_4  and  N_5 
REMARK       I    between atoms: N_5  and  C_6 
REMARK    2  A    between atoms: C_6  and  C_7 
REMARK    3  A    between atoms: C_7  and  C_8 
ROOT
HETATM    1  C   UNL     1      41.660 -14.835   0.202  1.00  0.00     0.286 C 
HETATM    2  N   UNL     1      41.179 -15.640  -1.015  1.00  0.00    -0.056 N 
HETATM    3  H   UNL     1      41.949 -16.265  -1.287  1.00  0.00     0.278 HD
HETATM    4  H   UNL     1      40.438 -16.309  -0.709  1.00  0.00     0.278 HD
HETATM    5  C   UNL     1      40.734 -14.887  -2.230  1.00  0.00     0.209 C 
HETATM    6  C   UNL     1      41.705 -13.717  -2.504  1.00  0.00     0.115 C 
HETATM    7  N   UNL     1      41.903 -12.885  -1.324  1.00  0.00    -0.353 N 
HETATM    8  C   UNL     1      42.012 -13.367  -0.051  1.00  0.00     0.249 C 
HETATM    9  O   UNL     1      42.382 -12.627   0.854  1.00  0.00    -0.271 OA
HETATM   10  C   UNL     1      39.279 -14.444  -2.070  1.00  0.00     0.035 C 
HETATM   11  C   UNL     1      38.832 -13.604  -3.266  1.00  0.00     0.002 C 
HETATM   12  C   UNL     1      39.764 -12.419  -3.503  1.00  0.00     0.002 C 
HETATM   13  C   UNL     1      41.214 -12.870  -3.682  1.00  0.00     0.027 C 
HETATM   14  H   UNL     1      42.251 -11.934  -1.435  1.00  0.00     0.163 HD
ENDROOT
BRANCH   1  15
HETATM   15  C   UNL     1      40.673 -14.947   1.369  1.00  0.00     0.146 C 
BRANCH  15  16
HETATM   16  C   UNL     1      40.938 -16.284   1.997  1.00  0.00     0.224 C 
HETATM   17  N   UNL     1      42.201 -16.428   2.516  1.00  0.00    -0.327 N 
HETATM   18  H   UNL     1      42.761 -15.592   2.667  1.00  0.00     0.169 HD
HETATM   19  O   UNL     1      40.098 -17.163   1.802  1.00  0.00    -0.273 OA
BRANCH  17  20
HETATM   20  C   UNL     1      42.854 -17.643   2.816  1.00  0.00     0.034 A 
HETATM   21  C   UNL     1      43.227 -18.586   1.854  1.00  0.00     0.029 A 
HETATM   22  C   UNL     1      43.934 -19.733   2.224  1.00  0.00     0.002 A 
HETATM   23  C   UNL     1      44.272 -19.949   3.557  1.00  0.00     0.000 A 
HETATM   24  C   UNL     1      43.892 -19.024   4.524  1.00  0.00     0.002 A 
HETATM   25  C   UNL     1      43.180 -17.880   4.158  1.00  0.00     0.029 A 
ENDBRANCH  17  20
ENDBRANCH  15  16
ENDBRANCH   1  15
TORSDOF 3
ENDMDL
