MODEL 1
REMARK VINA RESULT:      -7.2      0.000      0.000
REMARK  8 active torsions:
REMARK  status: ('A' for Active; 'I' for Inactive)
REMARK    1  A    between atoms: C_2  and  C_3 
REMARK    2  A    between atoms: C_3  and  N_4 
REMARK    3  A    between atoms: C_7  and  C_8 
REMARK       I    between atoms: C_8  and  N_9 
REMARK    4  A    between atoms: N_9  and  C_10 
REMARK    5  A    between atoms: C_13  and  O_14 
REMARK    6  A    between atoms: O_14  and  C_15 
REMARK    7  A    between atoms: C_15  and  C_16 
REMARK       I    between atoms: C_16  and  N_17 
REMARK    8  A    between atoms: C_23  and  C_24 
ROOT
HETATM    1  C   UNL     1      43.479 -16.511   7.415  1.00  0.00     0.259 C 
HETATM    2  N   UNL     1      43.100 -15.242   7.053  1.00  0.00    -0.323 N 
HETATM    3  O   UNL     1      43.416 -16.781   8.617  1.00  0.00    -0.267 OA
HETATM    4  H   UNL     1      42.905 -14.707   7.892  1.00  0.00     0.169 HD
ENDROOT
BRANCH   2   5
HETATM    5  C   UNL     1      42.857 -14.582   5.840  1.00  0.00     0.035 A 
HETATM    6  C   UNL     1      41.726 -13.823   5.543  1.00  0.00     0.032 A 
HETATM    7  C   UNL     1      41.622 -13.170   4.306  1.00  0.00     0.039 A 
HETATM    8  C   UNL     1      42.662 -13.243   3.381  1.00  0.00     0.069 A 
HETATM    9  C   UNL     1      43.786 -14.011   3.656  1.00  0.00     0.039 A 
HETATM   10  C   UNL     1      43.883 -14.668   4.884  1.00  0.00     0.032 A 
BRANCH   8  11
HETATM   11  O   UNL     1      42.518 -12.579   2.194  1.00  0.00    -0.342 OA
BRANCH  11  12
HETATM   12  C   UNL     1      41.336 -12.984   1.498  1.00  0.00     0.278 C 
BRANCH  12  13
HETATM   13  C   UNL     1      41.575 -14.109   0.488  1.00  0.00     0.241 C 
HETATM   14  N   UNL     1      41.312 -15.371   0.975  1.00  0.00    -0.364 N 
HETATM   15  C   UNL     1      41.525 -16.548   0.173  1.00  0.00     0.149 C 
HETATM   16  H   UNL     1      41.204 -15.464   1.980  1.00  0.00     0.161 HD
HETATM   17  O   UNL     1      41.925 -13.888  -0.668  1.00  0.00    -0.271 OA
ENDBRANCH  12  13
ENDBRANCH  11  12
ENDBRANCH   8  11
ENDBRANCH   2   5
BRANCH   1  18
HETATM   18  C   UNL     1      44.065 -17.441   6.478  1.00  0.00     0.076 C 
HETATM   19  C   UNL     1      45.433 -17.785   6.390  1.00  0.00     0.158 C 
HETATM   20  N   UNL     1      45.662 -18.812   5.572  1.00  0.00    -0.183 NA
HETATM   21  N   UNL     1      44.424 -19.210   5.210  1.00  0.00    -0.268 N 
HETATM   22  C   UNL     1      43.440 -18.332   5.615  1.00  0.00     0.052 C 
BRANCH  21  23
HETATM   23  C   UNL     1      44.243 -20.477   4.497  1.00  0.00     0.106 C 
HETATM   24  C   UNL     1      44.865 -21.676   5.225  1.00  0.00     0.034 C 
BRANCH  23  25
HETATM   25  C   UNL     1      44.667 -20.398   3.019  1.00  0.00     0.022 C 
HETATM   26  C   UNL     1      43.557 -20.035   2.045  1.00  0.00     0.007 C 
ENDBRANCH  23  25
ENDBRANCH  21  23
BRANCH  22  27
HETATM   27  C   UNL     1      41.983 -18.403   5.148  1.00  0.00     0.038 A 
HETATM   28  C   UNL     1      40.964 -17.312   5.332  1.00  0.00     0.011 A 
HETATM   29  C   UNL     1      41.604 -17.488   3.999  1.00  0.00     0.011 A 
ENDBRANCH  22  27
ENDBRANCH   1  18
TORSDOF 8
ENDMDL
MODEL 2
REMARK VINA RESULT:      -7.0      3.038      7.910
REMARK  8 active torsions:
REMARK  status: ('A' for Active; 'I' for Inactive)
REMARK    1  A    between atoms: C_2  and  C_3 
REMARK    2  A    between atoms: C_3  and  N_4 
REMARK    3  A    between atoms: C_7  and  C_8 
REMARK       I    between atoms: C_8  and  N_9 
REMARK    4  A    between atoms: N_9  and  C_10 
REMARK    5  A    between atoms: C_13  and  O_14 
REMARK    6  A    between atoms: O_14  and  C_15 
REMARK    7  A    between atoms: C_15  and  C_16 
REMARK       I    between atoms: C_16  and  N_17 
REMARK    8  A    between atoms: C_23  and  C_24 
ROOT
HETATM    1  C   UNL     1      39.281 -14.837   1.440  1.00  0.00     0.259 C 
HETATM    2  N   UNL     1      39.493 -16.035   2.074  1.00  0.00    -0.323 N 
HETATM    3  O   UNL     1      38.176 -14.315   1.608  1.00  0.00    -0.267 OA
HETATM    4  H   UNL     1      38.630 -16.327   2.520  1.00  0.00     0.169 HD
ENDROOT
BRANCH   2   5
HETATM    5  C   UNL     1      40.602 -16.863   2.297  1.00  0.00     0.035 A 
HETATM    6  C   UNL     1      41.360 -17.486   1.307  1.00  0.00     0.032 A 
HETATM    7  C   UNL     1      42.481 -18.254   1.658  1.00  0.00     0.039 A 
HETATM    8  C   UNL     1      42.866 -18.370   2.992  1.00  0.00     0.069 A 
HETATM    9  C   UNL     1      42.110 -17.770   3.990  1.00  0.00     0.039 A 
HETATM   10  C   UNL     1      40.990 -17.015   3.640  1.00  0.00     0.032 A 
BRANCH   8  11
HETATM   11  O   UNL     1      43.972 -19.120   3.282  1.00  0.00    -0.342 OA
BRANCH  11  12
HETATM   12  C   UNL     1      44.122 -20.220   2.379  1.00  0.00     0.278 C 
BRANCH  12  13
HETATM   13  C   UNL     1      44.527 -21.525   3.066  1.00  0.00     0.241 C 
HETATM   14  N   UNL     1      44.781 -21.400   4.415  1.00  0.00    -0.364 N 
HETATM   15  C   UNL     1      45.216 -22.520   5.208  1.00  0.00     0.149 C 
HETATM   16  H   UNL     1      44.893 -20.458   4.777  1.00  0.00     0.161 HD
HETATM   17  O   UNL     1      44.571 -22.596   2.465  1.00  0.00    -0.271 OA
ENDBRANCH  12  13
ENDBRANCH  11  12
ENDBRANCH   8  11
ENDBRANCH   2   5
BRANCH   1  18
HETATM   18  C   UNL     1      40.229 -14.276   0.505  1.00  0.00     0.076 C 
HETATM   19  C   UNL     1      40.186 -14.402  -0.902  1.00  0.00     0.158 C 
HETATM   20  N   UNL     1      41.069 -13.621  -1.524  1.00  0.00    -0.183 NA
HETATM   21  N   UNL     1      41.616 -12.901  -0.521  1.00  0.00    -0.268 N 
HETATM   22  C   UNL     1      41.246 -13.357   0.728  1.00  0.00     0.052 C 
BRANCH  21  23
HETATM   23  C   UNL     1      42.468 -11.750  -0.829  1.00  0.00     0.106 C 
HETATM   24  C   UNL     1      41.873 -10.415  -0.363  1.00  0.00     0.034 C 
BRANCH  23  25
HETATM   25  C   UNL     1      42.918 -11.717  -2.301  1.00  0.00     0.022 C 
HETATM   26  C   UNL     1      42.538 -10.457  -3.066  1.00  0.00     0.007 C 
ENDBRANCH  23  25
ENDBRANCH  21  23
BRANCH  22  27
HETATM   27  C   UNL     1      41.890 -12.888   2.035  1.00  0.00     0.038 A 
HETATM   28  C   UNL     1      41.551 -13.417   3.402  1.00  0.00     0.011 A 
HETATM   29  C   UNL     1      42.794 -13.887   2.731  1.00  0.00     0.011 A 
ENDBRANCH  22  27
ENDBRANCH   1  18
TORSDOF 8
ENDMDL
MODEL 3
REMARK VINA RESULT:      -6.8      1.939      3.121
REMARK  8 active torsions:
REMARK  status: ('A' for Active; 'I' for Inactive)
REMARK    1  A    between atoms: C_2  and  C_3 
REMARK    2  A    between atoms: C_3  and  N_4 
REMARK    3  A    between atoms: C_7  and  C_8 
REMARK       I    between atoms: C_8  and  N_9 
REMARK    4  A    between atoms: N_9  and  C_10 
REMARK    5  A    between atoms: C_13  and  O_14 
REMARK    6  A    between atoms: O_14  and  C_15 
REMARK    7  A    between atoms: C_15  and  C_16 
REMARK       I    between atoms: C_16  and  N_17 
REMARK    8  A    between atoms: C_23  and  C_24 
ROOT
HETATM    1  C   UNL     1      40.878 -16.587   6.080  1.00  0.00     0.259 C 
HETATM    2  N   UNL     1      40.891 -15.229   6.280  1.00  0.00    -0.323 N 
HETATM    3  O   UNL     1      40.577 -17.282   7.054  1.00  0.00    -0.267 OA
HETATM    4  H   UNL     1      40.722 -15.040   7.261  1.00  0.00     0.169 HD
ENDROOT
BRANCH   2   5
HETATM    5  C   UNL     1      41.000 -14.101   5.454  1.00  0.00     0.035 A 
HETATM    6  C   UNL     1      42.191 -13.480   5.084  1.00  0.00     0.032 A 
HETATM    7  C   UNL     1      42.172 -12.382   4.210  1.00  0.00     0.039 A 
HETATM    8  C   UNL     1      40.967 -11.928   3.677  1.00  0.00     0.069 A 
HETATM    9  C   UNL     1      39.771 -12.526   4.050  1.00  0.00     0.039 A 
HETATM   10  C   UNL     1      39.792 -13.611   4.928  1.00  0.00     0.032 A 
BRANCH   8  11
HETATM   11  O   UNL     1      41.001 -10.863   2.820  1.00  0.00    -0.342 OA
BRANCH  11  12
HETATM   12  C   UNL     1      40.466 -11.195   1.536  1.00  0.00     0.278 C 
BRANCH  12  13
HETATM   13  C   UNL     1      41.430 -11.999   0.660  1.00  0.00     0.241 C 
HETATM   14  N   UNL     1      40.848 -13.063   0.006  1.00  0.00    -0.364 N 
HETATM   15  C   UNL     1      41.619 -13.951  -0.825  1.00  0.00     0.149 C 
HETATM   16  H   UNL     1      39.925 -13.347   0.319  1.00  0.00     0.161 HD
HETATM   17  O   UNL     1      42.609 -11.683   0.523  1.00  0.00    -0.271 OA
ENDBRANCH  12  13
ENDBRANCH  11  12
ENDBRANCH   8  11
ENDBRANCH   2   5
BRANCH   1  18
HETATM   18  C   UNL     1      41.334 -17.194   4.852  1.00  0.00     0.076 C 
HETATM   19  C   UNL     1      40.811 -16.955   3.560  1.00  0.00     0.158 C 
HETATM   20  N   UNL     1      41.548 -17.495   2.590  1.00  0.00    -0.183 NA
HETATM   21  N   UNL     1      42.616 -17.997   3.246  1.00  0.00    -0.268 N 
HETATM   22  C   UNL     1      42.465 -17.965   4.617  1.00  0.00     0.052 C 
BRANCH  21  23
HETATM   23  C   UNL     1      43.783 -18.465   2.493  1.00  0.00     0.106 C 
HETATM   24  C   UNL     1      44.260 -17.465   1.432  1.00  0.00     0.034 C 
BRANCH  23  25
HETATM   25  C   UNL     1      43.597 -19.886   1.927  1.00  0.00     0.022 C 
HETATM   26  C   UNL     1      44.432 -20.965   2.599  1.00  0.00     0.007 C 
ENDBRANCH  23  25
ENDBRANCH  21  23
BRANCH  22  27
HETATM   27  C   UNL     1      43.403 -18.674   5.599  1.00  0.00     0.038 A 
HETATM   28  C   UNL     1      44.904 -18.690   5.499  1.00  0.00     0.011 A 
HETATM   29  C   UNL     1      44.253 -17.776   6.477  1.00  0.00     0.011 A 
ENDBRANCH  22  27
ENDBRANCH   1  18
TORSDOF 8
ENDMDL
MODEL 4
REMARK VINA RESULT:      -6.8      2.904      3.965
REMARK  8 active torsions:
REMARK  status: ('A' for Active; 'I' for Inactive)
REMARK    1  A    between atoms: C_2  and  C_3 
REMARK    2  A    between atoms: C_3  and  N_4 
REMARK    3  A    between atoms: C_7  and  C_8 
REMARK       I    between atoms: C_8  and  N_9 
REMARK    4  A    between atoms: N_9  and  C_10 
REMARK    5  A    between atoms: C_13  and  O_14 
REMARK    6  A    between atoms: O_14  and  C_15 
REMARK    7  A    between atoms: C_15  and  C_16 
REMARK       I    between atoms: C_16  and  N_17 
REMARK    8  A    between atoms: C_23  and  C_24 
ROOT
HETATM    1  C   UNL     1      43.127 -14.910   3.513  1.00  0.00     0.259 C 
HETATM    2  N   UNL     1      42.236 -14.016   2.974  1.00  0.00    -0.323 N 
HETATM    3  O   UNL     1      43.914 -14.462   4.350  1.00  0.00    -0.267 OA
HETATM    4  H   UNL     1      42.452 -13.088   3.319  1.00  0.00     0.169 HD
ENDROOT
BRANCH   2   5
HETATM    5  C   UNL     1      41.100 -14.110   2.156  1.00  0.00     0.035 A 
HETATM    6  C   UNL     1      39.895 -14.713   2.509  1.00  0.00     0.032 A 
HETATM    7  C   UNL     1      38.813 -14.700   1.616  1.00  0.00     0.039 A 
HETATM    8  C   UNL     1      38.922 -14.054   0.386  1.00  0.00     0.069 A 
HETATM    9  C   UNL     1      40.123 -13.464   0.014  1.00  0.00     0.039 A 
HETATM   10  C   UNL     1      41.201 -13.487   0.900  1.00  0.00     0.032 A 
BRANCH   8  11
HETATM   11  O   UNL     1      37.836 -14.058  -0.444  1.00  0.00    -0.342 OA
BRANCH  11  12
HETATM   12  C   UNL     1      38.148 -13.518  -1.732  1.00  0.00     0.278 C 
BRANCH  12  13
HETATM   13  C   UNL     1      37.971 -14.520  -2.875  1.00  0.00     0.241 C 
HETATM   14  N   UNL     1      39.056 -15.345  -3.078  1.00  0.00    -0.364 N 
HETATM   15  C   UNL     1      39.075 -16.317  -4.140  1.00  0.00     0.149 C 
HETATM   16  H   UNL     1      39.925 -15.083  -2.624  1.00  0.00     0.161 HD
HETATM   17  O   UNL     1      36.927 -14.603  -3.517  1.00  0.00    -0.271 OA
ENDBRANCH  12  13
ENDBRANCH  11  12
ENDBRANCH   8  11
ENDBRANCH   2   5
BRANCH   1  18
HETATM   18  C   UNL     1      43.251 -16.266   3.032  1.00  0.00     0.076 C 
HETATM   19  C   UNL     1      43.817 -16.664   1.799  1.00  0.00     0.158 C 
HETATM   20  N   UNL     1      43.982 -17.983   1.702  1.00  0.00    -0.183 NA
HETATM   21  N   UNL     1      43.624 -18.438   2.921  1.00  0.00    -0.268 N 
HETATM   22  C   UNL     1      43.044 -17.462   3.707  1.00  0.00     0.052 C 
BRANCH  21  23
HETATM   23  C   UNL     1      43.899 -19.828   3.293  1.00  0.00     0.106 C 
HETATM   24  C   UNL     1      45.173 -19.990   4.132  1.00  0.00     0.034 C 
BRANCH  23  25
HETATM   25  C   UNL     1      43.857 -20.788   2.089  1.00  0.00     0.022 C 
HETATM   26  C   UNL     1      44.453 -22.165   2.337  1.00  0.00     0.007 C 
ENDBRANCH  23  25
ENDBRANCH  21  23
BRANCH  22  27
HETATM   27  C   UNL     1      42.335 -17.741   5.035  1.00  0.00     0.038 A 
HETATM   28  C   UNL     1      41.551 -16.728   5.824  1.00  0.00     0.011 A 
HETATM   29  C   UNL     1      40.819 -17.728   4.998  1.00  0.00     0.011 A 
ENDBRANCH  22  27
ENDBRANCH   1  18
TORSDOF 8
ENDMDL
MODEL 5
REMARK VINA RESULT:      -6.7      2.392      5.903
REMARK  8 active torsions:
REMARK  status: ('A' for Active; 'I' for Inactive)
REMARK    1  A    between atoms: C_2  and  C_3 
REMARK    2  A    between atoms: C_3  and  N_4 
REMARK    3  A    between atoms: C_7  and  C_8 
REMARK       I    between atoms: C_8  and  N_9 
REMARK    4  A    between atoms: N_9  and  C_10 
REMARK    5  A    between atoms: C_13  and  O_14 
REMARK    6  A    between atoms: O_14  and  C_15 
REMARK    7  A    between atoms: C_15  and  C_16 
REMARK       I    between atoms: C_16  and  N_17 
REMARK    8  A    between atoms: C_23  and  C_24 
ROOT
HETATM    1  C   UNL     1      43.030 -13.936   6.001  1.00  0.00     0.259 C 
HETATM    2  N   UNL     1      43.220 -15.056   6.771  1.00  0.00    -0.323 N 
HETATM    3  O   UNL     1      43.085 -12.852   6.587  1.00  0.00    -0.267 OA
HETATM    4  H   UNL     1      43.293 -14.778   7.743  1.00  0.00     0.169 HD
ENDROOT
BRANCH   2   5
HETATM    5  C   UNL     1      43.406 -16.422   6.515  1.00  0.00     0.035 A 
HETATM    6  C   UNL     1      42.416 -17.312   6.104  1.00  0.00     0.032 A 
HETATM    7  C   UNL     1      42.739 -18.650   5.833  1.00  0.00     0.039 A 
HETATM    8  C   UNL     1      44.057 -19.091   5.936  1.00  0.00     0.069 A 
HETATM    9  C   UNL     1      45.052 -18.219   6.362  1.00  0.00     0.039 A 
HETATM   10  C   UNL     1      44.725 -16.891   6.641  1.00  0.00     0.032 A 
BRANCH   8  11
HETATM   11  O   UNL     1      44.325 -20.401   5.650  1.00  0.00    -0.342 OA
BRANCH  11  12
HETATM   12  C   UNL     1      45.304 -20.530   4.615  1.00  0.00     0.278 C 
BRANCH  12  13
HETATM   13  C   UNL     1      44.709 -20.541   3.206  1.00  0.00     0.241 C 
HETATM   14  N   UNL     1      44.465 -21.802   2.704  1.00  0.00    -0.364 N 
HETATM   15  C   UNL     1      43.946 -21.997   1.375  1.00  0.00     0.149 C 
HETATM   16  H   UNL     1      44.889 -22.583   3.195  1.00  0.00     0.161 HD
HETATM   17  O   UNL     1      44.432 -19.507   2.604  1.00  0.00    -0.271 OA
ENDBRANCH  12  13
ENDBRANCH  11  12
ENDBRANCH   8  11
ENDBRANCH   2   5
BRANCH   1  18
HETATM   18  C   UNL     1      42.638 -14.007   4.613  1.00  0.00     0.076 C 
HETATM   19  C   UNL     1      43.509 -14.126   3.506  1.00  0.00     0.158 C 
HETATM   20  N   UNL     1      42.870 -14.369   2.362  1.00  0.00    -0.183 NA
HETATM   21  N   UNL     1      41.584 -14.519   2.743  1.00  0.00    -0.268 N 
HETATM   22  C   UNL     1      41.373 -14.171   4.062  1.00  0.00     0.052 C 
BRANCH  21  23
HETATM   23  C   UNL     1      40.596 -15.039   1.795  1.00  0.00     0.106 C 
HETATM   24  C   UNL     1      40.840 -16.504   1.410  1.00  0.00     0.034 C 
BRANCH  23  25
HETATM   25  C   UNL     1      40.408 -14.128   0.568  1.00  0.00     0.022 C 
HETATM   26  C   UNL     1      41.065 -14.620  -0.712  1.00  0.00     0.007 C 
ENDBRANCH  23  25
ENDBRANCH  21  23
BRANCH  22  27
HETATM   27  C   UNL     1      39.988 -14.017   4.696  1.00  0.00     0.038 A 
HETATM   28  C   UNL     1      39.681 -13.172   5.903  1.00  0.00     0.011 A 
HETATM   29  C   UNL     1      39.334 -12.656   4.549  1.00  0.00     0.011 A 
ENDBRANCH  22  27
ENDBRANCH   1  18
TORSDOF 8
ENDMDL
MODEL 6
REMARK VINA RESULT:      -6.7      3.299      5.339
REMARK  8 active torsions:
REMARK  status: ('A' for Active; 'I' for Inactive)
REMARK    1  A    between atoms: C_2  and  C_3 
REMARK    2  A    between atoms: C_3  and  N_4 
REMARK    3  A    between atoms: C_7  and  C_8 
REMARK       I    between atoms: C_8  and  N_9 
REMARK    4  A    between atoms: N_9  and  C_10 
REMARK    5  A    between atoms: C_13  and  O_14 
REMARK    6  A    between atoms: O_14  and  C_15 
REMARK    7  A    between atoms: C_15  and  C_16 
REMARK       I    between atoms: C_16  and  N_17 
REMARK    8  A    between atoms: C_23  and  C_24 
ROOT
HETATM    1  C   UNL     1      43.510 -16.628   1.632  1.00  0.00     0.259 C 
HETATM    2  N   UNL     1      42.443 -16.457   0.786  1.00  0.00    -0.323 N 
HETATM    3  O   UNL     1      44.549 -17.056   1.125  1.00  0.00    -0.267 OA
HETATM    4  H   UNL     1      42.692 -16.809  -0.131  1.00  0.00     0.169 HD
ENDROOT
BRANCH   2   5
HETATM    5  C   UNL     1      41.178 -15.861   0.885  1.00  0.00     0.035 A 
HETATM    6  C   UNL     1      40.226 -16.138   1.864  1.00  0.00     0.032 A 
HETATM    7  C   UNL     1      39.011 -15.436   1.883  1.00  0.00     0.039 A 
HETATM    8  C   UNL     1      38.761 -14.434   0.948  1.00  0.00     0.069 A 
HETATM    9  C   UNL     1      39.693 -14.160  -0.045  1.00  0.00     0.039 A 
HETATM   10  C   UNL     1      40.897 -14.866  -0.068  1.00  0.00     0.032 A 
BRANCH   8  11
HETATM   11  O   UNL     1      37.567 -13.771   1.015  1.00  0.00    -0.342 OA
BRANCH  11  12
HETATM   12  C   UNL     1      37.733 -12.359   0.852  1.00  0.00     0.278 C 
BRANCH  12  13
HETATM   13  C   UNL     1      36.501 -11.661   0.271  1.00  0.00     0.241 C 
HETATM   14  N   UNL     1      35.575 -11.268   1.213  1.00  0.00    -0.364 N 
HETATM   15  C   UNL     1      34.338 -10.636   0.836  1.00  0.00     0.149 C 
HETATM   16  H   UNL     1      35.675 -11.654   2.146  1.00  0.00     0.161 HD
HETATM   17  O   UNL     1      36.383 -11.435  -0.931  1.00  0.00    -0.271 OA
ENDBRANCH  12  13
ENDBRANCH  11  12
ENDBRANCH   8  11
ENDBRANCH   2   5
BRANCH   1  18
HETATM   18  C   UNL     1      43.398 -16.465   3.063  1.00  0.00     0.076 C 
HETATM   19  C   UNL     1      43.338 -15.237   3.760  1.00  0.00     0.158 C 
HETATM   20  N   UNL     1      43.037 -15.382   5.050  1.00  0.00    -0.183 NA
HETATM   21  N   UNL     1      42.792 -16.704   5.171  1.00  0.00    -0.268 N 
HETATM   22  C   UNL     1      43.133 -17.417   4.039  1.00  0.00     0.052 C 
BRANCH  21  23
HETATM   23  C   UNL     1      42.190 -17.226   6.400  1.00  0.00     0.106 C 
HETATM   24  C   UNL     1      40.731 -16.791   6.592  1.00  0.00     0.034 C 
BRANCH  23  25
HETATM   25  C   UNL     1      43.055 -16.965   7.647  1.00  0.00     0.022 C 
HETATM   26  C   UNL     1      43.883 -18.150   8.121  1.00  0.00     0.007 C 
ENDBRANCH  23  25
ENDBRANCH  21  23
BRANCH  22  27
HETATM   27  C   UNL     1      43.184 -18.946   3.974  1.00  0.00     0.038 A 
HETATM   28  C   UNL     1      44.180 -19.742   3.175  1.00  0.00     0.011 A 
HETATM   29  C   UNL     1      44.375 -19.604   4.645  1.00  0.00     0.011 A 
ENDBRANCH  22  27
ENDBRANCH   1  18
TORSDOF 8
ENDMDL
MODEL 7
REMARK VINA RESULT:      -6.7      3.092      7.459
REMARK  8 active torsions:
REMARK  status: ('A' for Active; 'I' for Inactive)
REMARK    1  A    between atoms: C_2  and  C_3 
REMARK    2  A    between atoms: C_3  and  N_4 
REMARK    3  A    between atoms: C_7  and  C_8 
REMARK       I    between atoms: C_8  and  N_9 
REMARK    4  A    between atoms: N_9  and  C_10 
REMARK    5  A    between atoms: C_13  and  O_14 
REMARK    6  A    between atoms: O_14  and  C_15 
REMARK    7  A    between atoms: C_15  and  C_16 
REMARK       I    between atoms: C_16  and  N_17 
REMARK    8  A    between atoms: C_23  and  C_24 
ROOT
HETATM    1  C   UNL     1      40.127 -13.928   3.133  1.00  0.00     0.259 C 
HETATM    2  N   UNL     1      40.249 -15.241   3.513  1.00  0.00    -0.323 N 
HETATM    3  O   UNL     1      39.411 -13.216   3.840  1.00  0.00    -0.267 OA
HETATM    4  H   UNL     1      39.631 -15.414   4.298  1.00  0.00     0.169 HD
ENDROOT
BRANCH   2   5
HETATM    5  C   UNL     1      41.056 -16.321   3.127  1.00  0.00     0.035 A 
HETATM    6  C   UNL     1      42.082 -16.878   3.888  1.00  0.00     0.032 A 
HETATM    7  C   UNL     1      42.788 -17.992   3.409  1.00  0.00     0.039 A 
HETATM    8  C   UNL     1      42.447 -18.571   2.188  1.00  0.00     0.069 A 
HETATM    9  C   UNL     1      41.440 -18.014   1.411  1.00  0.00     0.039 A 
HETATM   10  C   UNL     1      40.745 -16.900   1.885  1.00  0.00     0.032 A 
BRANCH   8  11
HETATM   11  O   UNL     1      43.158 -19.661   1.770  1.00  0.00    -0.342 OA
BRANCH  11  12
HETATM   12  C   UNL     1      44.372 -19.821   2.509  1.00  0.00     0.278 C 
BRANCH  12  13
HETATM   13  C   UNL     1      44.547 -21.220   3.103  1.00  0.00     0.241 C 
HETATM   14  N   UNL     1      44.843 -21.231   4.450  1.00  0.00    -0.364 N 
HETATM   15  C   UNL     1      45.082 -22.461   5.159  1.00  0.00     0.149 C 
HETATM   16  H   UNL     1      45.128 -20.351   4.866  1.00  0.00     0.161 HD
HETATM   17  O   UNL     1      44.388 -22.240   2.437  1.00  0.00    -0.271 OA
ENDBRANCH  12  13
ENDBRANCH  11  12
ENDBRANCH   8  11
ENDBRANCH   2   5
BRANCH   1  18
HETATM   18  C   UNL     1      40.678 -13.425   1.895  1.00  0.00     0.076 C 
HETATM   19  C   UNL     1      41.958 -12.851   1.725  1.00  0.00     0.158 C 
HETATM   20  N   UNL     1      42.278 -12.658   0.446  1.00  0.00    -0.183 NA
HETATM   21  N   UNL     1      41.246 -13.211  -0.226  1.00  0.00    -0.268 N 
HETATM   22  C   UNL     1      40.195 -13.558   0.600  1.00  0.00     0.052 C 
BRANCH  21  23
HETATM   23  C   UNL     1      41.341 -13.416  -1.673  1.00  0.00     0.106 C 
HETATM   24  C   UNL     1      41.144 -14.879  -2.092  1.00  0.00     0.034 C 
BRANCH  23  25
HETATM   25  C   UNL     1      42.610 -12.791  -2.283  1.00  0.00     0.022 C 
HETATM   26  C   UNL     1      42.364 -11.765  -3.379  1.00  0.00     0.007 C 
ENDBRANCH  23  25
ENDBRANCH  21  23
BRANCH  22  27
HETATM   27  C   UNL     1      38.814 -13.983   0.094  1.00  0.00     0.038 A 
HETATM   28  C   UNL     1      37.510 -13.654   0.768  1.00  0.00     0.011 A 
HETATM   29  C   UNL     1      37.923 -12.874  -0.431  1.00  0.00     0.011 A 
ENDBRANCH  22  27
ENDBRANCH   1  18
TORSDOF 8
ENDMDL
MODEL 8
REMARK VINA RESULT:      -6.7      2.397      6.734
REMARK  8 active torsions:
REMARK  status: ('A' for Active; 'I' for Inactive)
REMARK    1  A    between atoms: C_2  and  C_3 
REMARK    2  A    between atoms: C_3  and  N_4 
REMARK    3  A    between atoms: C_7  and  C_8 
REMARK       I    between atoms: C_8  and  N_9 
REMARK    4  A    between atoms: N_9  and  C_10 
REMARK    5  A    between atoms: C_13  and  O_14 
REMARK    6  A    between atoms: O_14  and  C_15 
REMARK    7  A    between atoms: C_15  and  C_16 
REMARK       I    between atoms: C_16  and  N_17 
REMARK    8  A    between atoms: C_23  and  C_24 
ROOT
HETATM    1  C   UNL     1      39.992 -14.462   4.549  1.00  0.00     0.259 C 
HETATM    2  N   UNL     1      40.323 -15.400   5.494  1.00  0.00    -0.323 N 
HETATM    3  O   UNL     1      39.311 -13.509   4.936  1.00  0.00    -0.267 OA
HETATM    4  H   UNL     1      39.854 -15.169   6.363  1.00  0.00     0.169 HD
ENDROOT
BRANCH   2   5
HETATM    5  C   UNL     1      41.185 -16.505   5.544  1.00  0.00     0.035 A 
HETATM    6  C   UNL     1      41.366 -17.437   4.524  1.00  0.00     0.032 A 
HETATM    7  C   UNL     1      42.297 -18.476   4.677  1.00  0.00     0.039 A 
HETATM    8  C   UNL     1      43.072 -18.563   5.832  1.00  0.00     0.069 A 
HETATM    9  C   UNL     1      42.888 -17.652   6.864  1.00  0.00     0.039 A 
HETATM   10  C   UNL     1      41.955 -16.625   6.714  1.00  0.00     0.032 A 
BRANCH   8  11
HETATM   11  O   UNL     1      43.974 -19.586   5.929  1.00  0.00    -0.342 OA
BRANCH  11  12
HETATM   12  C   UNL     1      44.837 -19.645   4.790  1.00  0.00     0.278 C 
BRANCH  12  13
HETATM   13  C   UNL     1      44.721 -20.951   4.001  1.00  0.00     0.241 C 
HETATM   14  N   UNL     1      44.516 -20.780   2.649  1.00  0.00    -0.364 N 
HETATM   15  C   UNL     1      44.341 -21.903   1.765  1.00  0.00     0.149 C 
HETATM   16  H   UNL     1      44.247 -19.852   2.338  1.00  0.00     0.161 HD
HETATM   17  O   UNL     1      44.849 -22.051   4.533  1.00  0.00    -0.271 OA
ENDBRANCH  12  13
ENDBRANCH  11  12
ENDBRANCH   8  11
ENDBRANCH   2   5
BRANCH   1  18
HETATM   18  C   UNL     1      40.288 -14.638   3.146  1.00  0.00     0.076 C 
HETATM   19  C   UNL     1      39.401 -15.136   2.164  1.00  0.00     0.158 C 
HETATM   20  N   UNL     1      39.869 -15.005   0.923  1.00  0.00    -0.183 NA
HETATM   21  N   UNL     1      41.019 -14.318   1.089  1.00  0.00    -0.268 N 
HETATM   22  C   UNL     1      41.384 -14.198   2.415  1.00  0.00     0.052 C 
BRANCH  21  23
HETATM   23  C   UNL     1      41.714 -13.763  -0.075  1.00  0.00     0.106 C 
HETATM   24  C   UNL     1      41.625 -12.234  -0.162  1.00  0.00     0.034 C 
BRANCH  23  25
HETATM   25  C   UNL     1      41.318 -14.455  -1.393  1.00  0.00     0.022 C 
HETATM   26  C   UNL     1      41.293 -13.552  -2.616  1.00  0.00     0.007 C 
ENDBRANCH  23  25
ENDBRANCH  21  23
BRANCH  22  27
HETATM   27  C   UNL     1      42.745 -13.680   2.885  1.00  0.00     0.038 A 
HETATM   28  C   UNL     1      43.223 -13.679   4.312  1.00  0.00     0.011 A 
HETATM   29  C   UNL     1      43.724 -14.727   3.381  1.00  0.00     0.011 A 
ENDBRANCH  22  27
ENDBRANCH   1  18
TORSDOF 8
ENDMDL
MODEL 9
REMARK VINA RESULT:      -6.6      3.045      5.541
REMARK  8 active torsions:
REMARK  status: ('A' for Active; 'I' for Inactive)
REMARK    1  A    between atoms: C_2  and  C_3 
REMARK    2  A    between atoms: C_3  and  N_4 
REMARK    3  A    between atoms: C_7  and  C_8 
REMARK       I    between atoms: C_8  and  N_9 
REMARK    4  A    between atoms: N_9  and  C_10 
REMARK    5  A    between atoms: C_13  and  O_14 
REMARK    6  A    between atoms: O_14  and  C_15 
REMARK    7  A    between atoms: C_15  and  C_16 
REMARK       I    between atoms: C_16  and  N_17 
REMARK    8  A    between atoms: C_23  and  C_24 
ROOT
HETATM    1  C   UNL     1      40.336 -16.340   2.904  1.00  0.00     0.259 C 
HETATM    2  N   UNL     1      39.884 -15.066   3.144  1.00  0.00    -0.323 N 
HETATM    3  O   UNL     1      39.753 -16.972   2.021  1.00  0.00    -0.267 OA
HETATM    4  H   UNL     1      39.059 -14.900   2.579  1.00  0.00     0.169 HD
ENDROOT
BRANCH   2   5
HETATM    5  C   UNL     1      40.335 -13.973   3.898  1.00  0.00     0.035 A 
HETATM    6  C   UNL     1      41.200 -12.978   3.445  1.00  0.00     0.032 A 
HETATM    7  C   UNL     1      41.540 -11.906   4.284  1.00  0.00     0.039 A 
HETATM    8  C   UNL     1      40.989 -11.808   5.560  1.00  0.00     0.069 A 
HETATM    9  C   UNL     1      40.140 -12.802   6.031  1.00  0.00     0.039 A 
HETATM   10  C   UNL     1      39.811 -13.872   5.198  1.00  0.00     0.032 A 
BRANCH   8  11
HETATM   11  O   UNL     1      41.342 -10.738   6.336  1.00  0.00    -0.342 OA
BRANCH  11  12
HETATM   12  C   UNL     1      40.796 -10.834   7.655  1.00  0.00     0.278 C 
BRANCH  12  13
HETATM   13  C   UNL     1      41.847 -10.719   8.761  1.00  0.00     0.241 C 
HETATM   14  N   UNL     1      41.407 -11.120  10.005  1.00  0.00    -0.364 N 
HETATM   15  C   UNL     1      42.252 -11.037  11.167  1.00  0.00     0.149 C 
HETATM   16  H   UNL     1      40.405 -11.238  10.122  1.00  0.00     0.161 HD
HETATM   17  O   UNL     1      42.996 -10.346   8.538  1.00  0.00    -0.271 OA
ENDBRANCH  12  13
ENDBRANCH  11  12
ENDBRANCH   8  11
ENDBRANCH   2   5
BRANCH   1  18
HETATM   18  C   UNL     1      41.337 -16.975   3.730  1.00  0.00     0.076 C 
HETATM   19  C   UNL     1      41.102 -17.674   4.935  1.00  0.00     0.158 C 
HETATM   20  N   UNL     1      42.177 -18.325   5.380  1.00  0.00    -0.183 NA
HETATM   21  N   UNL     1      43.088 -18.138   4.401  1.00  0.00    -0.268 N 
HETATM   22  C   UNL     1      42.677 -17.218   3.458  1.00  0.00     0.052 C 
BRANCH  21  23
HETATM   23  C   UNL     1      44.335 -18.907   4.407  1.00  0.00     0.106 C 
HETATM   24  C   UNL     1      44.263 -20.183   3.559  1.00  0.00     0.034 C 
BRANCH  23  25
HETATM   25  C   UNL     1      44.869 -19.169   5.827  1.00  0.00     0.022 C 
HETATM   26  C   UNL     1      45.408 -17.945   6.553  1.00  0.00     0.007 C 
ENDBRANCH  23  25
ENDBRANCH  21  23
BRANCH  22  27
HETATM   27  C   UNL     1      43.591 -16.637   2.375  1.00  0.00     0.038 A 
HETATM   28  C   UNL     1      44.322 -17.446   1.339  1.00  0.00     0.011 A 
HETATM   29  C   UNL     1      43.078 -16.726   0.950  1.00  0.00     0.011 A 
ENDBRANCH  22  27
ENDBRANCH   1  18
TORSDOF 8
ENDMDL
MODEL 10
REMARK VINA RESULT:      -6.6      2.699      5.080
REMARK  8 active torsions:
REMARK  status: ('A' for Active; 'I' for Inactive)
REMARK    1  A    between atoms: C_2  and  C_3 
REMARK    2  A    between atoms: C_3  and  N_4 
REMARK    3  A    between atoms: C_7  and  C_8 
REMARK       I    between atoms: C_8  and  N_9 
REMARK    4  A    between atoms: N_9  and  C_10 
REMARK    5  A    between atoms: C_13  and  O_14 
REMARK    6  A    between atoms: O_14  and  C_15 
REMARK    7  A    between atoms: C_15  and  C_16 
REMARK       I    between atoms: C_16  and  N_17 
REMARK    8  A    between atoms: C_23  and  C_24 
ROOT
HETATM    1  C   UNL     1      43.511 -16.687   1.585  1.00  0.00     0.259 C 
HETATM    2  N   UNL     1      42.461 -16.471   0.728  1.00  0.00    -0.323 N 
HETATM    3  O   UNL     1      44.536 -17.160   1.089  1.00  0.00    -0.267 OA
HETATM    4  H   UNL     1      42.703 -16.835  -0.186  1.00  0.00     0.169 HD
ENDROOT
BRANCH   2   5
HETATM    5  C   UNL     1      41.222 -15.820   0.814  1.00  0.00     0.035 A 
HETATM    6  C   UNL     1      40.300 -15.964   1.849  1.00  0.00     0.032 A 
HETATM    7  C   UNL     1      39.112 -15.218   1.843  1.00  0.00     0.039 A 
HETATM    8  C   UNL     1      38.860 -14.302   0.823  1.00  0.00     0.069 A 
HETATM    9  C   UNL     1      39.761 -14.162  -0.225  1.00  0.00     0.039 A 
HETATM   10  C   UNL     1      40.938 -14.912  -0.221  1.00  0.00     0.032 A 
BRANCH   8  11
HETATM   11  O   UNL     1      37.694 -13.590   0.868  1.00  0.00    -0.342 OA
BRANCH  11  12
HETATM   12  C   UNL     1      37.906 -12.203   0.589  1.00  0.00     0.278 C 
BRANCH  12  13
HETATM   13  C   UNL     1      38.568 -11.442   1.739  1.00  0.00     0.241 C 
HETATM   14  N   UNL     1      37.708 -11.095   2.759  1.00  0.00    -0.364 N 
HETATM   15  C   UNL     1      38.156 -10.338   3.898  1.00  0.00     0.149 C 
HETATM   16  H   UNL     1      36.714 -11.170   2.568  1.00  0.00     0.161 HD
HETATM   17  O   UNL     1      39.774 -11.209   1.762  1.00  0.00    -0.271 OA
ENDBRANCH  12  13
ENDBRANCH  11  12
ENDBRANCH   8  11
ENDBRANCH   2   5
BRANCH   1  18
HETATM   18  C   UNL     1      43.393 -16.516   3.015  1.00  0.00     0.076 C 
HETATM   19  C   UNL     1      43.328 -15.284   3.704  1.00  0.00     0.158 C 
HETATM   20  N   UNL     1      43.021 -15.422   4.994  1.00  0.00    -0.183 NA
HETATM   21  N   UNL     1      42.777 -16.744   5.121  1.00  0.00    -0.268 N 
HETATM   22  C   UNL     1      43.124 -17.462   3.995  1.00  0.00     0.052 C 
BRANCH  21  23
HETATM   23  C   UNL     1      42.170 -17.260   6.350  1.00  0.00     0.106 C 
HETATM   24  C   UNL     1      40.706 -16.836   6.526  1.00  0.00     0.034 C 
BRANCH  23  25
HETATM   25  C   UNL     1      43.022 -16.978   7.602  1.00  0.00     0.022 C 
HETATM   26  C   UNL     1      43.904 -18.131   8.057  1.00  0.00     0.007 C 
ENDBRANCH  23  25
ENDBRANCH  21  23
BRANCH  22  27
HETATM   27  C   UNL     1      43.178 -18.991   3.938  1.00  0.00     0.038 A 
HETATM   28  C   UNL     1      44.149 -19.791   3.113  1.00  0.00     0.011 A 
HETATM   29  C   UNL     1      44.392 -19.641   4.574  1.00  0.00     0.011 A 
ENDBRANCH  22  27
ENDBRANCH   1  18
TORSDOF 8
ENDMDL
