MODEL 1
REMARK VINA RESULT:      -7.9      0.000      0.000
REMARK  11 active torsions:
REMARK  status: ('A' for Active; 'I' for Inactive)
REMARK    1  A    between atoms: N_2  and  C_4 
REMARK    2  A    between atoms: C_4  and  C_5 
REMARK    3  A    between atoms: C_5  and  C_6 
REMARK    4  A    between atoms: C_6  and  N_7 
REMARK    5  A    between atoms: N_7  and  C_8 
REMARK    6  A    between atoms: N_7  and  C_21 
REMARK    7  A    between atoms: C_8  and  N_9 
REMARK    8  A    between atoms: N_9  and  C_10 
REMARK    9  A    between atoms: C_11  and  C_12 
REMARK   10  A    between atoms: C_12  and  O_13 
REMARK   11  A    between atoms: C_21  and  C_22 
ROOT
HETATM    1  N   UNL     1      41.328 -14.046   3.199  1.00  0.00    -0.354 N 
ENDROOT
BRANCH   1   2
HETATM    2  C   UNL     1      40.188 -14.955   2.964  1.00  0.00     0.127 C 
BRANCH   2   3
HETATM    3  C   UNL     1      39.252 -14.574   1.807  1.00  0.00     0.047 C 
BRANCH   3   4
HETATM    4  C   UNL     1      39.670 -13.292   1.091  1.00  0.00     0.235 C 
BRANCH   4   5
HETATM    5  N   UNL     1      40.301 -13.626  -0.253  1.00  0.00    -0.079 N 
HETATM    6  C   UNL     1      41.290 -12.599  -0.728  1.00  0.00     0.269 C 
HETATM    7  H   UNL     1      40.809 -14.513  -0.136  1.00  0.00     0.278 HD
HETATM    8  C   UNL     1      39.250 -13.898  -1.299  1.00  0.00     0.269 C 
ENDBRANCH   4   5
ENDBRANCH   3   4
ENDBRANCH   2   3
ENDBRANCH   1   2
BRANCH   1   9
HETATM    9  C   UNL     1      41.408 -13.116   4.273  1.00  0.00     0.174 C 
HETATM   10  S   UNL     1      40.580 -11.659   4.234  1.00  0.00    -0.041 SA
BRANCH   9  11
HETATM   11  N   UNL     1      42.243 -13.570   5.284  1.00  0.00    -0.332 N 
HETATM   12  H   UNL     1      42.653 -12.801   5.815  1.00  0.00     0.168 HD
BRANCH  11  13
HETATM   13  C   UNL     1      42.332 -14.803   5.990  1.00  0.00     0.050 A 
HETATM   14  C   UNL     1      43.537 -15.110   6.679  1.00  0.00     0.066 A 
HETATM   15  C   UNL     1      43.654 -16.307   7.405  1.00  0.00     0.020 A 
HETATM   16  C   UNL     1      42.594 -17.209   7.447  1.00  0.00     0.001 A 
HETATM   17  C   UNL     1      41.424 -16.930   6.750  1.00  0.00     0.002 A 
HETATM   18  C   UNL     1      41.298 -15.743   6.021  1.00  0.00     0.030 A 
BRANCH  14  19
HETATM   19  C   UNL     1      44.687 -14.160   6.642  1.00  0.00     0.295 C 
HETATM   20  O   UNL     1      45.111 -13.684   5.595  1.00  0.00    -0.259 OA
BRANCH  19  21
HETATM   21  O   UNL     1      45.135 -13.875   7.884  1.00  0.00    -0.322 OA
HETATM   22  C   UNL     1      44.632 -12.657   8.443  1.00  0.00     0.213 C 
ENDBRANCH  19  21
ENDBRANCH  14  19
ENDBRANCH  11  13
ENDBRANCH   9  11
ENDBRANCH   1   9
BRANCH   1  23
HETATM   23  C   UNL     1      42.589 -14.438   2.502  1.00  0.00     0.169 C 
BRANCH  23  24
HETATM   24  C   UNL     1      42.820 -15.933   2.480  1.00  0.00     0.029 A 
HETATM   25  C   UNL     1      42.528 -16.572   1.155  1.00  0.00     0.253 A 
HETATM   26  O   UNL     1      42.072 -15.913   0.225  1.00  0.00    -0.268 OA
HETATM   27  N   UNL     1      42.782 -17.914   1.027  1.00  0.00    -0.322 N 
HETATM   28  C   UNL     1      43.289 -18.714   2.057  1.00  0.00     0.048 A 
HETATM   29  H   UNL     1      42.592 -18.317   0.118  1.00  0.00     0.169 HD
HETATM   30  C   UNL     1      43.534 -18.131   3.304  1.00  0.00    -0.006 A 
HETATM   31  C   UNL     1      43.558 -20.065   1.842  1.00  0.00     0.070 A 
HETATM   32  C   UNL     1      44.055 -18.903   4.346  1.00  0.00     0.053 A 
HETATM   33  C   UNL     1      43.266 -16.708   3.485  1.00  0.00     0.028 A 
HETATM   34  C   UNL     1      44.322 -20.253   4.137  1.00  0.00     0.103 A 
HETATM   35  C   UNL     1      44.095 -20.827   2.882  1.00  0.00     0.104 A 
HETATM   36  O   UNL     1      44.824 -20.946   5.208  1.00  0.00    -0.346 OA
HETATM   37  O   UNL     1      44.380 -22.140   2.602  1.00  0.00    -0.346 OA
HETATM   38  C   UNL     1      45.260 -22.702   3.584  1.00  0.00     0.202 C 
HETATM   39  C   UNL     1      44.785 -22.361   4.987  1.00  0.00     0.202 C 
ENDBRANCH  23  24
ENDBRANCH   1  23
TORSDOF 11
ENDMDL
MODEL 2
REMARK VINA RESULT:      -7.9      2.641      7.368
REMARK  11 active torsions:
REMARK  status: ('A' for Active; 'I' for Inactive)
REMARK    1  A    between atoms: N_2  and  C_4 
REMARK    2  A    between atoms: C_4  and  C_5 
REMARK    3  A    between atoms: C_5  and  C_6 
REMARK    4  A    between atoms: C_6  and  N_7 
REMARK    5  A    between atoms: N_7  and  C_8 
REMARK    6  A    between atoms: N_7  and  C_21 
REMARK    7  A    between atoms: C_8  and  N_9 
REMARK    8  A    between atoms: N_9  and  C_10 
REMARK    9  A    between atoms: C_11  and  C_12 
REMARK   10  A    between atoms: C_12  and  O_13 
REMARK   11  A    between atoms: C_21  and  C_22 
ROOT
HETATM    1  N   UNL     1      43.540 -15.132   6.123  1.00  0.00    -0.354 N 
ENDROOT
BRANCH   1   2
HETATM    2  C   UNL     1      44.707 -14.677   6.905  1.00  0.00     0.127 C 
BRANCH   2   3
HETATM    3  C   UNL     1      44.744 -13.180   7.247  1.00  0.00     0.047 C 
BRANCH   3   4
HETATM    4  C   UNL     1      45.164 -12.900   8.687  1.00  0.00     0.235 C 
BRANCH   4   5
HETATM    5  N   UNL     1      43.963 -12.438   9.500  1.00  0.00    -0.079 N 
HETATM    6  C   UNL     1      43.361 -11.151   9.011  1.00  0.00     0.269 C 
HETATM    7  H   UNL     1      43.242 -13.168   9.415  1.00  0.00     0.278 HD
HETATM    8  C   UNL     1      44.291 -12.365  10.969  1.00  0.00     0.269 C 
ENDBRANCH   4   5
ENDBRANCH   3   4
ENDBRANCH   2   3
ENDBRANCH   1   2
BRANCH   1   9
HETATM    9  C   UNL     1      43.195 -16.497   5.912  1.00  0.00     0.174 C 
HETATM   10  S   UNL     1      42.187 -17.319   6.969  1.00  0.00    -0.041 SA
BRANCH   9  11
HETATM   11  N   UNL     1      43.804 -17.011   4.776  1.00  0.00    -0.332 N 
HETATM   12  H   UNL     1      44.404 -16.324   4.321  1.00  0.00     0.168 HD
BRANCH  11  13
HETATM   13  C   UNL     1      44.103 -18.336   4.349  1.00  0.00     0.050 A 
HETATM   14  C   UNL     1      43.836 -18.695   3.000  1.00  0.00     0.066 A 
HETATM   15  C   UNL     1      44.139 -19.987   2.537  1.00  0.00     0.020 A 
HETATM   16  C   UNL     1      44.694 -20.929   3.398  1.00  0.00     0.001 A 
HETATM   17  C   UNL     1      44.929 -20.594   4.727  1.00  0.00     0.002 A 
HETATM   18  C   UNL     1      44.628 -19.313   5.201  1.00  0.00     0.030 A 
BRANCH  14  19
HETATM   19  C   UNL     1      43.236 -17.702   2.062  1.00  0.00     0.295 C 
HETATM   20  O   UNL     1      43.889 -17.154   1.182  1.00  0.00    -0.259 OA
BRANCH  19  21
HETATM   21  O   UNL     1      41.912 -17.547   2.284  1.00  0.00    -0.322 OA
HETATM   22  C   UNL     1      41.087 -17.653   1.119  1.00  0.00     0.213 C 
ENDBRANCH  19  21
ENDBRANCH  14  19
ENDBRANCH  11  13
ENDBRANCH   9  11
ENDBRANCH   1   9
BRANCH   1  23
HETATM   23  C   UNL     1      42.491 -14.092   5.907  1.00  0.00     0.169 C 
BRANCH  23  24
HETATM   24  C   UNL     1      41.789 -14.219   4.572  1.00  0.00     0.029 A 
HETATM   25  C   UNL     1      40.340 -14.591   4.683  1.00  0.00     0.253 A 
HETATM   26  O   UNL     1      39.835 -14.836   5.774  1.00  0.00    -0.268 OA
HETATM   27  N   UNL     1      39.611 -14.655   3.524  1.00  0.00    -0.322 N 
HETATM   28  C   UNL     1      40.140 -14.399   2.253  1.00  0.00     0.048 A 
HETATM   29  H   UNL     1      38.632 -14.893   3.627  1.00  0.00     0.169 HD
HETATM   30  C   UNL     1      41.497 -14.081   2.140  1.00  0.00    -0.006 A 
HETATM   31  C   UNL     1      39.327 -14.446   1.121  1.00  0.00     0.070 A 
HETATM   32  C   UNL     1      42.048 -13.805   0.887  1.00  0.00     0.053 A 
HETATM   33  C   UNL     1      42.311 -14.014   3.350  1.00  0.00     0.028 A 
HETATM   34  C   UNL     1      41.241 -13.854  -0.247  1.00  0.00     0.103 A 
HETATM   35  C   UNL     1      39.880 -14.152  -0.127  1.00  0.00     0.104 A 
HETATM   36  O   UNL     1      41.855 -13.579  -1.442  1.00  0.00    -0.346 OA
HETATM   37  O   UNL     1      39.026 -14.172  -1.201  1.00  0.00    -0.346 OA
HETATM   38  C   UNL     1      39.593 -13.495  -2.330  1.00  0.00     0.202 C 
HETATM   39  C   UNL     1      41.028 -13.941  -2.555  1.00  0.00     0.202 C 
ENDBRANCH  23  24
ENDBRANCH   1  23
TORSDOF 11
ENDMDL
MODEL 3
REMARK VINA RESULT:      -7.8      2.913      7.234
REMARK  11 active torsions:
REMARK  status: ('A' for Active; 'I' for Inactive)
REMARK    1  A    between atoms: N_2  and  C_4 
REMARK    2  A    between atoms: C_4  and  C_5 
REMARK    3  A    between atoms: C_5  and  C_6 
REMARK    4  A    between atoms: C_6  and  N_7 
REMARK    5  A    between atoms: N_7  and  C_8 
REMARK    6  A    between atoms: N_7  and  C_21 
REMARK    7  A    between atoms: C_8  and  N_9 
REMARK    8  A    between atoms: N_9  and  C_10 
REMARK    9  A    between atoms: C_11  and  C_12 
REMARK   10  A    between atoms: C_12  and  O_13 
REMARK   11  A    between atoms: C_21  and  C_22 
ROOT
HETATM    1  N   UNL     1      42.175 -16.245   2.821  1.00  0.00    -0.354 N 
ENDROOT
BRANCH   1   2
HETATM    2  C   UNL     1      41.280 -16.370   1.653  1.00  0.00     0.127 C 
BRANCH   2   3
HETATM    3  C   UNL     1      39.775 -16.273   1.946  1.00  0.00     0.047 C 
BRANCH   3   4
HETATM    4  C   UNL     1      39.243 -14.844   1.904  1.00  0.00     0.235 C 
BRANCH   4   5
HETATM    5  N   UNL     1      38.635 -14.552   0.539  1.00  0.00    -0.079 N 
HETATM    6  C   UNL     1      39.512 -13.711  -0.345  1.00  0.00     0.269 C 
HETATM    7  H   UNL     1      38.502 -15.458   0.068  1.00  0.00     0.278 HD
HETATM    8  C   UNL     1      37.257 -13.957   0.668  1.00  0.00     0.269 C 
ENDBRANCH   4   5
ENDBRANCH   3   4
ENDBRANCH   2   3
ENDBRANCH   1   2
BRANCH   1   9
HETATM    9  C   UNL     1      42.454 -17.297   3.738  1.00  0.00     0.174 C 
HETATM   10  S   UNL     1      41.471 -17.589   5.063  1.00  0.00    -0.041 SA
BRANCH   9  11
HETATM   11  N   UNL     1      43.608 -17.986   3.391  1.00  0.00    -0.332 N 
HETATM   12  H   UNL     1      44.450 -17.457   3.615  1.00  0.00     0.168 HD
BRANCH  11  13
HETATM   13  C   UNL     1      43.892 -19.367   3.192  1.00  0.00     0.050 A 
HETATM   14  C   UNL     1      44.439 -20.114   4.270  1.00  0.00     0.066 A 
HETATM   15  C   UNL     1      44.710 -21.485   4.118  1.00  0.00     0.020 A 
HETATM   16  C   UNL     1      44.456 -22.120   2.906  1.00  0.00     0.001 A 
HETATM   17  C   UNL     1      43.950 -21.388   1.837  1.00  0.00     0.002 A 
HETATM   18  C   UNL     1      43.680 -20.023   1.976  1.00  0.00     0.030 A 
BRANCH  14  19
HETATM   19  C   UNL     1      44.725 -19.451   5.576  1.00  0.00     0.295 C 
HETATM   20  O   UNL     1      45.535 -18.539   5.684  1.00  0.00    -0.259 OA
BRANCH  19  21
HETATM   21  O   UNL     1      43.950 -19.949   6.565  1.00  0.00    -0.322 OA
HETATM   22  C   UNL     1      43.788 -19.089   7.698  1.00  0.00     0.213 C 
ENDBRANCH  19  21
ENDBRANCH  14  19
ENDBRANCH  11  13
ENDBRANCH   9  11
ENDBRANCH   1   9
BRANCH   1  23
HETATM   23  C   UNL     1      43.111 -15.083   2.766  1.00  0.00     0.169 C 
BRANCH  23  24
HETATM   24  C   UNL     1      42.536 -13.823   3.377  1.00  0.00     0.029 A 
HETATM   25  C   UNL     1      42.230 -12.749   2.375  1.00  0.00     0.253 A 
HETATM   26  O   UNL     1      42.510 -12.896   1.189  1.00  0.00    -0.268 OA
HETATM   27  N   UNL     1      41.637 -11.602   2.835  1.00  0.00    -0.322 N 
HETATM   28  C   UNL     1      41.308 -11.377   4.177  1.00  0.00     0.048 A 
HETATM   29  H   UNL     1      41.426 -10.899   2.137  1.00  0.00     0.169 HD
HETATM   30  C   UNL     1      41.618 -12.362   5.120  1.00  0.00    -0.006 A 
HETATM   31  C   UNL     1      40.670 -10.199   4.566  1.00  0.00     0.070 A 
HETATM   32  C   UNL     1      41.287 -12.171   6.464  1.00  0.00     0.053 A 
HETATM   33  C   UNL     1      42.261 -13.594   4.673  1.00  0.00     0.028 A 
HETATM   34  C   UNL     1      40.653 -10.995   6.858  1.00  0.00     0.103 A 
HETATM   35  C   UNL     1      40.326 -10.022   5.908  1.00  0.00     0.104 A 
HETATM   36  O   UNL     1      40.367 -10.877   8.194  1.00  0.00    -0.346 OA
HETATM   37  O   UNL     1      39.663  -8.865   6.228  1.00  0.00    -0.346 OA
HETATM   38  C   UNL     1      39.033  -8.963   7.511  1.00  0.00     0.202 C 
HETATM   39  C   UNL     1      39.996  -9.536   8.538  1.00  0.00     0.202 C 
ENDBRANCH  23  24
ENDBRANCH   1  23
TORSDOF 11
ENDMDL
MODEL 4
REMARK VINA RESULT:      -7.8      1.938      5.707
REMARK  11 active torsions:
REMARK  status: ('A' for Active; 'I' for Inactive)
REMARK    1  A    between atoms: N_2  and  C_4 
REMARK    2  A    between atoms: C_4  and  C_5 
REMARK    3  A    between atoms: C_5  and  C_6 
REMARK    4  A    between atoms: C_6  and  N_7 
REMARK    5  A    between atoms: N_7  and  C_8 
REMARK    6  A    between atoms: N_7  and  C_21 
REMARK    7  A    between atoms: C_8  and  N_9 
REMARK    8  A    between atoms: N_9  and  C_10 
REMARK    9  A    between atoms: C_11  and  C_12 
REMARK   10  A    between atoms: C_12  and  O_13 
REMARK   11  A    between atoms: C_21  and  C_22 
ROOT
HETATM    1  N   UNL     1      41.453 -13.798   3.721  1.00  0.00    -0.354 N 
ENDROOT
BRANCH   1   2
HETATM    2  C   UNL     1      40.252 -14.315   4.408  1.00  0.00     0.127 C 
BRANCH   2   3
HETATM    3  C   UNL     1      40.184 -14.067   5.922  1.00  0.00     0.047 C 
BRANCH   3   4
HETATM    4  C   UNL     1      39.491 -12.757   6.289  1.00  0.00     0.235 C 
BRANCH   4   5
HETATM    5  N   UNL     1      40.317 -11.999   7.319  1.00  0.00    -0.079 N 
HETATM    6  C   UNL     1      39.489 -11.209   8.293  1.00  0.00     0.269 C 
HETATM    7  H   UNL     1      40.844 -12.700   7.858  1.00  0.00     0.278 HD
HETATM    8  C   UNL     1      41.357 -11.133   6.656  1.00  0.00     0.269 C 
ENDBRANCH   4   5
ENDBRANCH   3   4
ENDBRANCH   2   3
ENDBRANCH   1   2
BRANCH   1   9
HETATM    9  C   UNL     1      41.425 -12.888   2.627  1.00  0.00     0.174 C 
HETATM   10  S   UNL     1      40.613 -11.426   2.723  1.00  0.00    -0.041 SA
BRANCH   9  11
HETATM   11  N   UNL     1      42.117 -13.384   1.531  1.00  0.00    -0.332 N 
HETATM   12  H   UNL     1      42.743 -14.147   1.788  1.00  0.00     0.168 HD
BRANCH  11  13
HETATM   13  C   UNL     1      41.862 -13.361   0.130  1.00  0.00     0.050 A 
HETATM   14  C   UNL     1      41.452 -14.562  -0.509  1.00  0.00     0.066 A 
HETATM   15  C   UNL     1      41.170 -14.572  -1.886  1.00  0.00     0.020 A 
HETATM   16  C   UNL     1      41.300 -13.408  -2.638  1.00  0.00     0.001 A 
HETATM   17  C   UNL     1      41.730 -12.236  -2.025  1.00  0.00     0.002 A 
HETATM   18  C   UNL     1      42.018 -12.215  -0.656  1.00  0.00     0.030 A 
BRANCH  14  19
HETATM   19  C   UNL     1      41.313 -15.823   0.277  1.00  0.00     0.295 C 
HETATM   20  O   UNL     1      42.106 -16.751   0.173  1.00  0.00    -0.259 OA
BRANCH  19  21
HETATM   21  O   UNL     1      40.261 -15.766   1.123  1.00  0.00    -0.322 OA
HETATM   22  C   UNL     1      40.095 -16.915   1.960  1.00  0.00     0.213 C 
ENDBRANCH  19  21
ENDBRANCH  14  19
ENDBRANCH  11  13
ENDBRANCH   9  11
ENDBRANCH   1   9
BRANCH   1  23
HETATM   23  C   UNL     1      42.722 -13.943   4.494  1.00  0.00     0.169 C 
BRANCH  23  24
HETATM   24  C   UNL     1      43.243 -15.363   4.526  1.00  0.00     0.029 A 
HETATM   25  C   UNL     1      43.784 -15.781   5.862  1.00  0.00     0.253 A 
HETATM   26  O   UNL     1      43.849 -14.983   6.792  1.00  0.00    -0.268 OA
HETATM   27  N   UNL     1      44.209 -17.077   5.998  1.00  0.00    -0.322 N 
HETATM   28  C   UNL     1      44.170 -18.024   4.967  1.00  0.00     0.048 A 
HETATM   29  H   UNL     1      44.555 -17.338   6.913  1.00  0.00     0.169 HD
HETATM   30  C   UNL     1      43.695 -17.633   3.712  1.00  0.00    -0.006 A 
HETATM   31  C   UNL     1      44.584 -19.336   5.191  1.00  0.00     0.070 A 
HETATM   32  C   UNL     1      43.630 -18.561   2.670  1.00  0.00     0.053 A 
HETATM   33  C   UNL     1      43.244 -16.258   3.522  1.00  0.00     0.028 A 
HETATM   34  C   UNL     1      44.046 -19.872   2.886  1.00  0.00     0.103 A 
HETATM   35  C   UNL     1      44.501 -20.264   4.150  1.00  0.00     0.104 A 
HETATM   36  O   UNL     1      43.960 -20.722   1.814  1.00  0.00    -0.346 OA
HETATM   37  O   UNL     1      44.881 -21.550   4.437  1.00  0.00    -0.346 OA
HETATM   38  C   UNL     1      44.400 -22.469   3.448  1.00  0.00     0.202 C 
HETATM   39  C   UNL     1      44.675 -21.942   2.049  1.00  0.00     0.202 C 
ENDBRANCH  23  24
ENDBRANCH   1  23
TORSDOF 11
ENDMDL
MODEL 5
REMARK VINA RESULT:      -7.8      2.288      7.433
REMARK  11 active torsions:
REMARK  status: ('A' for Active; 'I' for Inactive)
REMARK    1  A    between atoms: N_2  and  C_4 
REMARK    2  A    between atoms: C_4  and  C_5 
REMARK    3  A    between atoms: C_5  and  C_6 
REMARK    4  A    between atoms: C_6  and  N_7 
REMARK    5  A    between atoms: N_7  and  C_8 
REMARK    6  A    between atoms: N_7  and  C_21 
REMARK    7  A    between atoms: C_8  and  N_9 
REMARK    8  A    between atoms: N_9  and  C_10 
REMARK    9  A    between atoms: C_11  and  C_12 
REMARK   10  A    between atoms: C_12  and  O_13 
REMARK   11  A    between atoms: C_21  and  C_22 
ROOT
HETATM    1  N   UNL     1      43.204 -15.142   5.477  1.00  0.00    -0.354 N 
ENDROOT
BRANCH   1   2
HETATM    2  C   UNL     1      44.309 -14.173   5.622  1.00  0.00     0.127 C 
BRANCH   2   3
HETATM    3  C   UNL     1      45.067 -14.213   6.958  1.00  0.00     0.047 C 
BRANCH   3   4
HETATM    4  C   UNL     1      44.537 -13.214   7.983  1.00  0.00     0.235 C 
BRANCH   4   5
HETATM    5  N   UNL     1      45.695 -12.558   8.721  1.00  0.00    -0.079 N 
HETATM    6  C   UNL     1      45.300 -11.335   9.499  1.00  0.00     0.269 C 
HETATM    7  H   UNL     1      46.055 -13.249   9.393  1.00  0.00     0.278 HD
HETATM    8  C   UNL     1      46.843 -12.265   7.788  1.00  0.00     0.269 C 
ENDBRANCH   4   5
ENDBRANCH   3   4
ENDBRANCH   2   3
ENDBRANCH   1   2
BRANCH   1   9
HETATM    9  C   UNL     1      43.258 -16.495   5.914  1.00  0.00     0.174 C 
HETATM   10  S   UNL     1      42.399 -17.018   7.254  1.00  0.00    -0.041 SA
BRANCH   9  11
HETATM   11  N   UNL     1      44.098 -17.259   5.115  1.00  0.00    -0.332 N 
HETATM   12  H   UNL     1      44.850 -17.688   5.654  1.00  0.00     0.168 HD
BRANCH  11  13
HETATM   13  C   UNL     1      43.926 -17.893   3.852  1.00  0.00     0.050 A 
HETATM   14  C   UNL     1      44.051 -19.307   3.776  1.00  0.00     0.066 A 
HETATM   15  C   UNL     1      43.865 -19.971   2.552  1.00  0.00     0.020 A 
HETATM   16  C   UNL     1      43.566 -19.248   1.400  1.00  0.00     0.001 A 
HETATM   17  C   UNL     1      43.473 -17.862   1.461  1.00  0.00     0.002 A 
HETATM   18  C   UNL     1      43.660 -17.191   2.673  1.00  0.00     0.030 A 
BRANCH  14  19
HETATM   19  C   UNL     1      44.377 -20.100   4.998  1.00  0.00     0.295 C 
HETATM   20  O   UNL     1      43.755 -19.974   6.046  1.00  0.00    -0.259 OA
BRANCH  19  21
HETATM   21  O   UNL     1      45.379 -20.977   4.767  1.00  0.00    -0.322 OA
HETATM   22  C   UNL     1      45.100 -22.328   5.149  1.00  0.00     0.213 C 
ENDBRANCH  19  21
ENDBRANCH  14  19
ENDBRANCH  11  13
ENDBRANCH   9  11
ENDBRANCH   1   9
BRANCH   1  23
HETATM   23  C   UNL     1      41.867 -14.527   5.228  1.00  0.00     0.169 C 
BRANCH  23  24
HETATM   24  C   UNL     1      41.676 -14.071   3.797  1.00  0.00     0.029 A 
HETATM   25  C   UNL     1      41.766 -12.584   3.618  1.00  0.00     0.253 A 
HETATM   26  O   UNL     1      41.905 -11.841   4.585  1.00  0.00    -0.268 OA
HETATM   27  N   UNL     1      41.679 -12.092   2.341  1.00  0.00    -0.322 N 
HETATM   28  C   UNL     1      41.506 -12.892   1.206  1.00  0.00     0.048 A 
HETATM   29  H   UNL     1      41.758 -11.087   2.246  1.00  0.00     0.169 HD
HETATM   30  C   UNL     1      41.392 -14.276   1.369  1.00  0.00    -0.006 A 
HETATM   31  C   UNL     1      41.464 -12.323  -0.066  1.00  0.00     0.070 A 
HETATM   32  C   UNL     1      41.235 -15.100   0.252  1.00  0.00     0.053 A 
HETATM   33  C   UNL     1      41.467 -14.840   2.714  1.00  0.00     0.028 A 
HETATM   34  C   UNL     1      41.189 -14.537  -1.020  1.00  0.00     0.103 A 
HETATM   35  C   UNL     1      41.325 -13.154  -1.180  1.00  0.00     0.104 A 
HETATM   36  O   UNL     1      41.025 -15.409  -2.066  1.00  0.00    -0.346 OA
HETATM   37  O   UNL     1      41.333 -12.545  -2.410  1.00  0.00    -0.346 OA
HETATM   38  C   UNL     1      41.572 -13.492  -3.458  1.00  0.00     0.202 C 
HETATM   39  C   UNL     1      40.696 -14.721  -3.279  1.00  0.00     0.202 C 
ENDBRANCH  23  24
ENDBRANCH   1  23
TORSDOF 11
ENDMDL
MODEL 6
REMARK VINA RESULT:      -7.8      2.631      7.502
REMARK  11 active torsions:
REMARK  status: ('A' for Active; 'I' for Inactive)
REMARK    1  A    between atoms: N_2  and  C_4 
REMARK    2  A    between atoms: C_4  and  C_5 
REMARK    3  A    between atoms: C_5  and  C_6 
REMARK    4  A    between atoms: C_6  and  N_7 
REMARK    5  A    between atoms: N_7  and  C_8 
REMARK    6  A    between atoms: N_7  and  C_21 
REMARK    7  A    between atoms: C_8  and  N_9 
REMARK    8  A    between atoms: N_9  and  C_10 
REMARK    9  A    between atoms: C_11  and  C_12 
REMARK   10  A    between atoms: C_12  and  O_13 
REMARK   11  A    between atoms: C_21  and  C_22 
ROOT
HETATM    1  N   UNL     1      42.614 -15.841   3.167  1.00  0.00    -0.354 N 
ENDROOT
BRANCH   1   2
HETATM    2  C   UNL     1      43.615 -14.801   3.483  1.00  0.00     0.127 C 
BRANCH   2   3
HETATM    3  C   UNL     1      43.124 -13.642   4.364  1.00  0.00     0.047 C 
BRANCH   3   4
HETATM    4  C   UNL     1      42.765 -14.073   5.784  1.00  0.00     0.235 C 
BRANCH   4   5
HETATM    5  N   UNL     1      41.479 -13.391   6.227  1.00  0.00    -0.079 N 
HETATM    6  C   UNL     1      40.235 -14.144   5.849  1.00  0.00     0.269 C 
HETATM    7  H   UNL     1      41.506 -13.336   7.255  1.00  0.00     0.278 HD
HETATM    8  C   UNL     1      41.423 -11.964   5.747  1.00  0.00     0.269 C 
ENDBRANCH   4   5
ENDBRANCH   3   4
ENDBRANCH   2   3
ENDBRANCH   1   2
BRANCH   1   9
HETATM    9  C   UNL     1      42.607 -17.149   3.728  1.00  0.00     0.174 C 
HETATM   10  S   UNL     1      41.385 -17.655   4.756  1.00  0.00    -0.041 SA
BRANCH   9  11
HETATM   11  N   UNL     1      43.716 -17.883   3.330  1.00  0.00    -0.332 N 
HETATM   12  H   UNL     1      44.587 -17.381   3.497  1.00  0.00     0.168 HD
BRANCH  11  13
HETATM   13  C   UNL     1      43.940 -19.276   3.137  1.00  0.00     0.050 A 
HETATM   14  C   UNL     1      44.443 -20.043   4.223  1.00  0.00     0.066 A 
HETATM   15  C   UNL     1      44.655 -21.424   4.078  1.00  0.00     0.020 A 
HETATM   16  C   UNL     1      44.384 -22.052   2.866  1.00  0.00     0.001 A 
HETATM   17  C   UNL     1      43.920 -21.303   1.790  1.00  0.00     0.002 A 
HETATM   18  C   UNL     1      43.709 -19.927   1.922  1.00  0.00     0.030 A 
BRANCH  14  19
HETATM   19  C   UNL     1      44.747 -19.388   5.529  1.00  0.00     0.295 C 
HETATM   20  O   UNL     1      45.550 -18.468   5.630  1.00  0.00    -0.259 OA
BRANCH  19  21
HETATM   21  O   UNL     1      43.996 -19.902   6.528  1.00  0.00    -0.322 OA
HETATM   22  C   UNL     1      43.723 -19.000   7.605  1.00  0.00     0.213 C 
ENDBRANCH  19  21
ENDBRANCH  14  19
ENDBRANCH  11  13
ENDBRANCH   9  11
ENDBRANCH   1   9
BRANCH   1  23
HETATM   23  C   UNL     1      41.357 -15.326   2.548  1.00  0.00     0.169 C 
BRANCH  23  24
HETATM   24  C   UNL     1      41.574 -14.704   1.185  1.00  0.00     0.029 A 
HETATM   25  C   UNL     1      41.544 -15.692   0.056  1.00  0.00     0.253 A 
HETATM   26  O   UNL     1      41.428 -16.894   0.275  1.00  0.00    -0.268 OA
HETATM   27  N   UNL     1      41.659 -15.203  -1.219  1.00  0.00    -0.322 N 
HETATM   28  C   UNL     1      41.806 -13.844  -1.524  1.00  0.00     0.048 A 
HETATM   29  H   UNL     1      41.620 -15.888  -1.964  1.00  0.00     0.169 HD
HETATM   30  C   UNL     1      41.865 -12.922  -0.475  1.00  0.00    -0.006 A 
HETATM   31  C   UNL     1      41.879 -13.416  -2.849  1.00  0.00     0.070 A 
HETATM   32  C   UNL     1      41.996 -11.558  -0.751  1.00  0.00     0.053 A 
HETATM   33  C   UNL     1      41.759 -13.403   0.899  1.00  0.00     0.028 A 
HETATM   34  C   UNL     1      42.073 -11.126  -2.072  1.00  0.00     0.103 A 
HETATM   35  C   UNL     1      41.992 -12.051  -3.119  1.00  0.00     0.104 A 
HETATM   36  O   UNL     1      42.208  -9.775  -2.263  1.00  0.00    -0.346 OA
HETATM   37  O   UNL     1      42.016 -11.682  -4.440  1.00  0.00    -0.346 OA
HETATM   38  C   UNL     1      41.746 -10.283  -4.595  1.00  0.00     0.202 C 
HETATM   39  C   UNL     1      42.571  -9.466  -3.614  1.00  0.00     0.202 C 
ENDBRANCH  23  24
ENDBRANCH   1  23
TORSDOF 11
ENDMDL
MODEL 7
REMARK VINA RESULT:      -7.7      2.273      6.485
REMARK  11 active torsions:
REMARK  status: ('A' for Active; 'I' for Inactive)
REMARK    1  A    between atoms: N_2  and  C_4 
REMARK    2  A    between atoms: C_4  and  C_5 
REMARK    3  A    between atoms: C_5  and  C_6 
REMARK    4  A    between atoms: C_6  and  N_7 
REMARK    5  A    between atoms: N_7  and  C_8 
REMARK    6  A    between atoms: N_7  and  C_21 
REMARK    7  A    between atoms: C_8  and  N_9 
REMARK    8  A    between atoms: N_9  and  C_10 
REMARK    9  A    between atoms: C_11  and  C_12 
REMARK   10  A    between atoms: C_12  and  O_13 
REMARK   11  A    between atoms: C_21  and  C_22 
ROOT
HETATM    1  N   UNL     1      40.661 -14.425   1.974  1.00  0.00    -0.354 N 
ENDROOT
BRANCH   1   2
HETATM    2  C   UNL     1      39.799 -14.564   3.165  1.00  0.00     0.127 C 
BRANCH   2   3
HETATM    3  C   UNL     1      39.839 -13.398   4.164  1.00  0.00     0.047 C 
BRANCH   3   4
HETATM    4  C   UNL     1      39.841 -13.850   5.621  1.00  0.00     0.235 C 
BRANCH   4   5
HETATM    5  N   UNL     1      40.433 -12.761   6.505  1.00  0.00    -0.079 N 
HETATM    6  C   UNL     1      39.421 -12.080   7.382  1.00  0.00     0.269 C 
HETATM    7  H   UNL     1      41.121 -13.214   7.122  1.00  0.00     0.278 HD
HETATM    8  C   UNL     1      41.215 -11.761   5.693  1.00  0.00     0.269 C 
ENDBRANCH   4   5
ENDBRANCH   3   4
ENDBRANCH   2   3
ENDBRANCH   1   2
BRANCH   1   9
HETATM    9  C   UNL     1      40.198 -14.037   0.686  1.00  0.00     0.174 C 
HETATM   10  S   UNL     1      38.591 -13.653   0.412  1.00  0.00    -0.041 SA
BRANCH   9  11
HETATM   11  N   UNL     1      41.222 -14.047  -0.251  1.00  0.00    -0.332 N 
HETATM   12  H   UNL     1      41.428 -14.989  -0.582  1.00  0.00     0.168 HD
BRANCH  11  13
HETATM   13  C   UNL     1      41.744 -13.054  -1.129  1.00  0.00     0.050 A 
HETATM   14  C   UNL     1      41.634 -13.258  -2.532  1.00  0.00     0.066 A 
HETATM   15  C   UNL     1      42.117 -12.290  -3.429  1.00  0.00     0.020 A 
HETATM   16  C   UNL     1      42.718 -11.129  -2.952  1.00  0.00     0.001 A 
HETATM   17  C   UNL     1      42.857 -10.938  -1.581  1.00  0.00     0.002 A 
HETATM   18  C   UNL     1      42.384 -11.896  -0.679  1.00  0.00     0.030 A 
BRANCH  14  19
HETATM   19  C   UNL     1      40.999 -14.499  -3.064  1.00  0.00     0.295 C 
HETATM   20  O   UNL     1      41.652 -15.405  -3.567  1.00  0.00    -0.259 OA
BRANCH  19  21
HETATM   21  O   UNL     1      39.662 -14.496  -2.865  1.00  0.00    -0.322 OA
HETATM   22  C   UNL     1      38.908 -15.250  -3.820  1.00  0.00     0.213 C 
ENDBRANCH  19  21
ENDBRANCH  14  19
ENDBRANCH  11  13
ENDBRANCH   9  11
ENDBRANCH   1   9
BRANCH   1  23
HETATM   23  C   UNL     1      42.119 -14.302   2.273  1.00  0.00     0.169 C 
BRANCH  23  24
HETATM   24  C   UNL     1      42.746 -15.600   2.735  1.00  0.00     0.029 A 
HETATM   25  C   UNL     1      43.233 -15.567   4.154  1.00  0.00     0.253 A 
HETATM   26  O   UNL     1      43.177 -14.534   4.814  1.00  0.00    -0.268 OA
HETATM   27  N   UNL     1      43.747 -16.726   4.676  1.00  0.00    -0.322 N 
HETATM   28  C   UNL     1      43.847 -17.927   3.963  1.00  0.00     0.048 A 
HETATM   29  H   UNL     1      44.054 -16.681   5.640  1.00  0.00     0.169 HD
HETATM   30  C   UNL     1      43.423 -17.956   2.631  1.00  0.00    -0.006 A 
HETATM   31  C   UNL     1      44.347 -19.077   4.573  1.00  0.00     0.070 A 
HETATM   32  C   UNL     1      43.496 -19.145   1.901  1.00  0.00     0.053 A 
HETATM   33  C   UNL     1      42.879 -16.740   2.034  1.00  0.00     0.028 A 
HETATM   34  C   UNL     1      43.997 -20.295   2.504  1.00  0.00     0.103 A 
HETATM   35  C   UNL     1      44.401 -20.266   3.843  1.00  0.00     0.104 A 
HETATM   36  O   UNL     1      44.045 -21.421   1.722  1.00  0.00    -0.346 OA
HETATM   37  O   UNL     1      44.861 -21.376   4.505  1.00  0.00    -0.346 OA
HETATM   38  C   UNL     1      44.516 -22.579   3.807  1.00  0.00     0.202 C 
HETATM   39  C   UNL     1      44.836 -22.450   2.327  1.00  0.00     0.202 C 
ENDBRANCH  23  24
ENDBRANCH   1  23
TORSDOF 11
ENDMDL
MODEL 8
REMARK VINA RESULT:      -7.7      2.378      5.447
REMARK  11 active torsions:
REMARK  status: ('A' for Active; 'I' for Inactive)
REMARK    1  A    between atoms: N_2  and  C_4 
REMARK    2  A    between atoms: C_4  and  C_5 
REMARK    3  A    between atoms: C_5  and  C_6 
REMARK    4  A    between atoms: C_6  and  N_7 
REMARK    5  A    between atoms: N_7  and  C_8 
REMARK    6  A    between atoms: N_7  and  C_21 
REMARK    7  A    between atoms: C_8  and  N_9 
REMARK    8  A    between atoms: N_9  and  C_10 
REMARK    9  A    between atoms: C_11  and  C_12 
REMARK   10  A    between atoms: C_12  and  O_13 
REMARK   11  A    between atoms: C_21  and  C_22 
ROOT
HETATM    1  N   UNL     1      41.484 -14.032   5.404  1.00  0.00    -0.354 N 
ENDROOT
BRANCH   1   2
HETATM    2  C   UNL     1      41.021 -12.661   5.701  1.00  0.00     0.127 C 
BRANCH   2   3
HETATM    3  C   UNL     1      41.904 -11.847   6.659  1.00  0.00     0.047 C 
BRANCH   3   4
HETATM    4  C   UNL     1      41.106 -10.941   7.593  1.00  0.00     0.235 C 
BRANCH   4   5
HETATM    5  N   UNL     1      41.707 -10.974   8.991  1.00  0.00    -0.079 N 
HETATM    6  C   UNL     1      41.281  -9.823   9.858  1.00  0.00     0.269 C 
HETATM    7  H   UNL     1      41.377 -11.838   9.441  1.00  0.00     0.278 HD
HETATM    8  C   UNL     1      43.208 -11.093   8.939  1.00  0.00     0.269 C 
ENDBRANCH   4   5
ENDBRANCH   3   4
ENDBRANCH   2   3
ENDBRANCH   1   2
BRANCH   1   9
HETATM    9  C   UNL     1      40.622 -15.128   5.116  1.00  0.00     0.174 C 
HETATM   10  S   UNL     1      40.343 -16.341   6.237  1.00  0.00    -0.041 SA
BRANCH   9  11
HETATM   11  N   UNL     1      40.100 -15.046   3.833  1.00  0.00    -0.332 N 
HETATM   12  H   UNL     1      39.493 -14.235   3.719  1.00  0.00     0.168 HD
BRANCH  11  13
HETATM   13  C   UNL     1      40.522 -15.569   2.577  1.00  0.00     0.050 A 
HETATM   14  C   UNL     1      41.012 -14.668   1.593  1.00  0.00     0.066 A 
HETATM   15  C   UNL     1      41.460 -15.149   0.351  1.00  0.00     0.020 A 
HETATM   16  C   UNL     1      41.416 -16.512   0.069  1.00  0.00     0.001 A 
HETATM   17  C   UNL     1      40.908 -17.395   1.016  1.00  0.00     0.002 A 
HETATM   18  C   UNL     1      40.457 -16.927   2.254  1.00  0.00     0.030 A 
BRANCH  14  19
HETATM   19  C   UNL     1      41.062 -13.203   1.873  1.00  0.00     0.295 C 
HETATM   20  O   UNL     1      42.117 -12.603   2.042  1.00  0.00    -0.259 OA
BRANCH  19  21
HETATM   21  O   UNL     1      39.828 -12.653   1.857  1.00  0.00    -0.322 OA
HETATM   22  C   UNL     1      39.692 -11.449   2.619  1.00  0.00     0.213 C 
ENDBRANCH  19  21
ENDBRANCH  14  19
ENDBRANCH  11  13
ENDBRANCH   9  11
ENDBRANCH   1   9
BRANCH   1  23
HETATM   23  C   UNL     1      42.919 -14.131   5.002  1.00  0.00     0.169 C 
BRANCH  23  24
HETATM   24  C   UNL     1      43.433 -15.554   4.970  1.00  0.00     0.029 A 
HETATM   25  C   UNL     1      43.995 -16.025   6.279  1.00  0.00     0.253 A 
HETATM   26  O   UNL     1      44.079 -15.264   7.238  1.00  0.00    -0.268 OA
HETATM   27  N   UNL     1      44.416 -17.328   6.357  1.00  0.00    -0.322 N 
HETATM   28  C   UNL     1      44.355 -18.233   5.292  1.00  0.00     0.048 A 
HETATM   29  H   UNL     1      44.776 -17.625   7.256  1.00  0.00     0.169 HD
HETATM   30  C   UNL     1      43.860 -17.792   4.061  1.00  0.00    -0.006 A 
HETATM   31  C   UNL     1      44.766 -19.555   5.457  1.00  0.00     0.070 A 
HETATM   32  C   UNL     1      43.773 -18.679   2.985  1.00  0.00     0.053 A 
HETATM   33  C   UNL     1      43.413 -16.408   3.932  1.00  0.00     0.028 A 
HETATM   34  C   UNL     1      44.186 -19.999   3.143  1.00  0.00     0.103 A 
HETATM   35  C   UNL     1      44.660 -20.441   4.383  1.00  0.00     0.104 A 
HETATM   36  O   UNL     1      44.078 -20.807   2.041  1.00  0.00    -0.346 OA
HETATM   37  O   UNL     1      45.039 -21.740   4.613  1.00  0.00    -0.346 OA
HETATM   38  C   UNL     1      44.537 -22.617   3.597  1.00  0.00     0.202 C 
HETATM   39  C   UNL     1      44.791 -22.037   2.216  1.00  0.00     0.202 C 
ENDBRANCH  23  24
ENDBRANCH   1  23
TORSDOF 11
ENDMDL
MODEL 9
REMARK VINA RESULT:      -7.6      2.393      3.578
REMARK  11 active torsions:
REMARK  status: ('A' for Active; 'I' for Inactive)
REMARK    1  A    between atoms: N_2  and  C_4 
REMARK    2  A    between atoms: C_4  and  C_5 
REMARK    3  A    between atoms: C_5  and  C_6 
REMARK    4  A    between atoms: C_6  and  N_7 
REMARK    5  A    between atoms: N_7  and  C_8 
REMARK    6  A    between atoms: N_7  and  C_21 
REMARK    7  A    between atoms: C_8  and  N_9 
REMARK    8  A    between atoms: N_9  and  C_10 
REMARK    9  A    between atoms: C_11  and  C_12 
REMARK   10  A    between atoms: C_12  and  O_13 
REMARK   11  A    between atoms: C_21  and  C_22 
ROOT
HETATM    1  N   UNL     1      40.043 -13.153   0.692  1.00  0.00    -0.354 N 
ENDROOT
BRANCH   1   2
HETATM    2  C   UNL     1      40.454 -12.678  -0.646  1.00  0.00     0.127 C 
BRANCH   2   3
HETATM    3  C   UNL     1      39.386 -12.763  -1.746  1.00  0.00     0.047 C 
BRANCH   3   4
HETATM    4  C   UNL     1      39.795 -13.653  -2.917  1.00  0.00     0.235 C 
BRANCH   4   5
HETATM    5  N   UNL     1      38.991 -14.946  -2.896  1.00  0.00    -0.079 N 
HETATM    6  C   UNL     1      39.420 -15.940  -3.938  1.00  0.00     0.269 C 
HETATM    7  H   UNL     1      39.142 -15.380  -1.975  1.00  0.00     0.278 HD
HETATM    8  C   UNL     1      37.512 -14.672  -2.977  1.00  0.00     0.269 C 
ENDBRANCH   4   5
ENDBRANCH   3   4
ENDBRANCH   2   3
ENDBRANCH   1   2
BRANCH   1   9
HETATM    9  C   UNL     1      39.821 -12.305   1.813  1.00  0.00     0.174 C 
HETATM   10  S   UNL     1      38.281 -11.801   2.239  1.00  0.00    -0.041 SA
BRANCH   9  11
HETATM   11  N   UNL     1      41.010 -11.968   2.444  1.00  0.00    -0.332 N 
HETATM   12  H   UNL     1      41.083 -10.964   2.610  1.00  0.00     0.168 HD
BRANCH  11  13
HETATM   13  C   UNL     1      41.923 -12.703   3.253  1.00  0.00     0.050 A 
HETATM   14  C   UNL     1      41.766 -12.665   4.665  1.00  0.00     0.066 A 
HETATM   15  C   UNL     1      42.633 -13.397   5.495  1.00  0.00     0.020 A 
HETATM   16  C   UNL     1      43.660 -14.156   4.941  1.00  0.00     0.001 A 
HETATM   17  C   UNL     1      43.838 -14.173   3.562  1.00  0.00     0.002 A 
HETATM   18  C   UNL     1      42.984 -13.446   2.727  1.00  0.00     0.030 A 
BRANCH  14  19
HETATM   19  C   UNL     1      40.676 -11.853   5.280  1.00  0.00     0.295 C 
HETATM   20  O   UNL     1      40.558 -10.651   5.073  1.00  0.00    -0.259 OA
BRANCH  19  21
HETATM   21  O   UNL     1      39.844 -12.618   6.020  1.00  0.00    -0.322 OA
HETATM   22  C   UNL     1      39.430 -12.037   7.260  1.00  0.00     0.213 C 
ENDBRANCH  19  21
ENDBRANCH  14  19
ENDBRANCH  11  13
ENDBRANCH   9  11
ENDBRANCH   1   9
BRANCH   1  23
HETATM   23  C   UNL     1      39.460 -14.527   0.712  1.00  0.00     0.169 C 
BRANCH  23  24
HETATM   24  C   UNL     1      40.396 -15.564   1.293  1.00  0.00     0.029 A 
HETATM   25  C   UNL     1      41.305 -16.195   0.280  1.00  0.00     0.253 A 
HETATM   26  O   UNL     1      41.208 -15.919  -0.912  1.00  0.00    -0.268 OA
HETATM   27  N   UNL     1      42.237 -17.093   0.734  1.00  0.00    -0.322 N 
HETATM   28  C   UNL     1      42.382 -17.454   2.079  1.00  0.00     0.048 A 
HETATM   29  H   UNL     1      42.848 -17.492   0.033  1.00  0.00     0.169 HD
HETATM   30  C   UNL     1      41.518 -16.892   3.024  1.00  0.00    -0.006 A 
HETATM   31  C   UNL     1      43.379 -18.346   2.473  1.00  0.00     0.070 A 
HETATM   32  C   UNL     1      41.651 -17.223   4.375  1.00  0.00     0.053 A 
HETATM   33  C   UNL     1      40.504 -15.941   2.580  1.00  0.00     0.028 A 
HETATM   34  C   UNL     1      42.642 -18.116   4.773  1.00  0.00     0.103 A 
HETATM   35  C   UNL     1      43.518 -18.659   3.827  1.00  0.00     0.104 A 
HETATM   36  O   UNL     1      42.705 -18.397   6.113  1.00  0.00    -0.346 OA
HETATM   37  O   UNL     1      44.541 -19.509   4.163  1.00  0.00    -0.346 OA
HETATM   38  C   UNL     1      44.826 -19.451   5.566  1.00  0.00     0.202 C 
HETATM   39  C   UNL     1      43.543 -19.529   6.377  1.00  0.00     0.202 C 
ENDBRANCH  23  24
ENDBRANCH   1  23
TORSDOF 11
ENDMDL
MODEL 10
REMARK VINA RESULT:      -7.5      2.168      5.310
REMARK  11 active torsions:
REMARK  status: ('A' for Active; 'I' for Inactive)
REMARK    1  A    between atoms: N_2  and  C_4 
REMARK    2  A    between atoms: C_4  and  C_5 
REMARK    3  A    between atoms: C_5  and  C_6 
REMARK    4  A    between atoms: C_6  and  N_7 
REMARK    5  A    between atoms: N_7  and  C_8 
REMARK    6  A    between atoms: N_7  and  C_21 
REMARK    7  A    between atoms: C_8  and  N_9 
REMARK    8  A    between atoms: N_9  and  C_10 
REMARK    9  A    between atoms: C_11  and  C_12 
REMARK   10  A    between atoms: C_12  and  O_13 
REMARK   11  A    between atoms: C_21  and  C_22 
ROOT
HETATM    1  N   UNL     1      41.108 -13.331   4.472  1.00  0.00    -0.354 N 
ENDROOT
BRANCH   1   2
HETATM    2  C   UNL     1      40.308 -13.813   5.617  1.00  0.00     0.127 C 
BRANCH   2   3
HETATM    3  C   UNL     1      39.163 -12.895   6.070  1.00  0.00     0.047 C 
BRANCH   3   4
HETATM    4  C   UNL     1      39.458 -12.161   7.375  1.00  0.00     0.235 C 
BRANCH   4   5
HETATM    5  N   UNL     1      40.014 -10.775   7.081  1.00  0.00    -0.079 N 
HETATM    6  C   UNL     1      41.508 -10.682   7.220  1.00  0.00     0.269 C 
HETATM    7  H   UNL     1      39.781 -10.558   6.102  1.00  0.00     0.278 HD
HETATM    8  C   UNL     1      39.322  -9.721   7.906  1.00  0.00     0.269 C 
ENDBRANCH   4   5
ENDBRANCH   3   4
ENDBRANCH   2   3
ENDBRANCH   1   2
BRANCH   1   9
HETATM    9  C   UNL     1      40.593 -12.540   3.407  1.00  0.00     0.174 C 
HETATM   10  S   UNL     1      40.675 -10.867   3.438  1.00  0.00    -0.041 SA
BRANCH   9  11
HETATM   11  N   UNL     1      40.031 -13.326   2.411  1.00  0.00    -0.332 N 
HETATM   12  H   UNL     1      39.442 -12.782   1.781  1.00  0.00     0.168 HD
BRANCH  11  13
HETATM   13  C   UNL     1      40.397 -14.578   1.838  1.00  0.00     0.050 A 
HETATM   14  C   UNL     1      41.266 -14.586   0.714  1.00  0.00     0.066 A 
HETATM   15  C   UNL     1      41.668 -15.802   0.136  1.00  0.00     0.020 A 
HETATM   16  C   UNL     1      41.209 -17.010   0.654  1.00  0.00     0.001 A 
HETATM   17  C   UNL     1      40.333 -17.009   1.735  1.00  0.00     0.002 A 
HETATM   18  C   UNL     1      39.924 -15.804   2.315  1.00  0.00     0.030 A 
BRANCH  14  19
HETATM   19  C   UNL     1      41.764 -13.302   0.139  1.00  0.00     0.295 C 
HETATM   20  O   UNL     1      42.527 -12.563   0.750  1.00  0.00    -0.259 OA
BRANCH  19  21
HETATM   21  O   UNL     1      41.312 -13.113  -1.120  1.00  0.00    -0.322 OA
HETATM   22  C   UNL     1      40.956 -11.764  -1.439  1.00  0.00     0.213 C 
ENDBRANCH  19  21
ENDBRANCH  14  19
ENDBRANCH  11  13
ENDBRANCH   9  11
ENDBRANCH   1   9
BRANCH   1  23
HETATM   23  C   UNL     1      42.585 -13.355   4.692  1.00  0.00     0.169 C 
BRANCH  23  24
HETATM   24  C   UNL     1      43.148 -14.755   4.810  1.00  0.00     0.029 A 
HETATM   25  C   UNL     1      43.758 -15.051   6.148  1.00  0.00     0.253 A 
HETATM   26  O   UNL     1      43.839 -14.181   7.009  1.00  0.00    -0.268 OA
HETATM   27  N   UNL     1      44.227 -16.321   6.365  1.00  0.00    -0.322 N 
HETATM   28  C   UNL     1      44.171 -17.347   5.413  1.00  0.00     0.048 A 
HETATM   29  H   UNL     1      44.619 -16.500   7.281  1.00  0.00     0.169 HD
HETATM   30  C   UNL     1      43.631 -17.069   4.154  1.00  0.00    -0.006 A 
HETATM   31  C   UNL     1      44.633 -18.627   5.719  1.00  0.00     0.070 A 
HETATM   32  C   UNL     1      43.549 -18.077   3.191  1.00  0.00     0.053 A 
HETATM   33  C   UNL     1      43.133 -15.725   3.879  1.00  0.00     0.028 A 
HETATM   34  C   UNL     1      44.012 -19.356   3.490  1.00  0.00     0.103 A 
HETATM   35  C   UNL     1      44.532 -19.635   4.759  1.00  0.00     0.104 A 
HETATM   36  O   UNL     1      43.905 -20.290   2.492  1.00  0.00    -0.346 OA
HETATM   37  O   UNL     1      44.963 -20.885   5.127  1.00  0.00    -0.346 OA
HETATM   38  C   UNL     1      44.467 -21.890   4.235  1.00  0.00     0.202 C 
HETATM   39  C   UNL     1      44.666 -21.468   2.788  1.00  0.00     0.202 C 
ENDBRANCH  23  24
ENDBRANCH   1  23
TORSDOF 11
ENDMDL
