MODEL 1
REMARK VINA RESULT:      -8.5      0.000      0.000
REMARK  5 active torsions:
REMARK  status: ('A' for Active; 'I' for Inactive)
REMARK    1  A    between atoms: C_3  and  O_4 
REMARK    2  A    between atoms: O_4  and  C_5 
REMARK    3  A    between atoms: C_5  and  C_6 
REMARK       I    between atoms: C_6  and  N_7 
REMARK    4  A    between atoms: N_7  and  C_8 
REMARK    5  A    between atoms: C_14  and  C_15 
ROOT
HETATM    1  C   UNL     1      44.463 -20.155   4.565  1.00  0.00     0.137 A 
HETATM    2  N   UNL     1      44.926 -21.432   4.764  1.00  0.00    -0.262 N 
HETATM    3  H   UNL     1      45.299 -21.809   5.632  1.00  0.00     0.191 HD
HETATM    4  N   UNL     1      44.864 -22.212   3.671  1.00  0.00    -0.177 NA
HETATM    5  C   UNL     1      44.328 -21.413   2.738  1.00  0.00     0.065 A 
HETATM    6  C   UNL     1      44.076 -21.940   1.373  1.00  0.00     0.073 C 
HETATM    7  C   UNL     1      44.063 -20.108   3.244  1.00  0.00     0.046 A 
ENDROOT
BRANCH   1   8
HETATM    8  N   UNL     1      44.447 -19.183   5.552  1.00  0.00    -0.309 N 
HETATM    9  C   UNL     1      43.978 -19.453   6.834  1.00  0.00     0.247 C 
HETATM   10  O   UNL     1      43.603 -20.566   7.201  1.00  0.00    -0.271 OA
HETATM   11  H   UNL     1      44.770 -18.256   5.304  1.00  0.00     0.170 HD
BRANCH   9  12
HETATM   12  C   UNL     1      43.975 -18.220   7.741  1.00  0.00     0.278 C 
BRANCH  12  13
HETATM   13  O   UNL     1      42.865 -17.395   7.414  1.00  0.00    -0.342 OA
BRANCH  13  14
HETATM   14  C   UNL     1      43.104 -16.288   6.647  1.00  0.00     0.075 A 
HETATM   15  C   UNL     1      42.305 -16.160   5.497  1.00  0.00    -0.029 A 
HETATM   16  C   UNL     1      41.265 -17.196   5.164  1.00  0.00     0.051 C 
HETATM   17  C   UNL     1      42.469 -15.045   4.662  1.00  0.00     0.009 A 
HETATM   18  C   UNL     1      43.418 -14.069   4.964  1.00  0.00     0.001 A 
HETATM   19  C   UNL     1      44.203 -14.195   6.107  1.00  0.00     0.003 A 
HETATM   20  C   UNL     1      44.045 -15.299   6.949  1.00  0.00     0.037 A 
ENDBRANCH  13  14
ENDBRANCH  12  13
ENDBRANCH   9  12
ENDBRANCH   1   8
BRANCH   7  21
HETATM   21  C   UNL     1      43.503 -18.948   2.582  1.00  0.00    -0.020 A 
HETATM   22  C   UNL     1      42.166 -18.942   2.162  1.00  0.00     0.014 A 
HETATM   23  C   UNL     1      41.637 -17.823   1.513  1.00  0.00     0.020 A 
HETATM   24  C   UNL     1      42.447 -16.713   1.277  1.00  0.00     0.011 A 
HETATM   25 BR   UNL     1      41.734 -15.203   0.392  1.00  0.00    -0.051 Br
HETATM   26  C   UNL     1      43.779 -16.711   1.684  1.00  0.00     0.020 A 
HETATM   27  C   UNL     1      44.307 -17.828   2.336  1.00  0.00     0.014 A 
ENDBRANCH   7  21
TORSDOF 5
ENDMDL
MODEL 2
REMARK VINA RESULT:      -8.1      3.351      5.300
REMARK  5 active torsions:
REMARK  status: ('A' for Active; 'I' for Inactive)
REMARK    1  A    between atoms: C_3  and  O_4 
REMARK    2  A    between atoms: O_4  and  C_5 
REMARK    3  A    between atoms: C_5  and  C_6 
REMARK       I    between atoms: C_6  and  N_7 
REMARK    4  A    between atoms: N_7  and  C_8 
REMARK    5  A    between atoms: C_14  and  C_15 
ROOT
HETATM    1  C   UNL     1      41.720 -14.322   2.450  1.00  0.00     0.137 A 
HETATM    2  N   UNL     1      41.192 -13.209   1.843  1.00  0.00    -0.262 N 
HETATM    3  H   UNL     1      40.962 -12.328   2.297  1.00  0.00     0.191 HD
HETATM    4  N   UNL     1      40.972 -13.358   0.526  1.00  0.00    -0.177 NA
HETATM    5  C   UNL     1      41.387 -14.606   0.271  1.00  0.00     0.065 A 
HETATM    6  C   UNL     1      41.323 -15.135  -1.115  1.00  0.00     0.073 C 
HETATM    7  C   UNL     1      41.860 -15.259   1.444  1.00  0.00     0.046 A 
ENDROOT
BRANCH   1   8
HETATM    8  N   UNL     1      42.013 -14.391   3.802  1.00  0.00    -0.309 N 
HETATM    9  C   UNL     1      43.261 -14.028   4.298  1.00  0.00     0.247 C 
HETATM   10  O   UNL     1      44.165 -13.573   3.598  1.00  0.00    -0.271 OA
HETATM   11  H   UNL     1      41.291 -14.738   4.422  1.00  0.00     0.170 HD
BRANCH   9  12
HETATM   12  C   UNL     1      43.394 -14.258   5.805  1.00  0.00     0.278 C 
BRANCH  12  13
HETATM   13  O   UNL     1      42.682 -15.431   6.170  1.00  0.00    -0.342 OA
BRANCH  13  14
HETATM   14  C   UNL     1      43.356 -16.621   6.124  1.00  0.00     0.075 A 
HETATM   15  C   UNL     1      42.631 -17.711   5.609  1.00  0.00    -0.029 A 
HETATM   16  C   UNL     1      41.209 -17.540   5.149  1.00  0.00     0.051 C 
HETATM   17  C   UNL     1      43.250 -18.965   5.508  1.00  0.00     0.009 A 
HETATM   18  C   UNL     1      44.572 -19.137   5.918  1.00  0.00     0.001 A 
HETATM   19  C   UNL     1      45.288 -18.055   6.421  1.00  0.00     0.003 A 
HETATM   20  C   UNL     1      44.684 -16.799   6.521  1.00  0.00     0.037 A 
ENDBRANCH  13  14
ENDBRANCH  12  13
ENDBRANCH   9  12
ENDBRANCH   1   8
BRANCH   7  21
HETATM   21  C   UNL     1      42.384 -16.598   1.620  1.00  0.00    -0.020 A 
HETATM   22  C   UNL     1      43.754 -16.808   1.824  1.00  0.00     0.014 A 
HETATM   23  C   UNL     1      44.252 -18.104   1.980  1.00  0.00     0.020 A 
HETATM   24  C   UNL     1      43.381 -19.192   1.923  1.00  0.00     0.011 A 
HETATM   25 BR   UNL     1      44.056 -20.945   2.124  1.00  0.00    -0.051 Br
HETATM   26  C   UNL     1      42.018 -18.995   1.713  1.00  0.00     0.020 A 
HETATM   27  C   UNL     1      41.519 -17.699   1.561  1.00  0.00     0.014 A 
ENDBRANCH   7  21
TORSDOF 5
ENDMDL
MODEL 3
REMARK VINA RESULT:      -7.9      1.406      2.281
REMARK  5 active torsions:
REMARK  status: ('A' for Active; 'I' for Inactive)
REMARK    1  A    between atoms: C_3  and  O_4 
REMARK    2  A    between atoms: O_4  and  C_5 
REMARK    3  A    between atoms: C_5  and  C_6 
REMARK       I    between atoms: C_6  and  N_7 
REMARK    4  A    between atoms: N_7  and  C_8 
REMARK    5  A    between atoms: C_14  and  C_15 
ROOT
HETATM    1  C   UNL     1      44.465 -18.932   4.789  1.00  0.00     0.137 A 
HETATM    2  N   UNL     1      45.057 -20.047   5.328  1.00  0.00    -0.262 N 
HETATM    3  H   UNL     1      45.485 -20.117   6.248  1.00  0.00     0.191 HD
HETATM    4  N   UNL     1      45.048 -21.117   4.514  1.00  0.00    -0.177 NA
HETATM    5  C   UNL     1      44.415 -20.680   3.418  1.00  0.00     0.065 A 
HETATM    6  C   UNL     1      44.186 -21.606   2.280  1.00  0.00     0.073 C 
HETATM    7  C   UNL     1      44.032 -19.313   3.534  1.00  0.00     0.046 A 
ENDROOT
BRANCH   1   8
HETATM    8  N   UNL     1      44.374 -17.718   5.451  1.00  0.00    -0.309 N 
HETATM    9  C   UNL     1      43.467 -17.516   6.486  1.00  0.00     0.247 C 
HETATM   10  O   UNL     1      42.729 -18.398   6.925  1.00  0.00    -0.271 OA
HETATM   11  H   UNL     1      44.979 -16.967   5.140  1.00  0.00     0.170 HD
BRANCH   9  12
HETATM   12  C   UNL     1      43.479 -16.082   7.020  1.00  0.00     0.278 C 
BRANCH  12  13
HETATM   13  O   UNL     1      43.512 -15.172   5.930  1.00  0.00    -0.342 OA
BRANCH  13  14
HETATM   14  C   UNL     1      42.321 -14.847   5.341  1.00  0.00     0.075 A 
HETATM   15  C   UNL     1      42.399 -14.430   4.000  1.00  0.00    -0.029 A 
HETATM   16  C   UNL     1      43.726 -14.359   3.293  1.00  0.00     0.051 C 
HETATM   17  C   UNL     1      41.224 -14.095   3.311  1.00  0.00     0.009 A 
HETATM   18  C   UNL     1      39.986 -14.169   3.948  1.00  0.00     0.001 A 
HETATM   19  C   UNL     1      39.911 -14.588   5.272  1.00  0.00     0.003 A 
HETATM   20  C   UNL     1      41.074 -14.930   5.968  1.00  0.00     0.037 A 
ENDBRANCH  13  14
ENDBRANCH  12  13
ENDBRANCH   9  12
ENDBRANCH   1   8
BRANCH   7  21
HETATM   21  C   UNL     1      43.344 -18.453   2.593  1.00  0.00    -0.020 A 
HETATM   22  C   UNL     1      44.026 -17.901   1.500  1.00  0.00     0.014 A 
HETATM   23  C   UNL     1      43.358 -17.063   0.603  1.00  0.00     0.020 A 
HETATM   24  C   UNL     1      42.010 -16.771   0.804  1.00  0.00     0.011 A 
HETATM   25 BR   UNL     1      41.108 -15.630  -0.404  1.00  0.00    -0.051 Br
HETATM   26  C   UNL     1      41.323 -17.309   1.890  1.00  0.00     0.020 A 
HETATM   27  C   UNL     1      41.989 -18.149   2.785  1.00  0.00     0.014 A 
ENDBRANCH   7  21
TORSDOF 5
ENDMDL
MODEL 4
REMARK VINA RESULT:      -7.4      3.731      6.543
REMARK  5 active torsions:
REMARK  status: ('A' for Active; 'I' for Inactive)
REMARK    1  A    between atoms: C_3  and  O_4 
REMARK    2  A    between atoms: O_4  and  C_5 
REMARK    3  A    between atoms: C_5  and  C_6 
REMARK       I    between atoms: C_6  and  N_7 
REMARK    4  A    between atoms: N_7  and  C_8 
REMARK    5  A    between atoms: C_14  and  C_15 
ROOT
HETATM    1  C   UNL     1      39.904 -14.137   5.492  1.00  0.00     0.137 A 
HETATM    2  N   UNL     1      39.454 -13.528   6.637  1.00  0.00    -0.262 N 
HETATM    3  H   UNL     1      39.380 -13.956   7.558  1.00  0.00     0.191 HD
HETATM    4  N   UNL     1      39.081 -12.249   6.465  1.00  0.00    -0.177 NA
HETATM    5  C   UNL     1      39.313 -12.019   5.166  1.00  0.00     0.065 A 
HETATM    6  C   UNL     1      39.041 -10.677   4.594  1.00  0.00     0.073 C 
HETATM    7  C   UNL     1      39.825 -13.173   4.506  1.00  0.00     0.046 A 
ENDROOT
BRANCH   1   8
HETATM    8  N   UNL     1      40.327 -15.455   5.441  1.00  0.00    -0.309 N 
HETATM    9  C   UNL     1      41.622 -15.821   5.794  1.00  0.00     0.247 C 
HETATM   10  O   UNL     1      42.459 -15.029   6.225  1.00  0.00    -0.271 OA
HETATM   11  H   UNL     1      39.665 -16.148   5.114  1.00  0.00     0.170 HD
BRANCH   9  12
HETATM   12  C   UNL     1      41.899 -17.312   5.587  1.00  0.00     0.278 C 
BRANCH  12  13
HETATM   13  O   UNL     1      41.330 -17.732   4.355  1.00  0.00    -0.342 OA
BRANCH  13  14
HETATM   14  C   UNL     1      42.132 -17.710   3.248  1.00  0.00     0.075 A 
HETATM   15  C   UNL     1      41.508 -17.310   2.053  1.00  0.00    -0.029 A 
HETATM   16  C   UNL     1      40.049 -16.940   2.033  1.00  0.00     0.051 C 
HETATM   17  C   UNL     1      42.259 -17.240   0.870  1.00  0.00     0.009 A 
HETATM   18  C   UNL     1      43.615 -17.567   0.874  1.00  0.00     0.001 A 
HETATM   19  C   UNL     1      44.231 -17.956   2.059  1.00  0.00     0.003 A 
HETATM   20  C   UNL     1      43.494 -18.024   3.245  1.00  0.00     0.037 A 
ENDBRANCH  13  14
ENDBRANCH  12  13
ENDBRANCH   9  12
ENDBRANCH   1   8
BRANCH   7  21
HETATM   21  C   UNL     1      40.199 -13.366   3.119  1.00  0.00    -0.020 A 
HETATM   22  C   UNL     1      41.547 -13.463   2.751  1.00  0.00     0.014 A 
HETATM   23  C   UNL     1      41.900 -13.636   1.409  1.00  0.00     0.020 A 
HETATM   24  C   UNL     1      40.904 -13.704   0.436  1.00  0.00     0.011 A 
HETATM   25 BR   UNL     1      41.380 -13.930  -1.379  1.00  0.00    -0.051 Br
HETATM   26  C   UNL     1      39.560 -13.603   0.790  1.00  0.00     0.020 A 
HETATM   27  C   UNL     1      39.207 -13.433   2.132  1.00  0.00     0.014 A 
ENDBRANCH   7  21
TORSDOF 5
ENDMDL
MODEL 5
REMARK VINA RESULT:      -7.3      3.388      6.353
REMARK  5 active torsions:
REMARK  status: ('A' for Active; 'I' for Inactive)
REMARK    1  A    between atoms: C_3  and  O_4 
REMARK    2  A    between atoms: O_4  and  C_5 
REMARK    3  A    between atoms: C_5  and  C_6 
REMARK       I    between atoms: C_6  and  N_7 
REMARK    4  A    between atoms: N_7  and  C_8 
REMARK    5  A    between atoms: C_14  and  C_15 
ROOT
HETATM    1  C   UNL     1      40.236 -14.750   5.273  1.00  0.00     0.137 A 
HETATM    2  N   UNL     1      39.885 -14.160   6.461  1.00  0.00    -0.262 N 
HETATM    3  H   UNL     1      39.977 -14.570   7.388  1.00  0.00     0.191 HD
HETATM    4  N   UNL     1      39.369 -12.927   6.326  1.00  0.00    -0.177 NA
HETATM    5  C   UNL     1      39.402 -12.708   5.005  1.00  0.00     0.065 A 
HETATM    6  C   UNL     1      38.925 -11.412   4.460  1.00  0.00     0.073 C 
HETATM    7  C   UNL     1      39.932 -13.823   4.295  1.00  0.00     0.046 A 
ENDROOT
BRANCH   1   8
HETATM    8  N   UNL     1      40.776 -16.023   5.179  1.00  0.00    -0.309 N 
HETATM    9  C   UNL     1      42.017 -16.332   5.726  1.00  0.00     0.247 C 
HETATM   10  O   UNL     1      42.693 -15.532   6.372  1.00  0.00    -0.271 OA
HETATM   11  H   UNL     1      40.244 -16.723   4.677  1.00  0.00     0.170 HD
BRANCH   9  12
HETATM   12  C   UNL     1      42.455 -17.770   5.439  1.00  0.00     0.278 C 
BRANCH  12  13
HETATM   13  O   UNL     1      43.394 -17.774   4.373  1.00  0.00    -0.342 OA
BRANCH  13  14
HETATM   14  C   UNL     1      43.711 -18.980   3.812  1.00  0.00     0.075 A 
HETATM   15  C   UNL     1      43.203 -19.203   2.520  1.00  0.00    -0.029 A 
HETATM   16  C   UNL     1      42.369 -18.156   1.830  1.00  0.00     0.051 C 
HETATM   17  C   UNL     1      43.493 -20.407   1.861  1.00  0.00     0.009 A 
HETATM   18  C   UNL     1      44.275 -21.381   2.481  1.00  0.00     0.001 A 
HETATM   19  C   UNL     1      44.781 -21.155   3.757  1.00  0.00     0.003 A 
HETATM   20  C   UNL     1      44.504 -19.957   4.422  1.00  0.00     0.037 A 
ENDBRANCH  13  14
ENDBRANCH  12  13
ENDBRANCH   9  12
ENDBRANCH   1   8
BRANCH   7  21
HETATM   21  C   UNL     1      40.134 -14.013   2.873  1.00  0.00    -0.020 A 
HETATM   22  C   UNL     1      39.046 -14.251   2.023  1.00  0.00     0.014 A 
HETATM   23  C   UNL     1      39.251 -14.446   0.655  1.00  0.00     0.020 A 
HETATM   24  C   UNL     1      40.545 -14.409   0.137  1.00  0.00     0.011 A 
HETATM   25 BR   UNL     1      40.823 -14.681  -1.712  1.00  0.00    -0.051 Br
HETATM   26  C   UNL     1      41.635 -14.179   0.974  1.00  0.00     0.020 A 
HETATM   27  C   UNL     1      41.430 -13.981   2.342  1.00  0.00     0.014 A 
ENDBRANCH   7  21
TORSDOF 5
ENDMDL
MODEL 6
REMARK VINA RESULT:      -7.3      3.223      5.315
REMARK  5 active torsions:
REMARK  status: ('A' for Active; 'I' for Inactive)
REMARK    1  A    between atoms: C_3  and  O_4 
REMARK    2  A    between atoms: O_4  and  C_5 
REMARK    3  A    between atoms: C_5  and  C_6 
REMARK       I    between atoms: C_6  and  N_7 
REMARK    4  A    between atoms: N_7  and  C_8 
REMARK    5  A    between atoms: C_14  and  C_15 
ROOT
HETATM    1  C   UNL     1      43.825 -16.086   5.984  1.00  0.00     0.137 A 
HETATM    2  N   UNL     1      43.713 -15.540   7.238  1.00  0.00    -0.262 N 
HETATM    3  H   UNL     1      43.646 -14.550   7.461  1.00  0.00     0.191 HD
HETATM    4  N   UNL     1      43.705 -16.448   8.229  1.00  0.00    -0.177 NA
HETATM    5  C   UNL     1      43.799 -17.621   7.591  1.00  0.00     0.065 A 
HETATM    6  C   UNL     1      43.795 -18.886   8.367  1.00  0.00     0.073 C 
HETATM    7  C   UNL     1      43.884 -17.452   6.179  1.00  0.00     0.046 A 
ENDROOT
BRANCH   1   8
HETATM    8  N   UNL     1      43.865 -15.333   4.821  1.00  0.00    -0.309 N 
HETATM    9  C   UNL     1      43.087 -14.191   4.664  1.00  0.00     0.247 C 
HETATM   10  O   UNL     1      42.360 -13.736   5.547  1.00  0.00    -0.271 OA
HETATM   11  H   UNL     1      44.468 -15.655   4.074  1.00  0.00     0.170 HD
BRANCH   9  12
HETATM   12  C   UNL     1      43.227 -13.559   3.277  1.00  0.00     0.278 C 
BRANCH  12  13
HETATM   13  O   UNL     1      42.007 -13.710   2.564  1.00  0.00    -0.342 OA
BRANCH  13  14
HETATM   14  C   UNL     1      41.720 -14.947   2.055  1.00  0.00     0.075 A 
HETATM   15  C   UNL     1      40.514 -15.521   2.495  1.00  0.00    -0.029 A 
HETATM   16  C   UNL     1      39.622 -14.791   3.462  1.00  0.00     0.051 C 
HETATM   17  C   UNL     1      40.131 -16.780   2.010  1.00  0.00     0.009 A 
HETATM   18  C   UNL     1      40.939 -17.464   1.102  1.00  0.00     0.001 A 
HETATM   19  C   UNL     1      42.129 -16.891   0.665  1.00  0.00     0.003 A 
HETATM   20  C   UNL     1      42.519 -15.634   1.136  1.00  0.00     0.037 A 
ENDBRANCH  13  14
ENDBRANCH  12  13
ENDBRANCH   9  12
ENDBRANCH   1   8
BRANCH   7  21
HETATM   21  C   UNL     1      44.006 -18.441   5.127  1.00  0.00    -0.020 A 
HETATM   22  C   UNL     1      43.144 -18.419   4.023  1.00  0.00     0.014 A 
HETATM   23  C   UNL     1      43.260 -19.383   3.019  1.00  0.00     0.020 A 
HETATM   24  C   UNL     1      44.235 -20.375   3.122  1.00  0.00     0.011 A 
HETATM   25 BR   UNL     1      44.387 -21.685   1.769  1.00  0.00    -0.051 Br
HETATM   26  C   UNL     1      45.094 -20.411   4.219  1.00  0.00     0.020 A 
HETATM   27  C   UNL     1      44.980 -19.444   5.221  1.00  0.00     0.014 A 
ENDBRANCH   7  21
TORSDOF 5
ENDMDL
MODEL 7
REMARK VINA RESULT:      -7.2      3.314      5.774
REMARK  5 active torsions:
REMARK  status: ('A' for Active; 'I' for Inactive)
REMARK    1  A    between atoms: C_3  and  O_4 
REMARK    2  A    between atoms: O_4  and  C_5 
REMARK    3  A    between atoms: C_5  and  C_6 
REMARK       I    between atoms: C_6  and  N_7 
REMARK    4  A    between atoms: N_7  and  C_8 
REMARK    5  A    between atoms: C_14  and  C_15 
ROOT
HETATM    1  C   UNL     1      43.290 -16.115   5.669  1.00  0.00     0.137 A 
HETATM    2  N   UNL     1      43.271 -15.479   6.885  1.00  0.00    -0.262 N 
HETATM    3  H   UNL     1      43.026 -14.506   7.052  1.00  0.00     0.191 HD
HETATM    4  N   UNL     1      43.625 -16.264   7.917  1.00  0.00    -0.177 NA
HETATM    5  C   UNL     1      43.867 -17.452   7.348  1.00  0.00     0.065 A 
HETATM    6  C   UNL     1      44.268 -18.605   8.192  1.00  0.00     0.073 C 
HETATM    7  C   UNL     1      43.678 -17.414   5.937  1.00  0.00     0.046 A 
ENDROOT
BRANCH   1   8
HETATM    8  N   UNL     1      42.972 -15.492   4.473  1.00  0.00    -0.309 N 
HETATM    9  C   UNL     1      43.463 -14.230   4.154  1.00  0.00     0.247 C 
HETATM   10  O   UNL     1      44.247 -13.605   4.868  1.00  0.00    -0.271 OA
HETATM   11  H   UNL     1      42.348 -15.979   3.841  1.00  0.00     0.170 HD
BRANCH   9  12
HETATM   12  C   UNL     1      42.924 -13.698   2.824  1.00  0.00     0.278 C 
BRANCH  12  13
HETATM   13  O   UNL     1      42.134 -14.700   2.199  1.00  0.00    -0.342 OA
BRANCH  13  14
HETATM   14  C   UNL     1      41.817 -14.525   0.880  1.00  0.00     0.075 A 
HETATM   15  C   UNL     1      41.421 -15.685   0.191  1.00  0.00    -0.029 A 
HETATM   16  C   UNL     1      41.362 -17.015   0.893  1.00  0.00     0.051 C 
HETATM   17  C   UNL     1      41.061 -15.595  -1.162  1.00  0.00     0.009 A 
HETATM   18  C   UNL     1      41.097 -14.368  -1.824  1.00  0.00     0.001 A 
HETATM   19  C   UNL     1      41.484 -13.221  -1.137  1.00  0.00     0.003 A 
HETATM   20  C   UNL     1      41.840 -13.297   0.213  1.00  0.00     0.037 A 
ENDBRANCH  13  14
ENDBRANCH  12  13
ENDBRANCH   9  12
ENDBRANCH   1   8
BRANCH   7  21
HETATM   21  C   UNL     1      43.838 -18.458   4.946  1.00  0.00    -0.020 A 
HETATM   22  C   UNL     1      44.849 -19.419   5.079  1.00  0.00     0.014 A 
HETATM   23  C   UNL     1      45.005 -20.416   4.112  1.00  0.00     0.020 A 
HETATM   24  C   UNL     1      44.155 -20.447   3.008  1.00  0.00     0.011 A 
HETATM   25 BR   UNL     1      44.370 -21.790   1.696  1.00  0.00    -0.051 Br
HETATM   26  C   UNL     1      43.150 -19.493   2.862  1.00  0.00     0.020 A 
HETATM   27  C   UNL     1      42.992 -18.498   3.830  1.00  0.00     0.014 A 
ENDBRANCH   7  21
TORSDOF 5
ENDMDL
MODEL 8
REMARK VINA RESULT:      -7.1      4.441      7.182
REMARK  5 active torsions:
REMARK  status: ('A' for Active; 'I' for Inactive)
REMARK    1  A    between atoms: C_3  and  O_4 
REMARK    2  A    between atoms: O_4  and  C_5 
REMARK    3  A    between atoms: C_5  and  C_6 
REMARK       I    between atoms: C_6  and  N_7 
REMARK    4  A    between atoms: N_7  and  C_8 
REMARK    5  A    between atoms: C_14  and  C_15 
ROOT
HETATM    1  C   UNL     1      41.091 -15.236  -0.459  1.00  0.00     0.137 A 
HETATM    2  N   UNL     1      40.632 -15.366  -1.746  1.00  0.00    -0.262 N 
HETATM    3  H   UNL     1      41.035 -15.953  -2.473  1.00  0.00     0.191 HD
HETATM    4  N   UNL     1      39.551 -14.615  -2.018  1.00  0.00    -0.177 NA
HETATM    5  C   UNL     1      39.294 -13.992  -0.861  1.00  0.00     0.065 A 
HETATM    6  C   UNL     1      38.131 -13.074  -0.760  1.00  0.00     0.073 C 
HETATM    7  C   UNL     1      40.234 -14.341   0.151  1.00  0.00     0.046 A 
ENDROOT
BRANCH   1   8
HETATM    8  N   UNL     1      42.199 -15.909   0.031  1.00  0.00    -0.309 N 
HETATM    9  C   UNL     1      42.073 -17.074   0.781  1.00  0.00     0.247 C 
HETATM   10  O   UNL     1      40.995 -17.618   1.016  1.00  0.00    -0.271 OA
HETATM   11  H   UNL     1      43.111 -15.512  -0.158  1.00  0.00     0.170 HD
BRANCH   9  12
HETATM   12  C   UNL     1      43.416 -17.606   1.287  1.00  0.00     0.278 C 
BRANCH  12  13
HETATM   13  O   UNL     1      43.235 -18.212   2.560  1.00  0.00    -0.342 OA
BRANCH  13  14
HETATM   14  C   UNL     1      43.666 -19.500   2.714  1.00  0.00     0.075 A 
HETATM   15  C   UNL     1      44.320 -19.782   3.927  1.00  0.00    -0.029 A 
HETATM   16  C   UNL     1      44.514 -18.709   4.963  1.00  0.00     0.051 C 
HETATM   17  C   UNL     1      44.779 -21.083   4.178  1.00  0.00     0.009 A 
HETATM   18  C   UNL     1      44.595 -22.093   3.234  1.00  0.00     0.001 A 
HETATM   19  C   UNL     1      43.942 -21.812   2.037  1.00  0.00     0.003 A 
HETATM   20  C   UNL     1      43.475 -20.521   1.778  1.00  0.00     0.037 A 
ENDBRANCH  13  14
ENDBRANCH  12  13
ENDBRANCH   9  12
ENDBRANCH   1   8
BRANCH   7  21
HETATM   21  C   UNL     1      40.332 -13.897   1.526  1.00  0.00    -0.020 A 
HETATM   22  C   UNL     1      41.022 -12.720   1.849  1.00  0.00     0.014 A 
HETATM   23  C   UNL     1      41.122 -12.306   3.180  1.00  0.00     0.020 A 
HETATM   24  C   UNL     1      40.539 -13.072   4.188  1.00  0.00     0.011 A 
HETATM   25 BR   UNL     1      40.682 -12.516   5.989  1.00  0.00    -0.051 Br
HETATM   26  C   UNL     1      39.856 -14.247   3.880  1.00  0.00     0.020 A 
HETATM   27  C   UNL     1      39.753 -14.659   2.549  1.00  0.00     0.014 A 
ENDBRANCH   7  21
TORSDOF 5
ENDMDL
MODEL 9
REMARK VINA RESULT:      -7.0      3.556      5.987
REMARK  5 active torsions:
REMARK  status: ('A' for Active; 'I' for Inactive)
REMARK    1  A    between atoms: C_3  and  O_4 
REMARK    2  A    between atoms: O_4  and  C_5 
REMARK    3  A    between atoms: C_5  and  C_6 
REMARK       I    between atoms: C_6  and  N_7 
REMARK    4  A    between atoms: N_7  and  C_8 
REMARK    5  A    between atoms: C_14  and  C_15 
ROOT
HETATM    1  C   UNL     1      43.381 -16.031   5.484  1.00  0.00     0.137 A 
HETATM    2  N   UNL     1      43.328 -15.384   6.694  1.00  0.00    -0.262 N 
HETATM    3  H   UNL     1      43.136 -14.395   6.840  1.00  0.00     0.191 HD
HETATM    4  N   UNL     1      43.569 -16.179   7.749  1.00  0.00    -0.177 NA
HETATM    5  C   UNL     1      43.769 -17.385   7.203  1.00  0.00     0.065 A 
HETATM    6  C   UNL     1      44.046 -18.554   8.076  1.00  0.00     0.073 C 
HETATM    7  C   UNL     1      43.669 -17.349   5.782  1.00  0.00     0.046 A 
ENDROOT
BRANCH   1   8
HETATM    8  N   UNL     1      43.175 -15.401   4.268  1.00  0.00    -0.309 N 
HETATM    9  C   UNL     1      41.920 -14.934   3.890  1.00  0.00     0.247 C 
HETATM   10  O   UNL     1      40.927 -14.993   4.613  1.00  0.00    -0.271 OA
HETATM   11  H   UNL     1      43.970 -15.307   3.647  1.00  0.00     0.170 HD
BRANCH   9  12
HETATM   12  C   UNL     1      41.903 -14.344   2.478  1.00  0.00     0.278 C 
BRANCH  12  13
HETATM   13  O   UNL     1      41.204 -15.222   1.607  1.00  0.00    -0.342 OA
BRANCH  13  14
HETATM   14  C   UNL     1      40.055 -14.758   1.028  1.00  0.00     0.075 A 
HETATM   15  C   UNL     1      40.175 -14.331  -0.306  1.00  0.00    -0.029 A 
HETATM   16  C   UNL     1      41.499 -14.397  -1.018  1.00  0.00     0.051 C 
HETATM   17  C   UNL     1      39.043 -13.856  -0.985  1.00  0.00     0.009 A 
HETATM   18  C   UNL     1      37.806 -13.801  -0.344  1.00  0.00     0.001 A 
HETATM   19  C   UNL     1      37.689 -14.230   0.975  1.00  0.00     0.003 A 
HETATM   20  C   UNL     1      38.808 -14.710   1.660  1.00  0.00     0.037 A 
ENDBRANCH  13  14
ENDBRANCH  12  13
ENDBRANCH   9  12
ENDBRANCH   1   8
BRANCH   7  21
HETATM   21  C   UNL     1      43.822 -18.410   4.809  1.00  0.00    -0.020 A 
HETATM   22  C   UNL     1      44.800 -19.400   4.980  1.00  0.00     0.014 A 
HETATM   23  C   UNL     1      44.949 -20.413   4.030  1.00  0.00     0.020 A 
HETATM   24  C   UNL     1      44.127 -20.433   2.904  1.00  0.00     0.011 A 
HETATM   25 BR   UNL     1      44.335 -21.798   1.614  1.00  0.00    -0.051 Br
HETATM   26  C   UNL     1      43.156 -19.451   2.720  1.00  0.00     0.020 A 
HETATM   27  C   UNL     1      43.003 -18.439   3.672  1.00  0.00     0.014 A 
ENDBRANCH   7  21
TORSDOF 5
ENDMDL
MODEL 10
REMARK VINA RESULT:      -6.7      3.575      5.681
REMARK  5 active torsions:
REMARK  status: ('A' for Active; 'I' for Inactive)
REMARK    1  A    between atoms: C_3  and  O_4 
REMARK    2  A    between atoms: O_4  and  C_5 
REMARK    3  A    between atoms: C_5  and  C_6 
REMARK       I    between atoms: C_6  and  N_7 
REMARK    4  A    between atoms: N_7  and  C_8 
REMARK    5  A    between atoms: C_14  and  C_15 
ROOT
HETATM    1  C   UNL     1      43.242 -16.075   5.716  1.00  0.00     0.137 A 
HETATM    2  N   UNL     1      43.239 -15.470   6.948  1.00  0.00    -0.262 N 
HETATM    3  H   UNL     1      42.982 -14.505   7.145  1.00  0.00     0.191 HD
HETATM    4  N   UNL     1      43.628 -16.274   7.952  1.00  0.00    -0.177 NA
HETATM    5  C   UNL     1      43.876 -17.444   7.348  1.00  0.00     0.065 A 
HETATM    6  C   UNL     1      44.314 -18.611   8.154  1.00  0.00     0.073 C 
HETATM    7  C   UNL     1      43.656 -17.374   5.943  1.00  0.00     0.046 A 
ENDROOT
BRANCH   1   8
HETATM    8  N   UNL     1      42.888 -15.428   4.543  1.00  0.00    -0.309 N 
HETATM    9  C   UNL     1      43.442 -14.202   4.190  1.00  0.00     0.247 C 
HETATM   10  O   UNL     1      44.313 -13.635   4.849  1.00  0.00    -0.271 OA
HETATM   11  H   UNL     1      42.191 -15.869   3.955  1.00  0.00     0.170 HD
BRANCH   9  12
HETATM   12  C   UNL     1      42.853 -13.629   2.899  1.00  0.00     0.278 C 
BRANCH  12  13
HETATM   13  O   UNL     1      41.614 -12.995   3.185  1.00  0.00    -0.342 OA
BRANCH  13  14
HETATM   14  C   UNL     1      40.503 -13.454   2.534  1.00  0.00     0.075 A 
HETATM   15  C   UNL     1      39.802 -12.497   1.777  1.00  0.00    -0.029 A 
HETATM   16  C   UNL     1      40.276 -11.070   1.713  1.00  0.00     0.051 C 
HETATM   17  C   UNL     1      38.660 -12.884   1.062  1.00  0.00     0.009 A 
HETATM   18  C   UNL     1      38.215 -14.205   1.100  1.00  0.00     0.001 A 
HETATM   19  C   UNL     1      38.914 -15.151   1.844  1.00  0.00     0.003 A 
HETATM   20  C   UNL     1      40.057 -14.779   2.557  1.00  0.00     0.037 A 
ENDBRANCH  13  14
ENDBRANCH  12  13
ENDBRANCH   9  12
ENDBRANCH   1   8
BRANCH   7  21
HETATM   21  C   UNL     1      43.812 -18.390   4.922  1.00  0.00    -0.020 A 
HETATM   22  C   UNL     1      42.985 -18.397   3.791  1.00  0.00     0.014 A 
HETATM   23  C   UNL     1      43.133 -19.389   2.817  1.00  0.00     0.020 A 
HETATM   24  C   UNL     1      44.103 -20.378   2.979  1.00  0.00     0.011 A 
HETATM   25 BR   UNL     1      44.298 -21.724   1.667  1.00  0.00    -0.051 Br
HETATM   26  C   UNL     1      44.926 -20.384   4.104  1.00  0.00     0.020 A 
HETATM   27  C   UNL     1      44.781 -19.391   5.075  1.00  0.00     0.014 A 
ENDBRANCH   7  21
TORSDOF 5
ENDMDL
