MODEL 1
REMARK VINA RESULT:      -9.3      0.000      0.000
REMARK  8 active torsions:
REMARK  status: ('A' for Active; 'I' for Inactive)
REMARK    1  A    between atoms: C_4  and  O_5 
REMARK    2  A    between atoms: O_5  and  C_6 
REMARK    3  A    between atoms: C_8  and  C_9 
REMARK    4  A    between atoms: C_9  and  N_10 
REMARK    5  A    between atoms: C_9  and  C_14 
REMARK       I    between atoms: N_10  and  C_11 
REMARK       I    between atoms: C_11  and  N_12 
REMARK    6  A    between atoms: C_14  and  C_15 
REMARK       I    between atoms: C_15  and  N_16 
REMARK    7  A    between atoms: N_16  and  N_17 
REMARK       I    between atoms: N_17  and  C_18 
REMARK    8  A    between atoms: C_18  and  C_19 
ROOT
HETATM    1  C   UNL     1      43.778 -14.746   6.459  1.00  0.00     0.128 C 
ENDROOT
BRANCH   1   2
HETATM    2  C   UNL     1      43.865 -16.267   6.645  1.00  0.00    -0.032 A 
HETATM    3  C   UNL     1      44.532 -17.100   5.727  1.00  0.00     0.046 A 
HETATM    4  C   UNL     1      44.631 -18.482   5.928  1.00  0.00     0.076 A 
HETATM    5  C   UNL     1      44.071 -19.058   7.066  1.00  0.00     0.037 A 
HETATM    6  C   UNL     1      43.361 -18.261   7.963  1.00  0.00     0.003 A 
HETATM    7  C   UNL     1      43.247 -16.886   7.746  1.00  0.00     0.009 A 
BRANCH   4   8
HETATM    8  O   UNL     1      45.365 -19.163   4.980  1.00  0.00    -0.311 OA
BRANCH   8   9
HETATM    9  C   UNL     1      44.708 -19.806   3.961  1.00  0.00     0.076 A 
HETATM   10  C   UNL     1      43.984 -19.120   2.983  1.00  0.00     0.037 A 
HETATM   11  C   UNL     1      43.375 -19.831   1.947  1.00  0.00     0.003 A 
HETATM   12  C   UNL     1      43.515 -21.218   1.875  1.00  0.00     0.000 A 
HETATM   13  C   UNL     1      44.267 -21.897   2.834  1.00  0.00     0.003 A 
HETATM   14  C   UNL     1      44.870 -21.189   3.874  1.00  0.00     0.037 A 
ENDBRANCH   8   9
ENDBRANCH   4   8
ENDBRANCH   1   2
BRANCH   1  15
HETATM   15  N   UNL     1      43.451 -14.402   5.079  1.00  0.00    -0.334 N 
HETATM   16  C   UNL     1      42.723 -13.300   4.767  1.00  0.00     0.314 C 
HETATM   17  N   UNL     1      42.557 -13.139   3.434  1.00  0.00    -0.352 N 
HETATM   18  O   UNL     1      42.273 -12.512   5.585  1.00  0.00    -0.248 OA
HETATM   19  H   UNL     1      42.433 -13.972   2.879  1.00  0.00     0.160 HD
HETATM   20  H   UNL     1      41.933 -12.378   3.195  1.00  0.00     0.160 HD
HETATM   21  H   UNL     1      44.041 -14.774   4.347  1.00  0.00     0.165 HD
ENDBRANCH   1  15
BRANCH   1  22
HETATM   22  C   UNL     1      45.083 -14.065   6.896  1.00  0.00     0.134 C 
BRANCH  22  23
HETATM   23  C   UNL     1      45.039 -13.143   8.095  1.00  0.00     0.238 C 
HETATM   24  N   UNL     1      43.800 -12.704   8.510  1.00  0.00    -0.267 N 
HETATM   25  H   UNL     1      43.057 -12.502   7.832  1.00  0.00     0.190 HD
HETATM   26  O   UNL     1      46.063 -12.905   8.742  1.00  0.00    -0.272 OA
BRANCH  24  27
HETATM   27  N   UNL     1      43.794 -11.871   9.643  1.00  0.00    -0.262 N 
HETATM   28  C   UNL     1      43.148 -10.651   9.613  1.00  0.00     0.293 C 
HETATM   29  O   UNL     1      42.670 -10.176   8.584  1.00  0.00    -0.264 OA
HETATM   30  H   UNL     1      44.096 -12.283  10.526  1.00  0.00     0.190 HD
BRANCH  28  31
HETATM   31  C   UNL     1      43.082 -10.000  10.905  1.00  0.00     0.144 A 
HETATM   32  O   UNL     1      42.372  -8.833  11.039  1.00  0.00    -0.317 OA
HETATM   33  C   UNL     1      42.493  -8.435  12.331  1.00  0.00     0.143 A 
HETATM   34  C   UNL     1      43.262  -9.326  13.041  1.00  0.00     0.027 A 
HETATM   35  C   UNL     1      43.643 -10.335  12.123  1.00  0.00     0.045 A 
ENDBRANCH  28  31
ENDBRANCH  24  27
ENDBRANCH  22  23
ENDBRANCH   1  22
TORSDOF 8
ENDMDL
MODEL 2
REMARK VINA RESULT:      -9.2      2.296      3.396
REMARK  8 active torsions:
REMARK  status: ('A' for Active; 'I' for Inactive)
REMARK    1  A    between atoms: C_4  and  O_5 
REMARK    2  A    between atoms: O_5  and  C_6 
REMARK    3  A    between atoms: C_8  and  C_9 
REMARK    4  A    between atoms: C_9  and  N_10 
REMARK    5  A    between atoms: C_9  and  C_14 
REMARK       I    between atoms: N_10  and  C_11 
REMARK       I    between atoms: C_11  and  N_12 
REMARK    6  A    between atoms: C_14  and  C_15 
REMARK       I    between atoms: C_15  and  N_16 
REMARK    7  A    between atoms: N_16  and  N_17 
REMARK       I    between atoms: N_17  and  C_18 
REMARK    8  A    between atoms: C_18  and  C_19 
ROOT
HETATM    1  C   UNL     1      42.251 -14.907   3.244  1.00  0.00     0.128 C 
ENDROOT
BRANCH   1   2
HETATM    2  C   UNL     1      42.323 -16.184   4.094  1.00  0.00    -0.032 A 
HETATM    3  C   UNL     1      43.452 -17.024   4.096  1.00  0.00     0.046 A 
HETATM    4  C   UNL     1      43.514 -18.168   4.902  1.00  0.00     0.076 A 
HETATM    5  C   UNL     1      42.443 -18.485   5.735  1.00  0.00     0.037 A 
HETATM    6  C   UNL     1      41.294 -17.697   5.712  1.00  0.00     0.003 A 
HETATM    7  C   UNL     1      41.229 -16.569   4.890  1.00  0.00     0.009 A 
BRANCH   4   8
HETATM    8  O   UNL     1      44.704 -18.861   4.848  1.00  0.00    -0.311 OA
BRANCH   8   9
HETATM    9  C   UNL     1      44.711 -20.139   4.345  1.00  0.00     0.076 A 
HETATM   10  C   UNL     1      44.803 -21.267   5.164  1.00  0.00     0.037 A 
HETATM   11  C   UNL     1      44.760 -22.540   4.592  1.00  0.00     0.003 A 
HETATM   12  C   UNL     1      44.597 -22.683   3.213  1.00  0.00     0.000 A 
HETATM   13  C   UNL     1      44.472 -21.554   2.403  1.00  0.00     0.003 A 
HETATM   14  C   UNL     1      44.521 -20.281   2.971  1.00  0.00     0.037 A 
ENDBRANCH   8   9
ENDBRANCH   4   8
ENDBRANCH   1   2
BRANCH   1  15
HETATM   15  N   UNL     1      42.454 -15.204   1.830  1.00  0.00    -0.334 N 
HETATM   16  C   UNL     1      41.426 -15.549   1.014  1.00  0.00     0.314 C 
HETATM   17  N   UNL     1      41.815 -15.750  -0.266  1.00  0.00    -0.352 N 
HETATM   18  O   UNL     1      40.262 -15.650   1.371  1.00  0.00    -0.248 OA
HETATM   19  H   UNL     1      42.714 -16.185  -0.414  1.00  0.00     0.160 HD
HETATM   20  H   UNL     1      41.075 -16.105  -0.860  1.00  0.00     0.160 HD
HETATM   21  H   UNL     1      43.278 -14.827   1.381  1.00  0.00     0.165 HD
ENDBRANCH   1  15
BRANCH   1  22
HETATM   22  C   UNL     1      43.269 -13.866   3.733  1.00  0.00     0.134 C 
BRANCH  22  23
HETATM   23  C   UNL     1      43.218 -13.449   5.187  1.00  0.00     0.238 C 
HETATM   24  N   UNL     1      44.223 -13.905   6.012  1.00  0.00    -0.267 N 
HETATM   25  H   UNL     1      44.627 -14.841   5.886  1.00  0.00     0.190 HD
HETATM   26  O   UNL     1      42.379 -12.632   5.577  1.00  0.00    -0.272 OA
BRANCH  24  27
HETATM   27  N   UNL     1      44.159 -13.476   7.350  1.00  0.00    -0.262 N 
HETATM   28  C   UNL     1      45.261 -12.902   7.955  1.00  0.00     0.293 C 
HETATM   29  O   UNL     1      46.366 -12.856   7.419  1.00  0.00    -0.264 OA
HETATM   30  H   UNL     1      43.235 -13.415   7.776  1.00  0.00     0.190 HD
BRANCH  28  31
HETATM   31  C   UNL     1      44.979 -12.356   9.266  1.00  0.00     0.144 A 
HETATM   32  O   UNL     1      44.397 -13.152  10.220  1.00  0.00    -0.317 OA
HETATM   33  C   UNL     1      44.231 -12.392  11.332  1.00  0.00     0.143 A 
HETATM   34  C   UNL     1      44.701 -11.118  11.120  1.00  0.00     0.027 A 
HETATM   35  C   UNL     1      45.183 -11.093   9.789  1.00  0.00     0.045 A 
ENDBRANCH  28  31
ENDBRANCH  24  27
ENDBRANCH  22  23
ENDBRANCH   1  22
TORSDOF 8
ENDMDL
MODEL 3
REMARK VINA RESULT:      -9.0      1.870      2.961
REMARK  8 active torsions:
REMARK  status: ('A' for Active; 'I' for Inactive)
REMARK    1  A    between atoms: C_4  and  O_5 
REMARK    2  A    between atoms: O_5  and  C_6 
REMARK    3  A    between atoms: C_8  and  C_9 
REMARK    4  A    between atoms: C_9  and  N_10 
REMARK    5  A    between atoms: C_9  and  C_14 
REMARK       I    between atoms: N_10  and  C_11 
REMARK       I    between atoms: C_11  and  N_12 
REMARK    6  A    between atoms: C_14  and  C_15 
REMARK       I    between atoms: C_15  and  N_16 
REMARK    7  A    between atoms: N_16  and  N_17 
REMARK       I    between atoms: N_17  and  C_18 
REMARK    8  A    between atoms: C_18  and  C_19 
ROOT
HETATM    1  C   UNL     1      43.974 -15.607   6.017  1.00  0.00     0.128 C 
ENDROOT
BRANCH   1   2
HETATM    2  C   UNL     1      43.189 -16.194   4.836  1.00  0.00    -0.032 A 
HETATM    3  C   UNL     1      43.787 -17.036   3.879  1.00  0.00     0.046 A 
HETATM    4  C   UNL     1      43.049 -17.591   2.826  1.00  0.00     0.076 A 
HETATM    5  C   UNL     1      41.687 -17.318   2.718  1.00  0.00     0.037 A 
HETATM    6  C   UNL     1      41.084 -16.446   3.622  1.00  0.00     0.003 A 
HETATM    7  C   UNL     1      41.830 -15.879   4.659  1.00  0.00     0.009 A 
BRANCH   4   8
HETATM    8  O   UNL     1      43.750 -18.445   2.003  1.00  0.00    -0.311 OA
BRANCH   8   9
HETATM    9  C   UNL     1      44.051 -19.707   2.450  1.00  0.00     0.076 A 
HETATM   10  C   UNL     1      44.554 -19.951   3.731  1.00  0.00     0.037 A 
HETATM   11  C   UNL     1      44.798 -21.263   4.139  1.00  0.00     0.003 A 
HETATM   12  C   UNL     1      44.514 -22.327   3.282  1.00  0.00     0.000 A 
HETATM   13  C   UNL     1      43.980 -22.082   2.016  1.00  0.00     0.003 A 
HETATM   14  C   UNL     1      43.742 -20.772   1.603  1.00  0.00     0.037 A 
ENDBRANCH   8   9
ENDBRANCH   4   8
ENDBRANCH   1   2
BRANCH   1  15
HETATM   15  N   UNL     1      43.530 -16.183   7.282  1.00  0.00    -0.334 N 
HETATM   16  C   UNL     1      44.019 -17.361   7.746  1.00  0.00     0.314 C 
HETATM   17  N   UNL     1      43.508 -17.706   8.949  1.00  0.00    -0.352 N 
HETATM   18  O   UNL     1      44.850 -18.042   7.165  1.00  0.00    -0.248 OA
HETATM   19  H   UNL     1      42.537 -17.487   9.120  1.00  0.00     0.160 HD
HETATM   20  H   UNL     1      43.789 -18.630   9.257  1.00  0.00     0.160 HD
HETATM   21  H   UNL     1      43.129 -15.559   7.971  1.00  0.00     0.165 HD
ENDBRANCH   1  15
BRANCH   1  22
HETATM   22  C   UNL     1      43.857 -14.075   6.046  1.00  0.00     0.134 C 
BRANCH  22  23
HETATM   23  C   UNL     1      44.050 -13.371   7.371  1.00  0.00     0.238 C 
HETATM   24  N   UNL     1      43.171 -12.356   7.683  1.00  0.00    -0.267 N 
HETATM   25  H   UNL     1      42.807 -11.731   6.955  1.00  0.00     0.190 HD
HETATM   26  O   UNL     1      44.882 -13.782   8.184  1.00  0.00    -0.272 OA
BRANCH  24  27
HETATM   27  N   UNL     1      43.363 -11.743   8.933  1.00  0.00    -0.262 N 
HETATM   28  C   UNL     1      42.837 -10.491   9.188  1.00  0.00     0.293 C 
HETATM   29  O   UNL     1      42.303  -9.804   8.319  1.00  0.00    -0.264 OA
HETATM   30  H   UNL     1      43.713 -12.329   9.691  1.00  0.00     0.190 HD
BRANCH  28  31
HETATM   31  C   UNL     1      42.969 -10.080  10.570  1.00  0.00     0.144 A 
HETATM   32  O   UNL     1      42.054  -9.208  11.107  1.00  0.00    -0.317 OA
HETATM   33  C   UNL     1      42.422  -8.980  12.393  1.00  0.00     0.143 A 
HETATM   34  C   UNL     1      43.556  -9.693  12.704  1.00  0.00     0.027 A 
HETATM   35  C   UNL     1      43.910 -10.401  11.530  1.00  0.00     0.045 A 
ENDBRANCH  28  31
ENDBRANCH  24  27
ENDBRANCH  22  23
ENDBRANCH   1  22
TORSDOF 8
ENDMDL
MODEL 4
REMARK VINA RESULT:      -8.9      2.274      3.518
REMARK  8 active torsions:
REMARK  status: ('A' for Active; 'I' for Inactive)
REMARK    1  A    between atoms: C_4  and  O_5 
REMARK    2  A    between atoms: O_5  and  C_6 
REMARK    3  A    between atoms: C_8  and  C_9 
REMARK    4  A    between atoms: C_9  and  N_10 
REMARK    5  A    between atoms: C_9  and  C_14 
REMARK       I    between atoms: N_10  and  C_11 
REMARK       I    between atoms: C_11  and  N_12 
REMARK    6  A    between atoms: C_14  and  C_15 
REMARK       I    between atoms: C_15  and  N_16 
REMARK    7  A    between atoms: N_16  and  N_17 
REMARK       I    between atoms: N_17  and  C_18 
REMARK    8  A    between atoms: C_18  and  C_19 
ROOT
HETATM    1  C   UNL     1      42.510 -14.350   3.399  1.00  0.00     0.128 C 
ENDROOT
BRANCH   1   2
HETATM    2  C   UNL     1      42.349 -15.753   2.796  1.00  0.00    -0.032 A 
HETATM    3  C   UNL     1      43.437 -16.630   2.631  1.00  0.00     0.046 A 
HETATM    4  C   UNL     1      43.267 -17.919   2.110  1.00  0.00     0.076 A 
HETATM    5  C   UNL     1      41.994 -18.359   1.754  1.00  0.00     0.037 A 
HETATM    6  C   UNL     1      40.910 -17.490   1.860  1.00  0.00     0.003 A 
HETATM    7  C   UNL     1      41.088 -16.198   2.360  1.00  0.00     0.009 A 
BRANCH   4   8
HETATM    8  O   UNL     1      44.410 -18.689   2.063  1.00  0.00    -0.311 OA
BRANCH   8   9
HETATM    9  C   UNL     1      44.429 -19.898   2.713  1.00  0.00     0.076 A 
HETATM   10  C   UNL     1      44.303 -21.115   2.039  1.00  0.00     0.037 A 
HETATM   11  C   UNL     1      44.375 -22.312   2.755  1.00  0.00     0.003 A 
HETATM   12  C   UNL     1      44.599 -22.291   4.132  1.00  0.00     0.000 A 
HETATM   13  C   UNL     1      44.759 -21.074   4.797  1.00  0.00     0.003 A 
HETATM   14  C   UNL     1      44.680 -19.877   4.085  1.00  0.00     0.037 A 
ENDBRANCH   8   9
ENDBRANCH   4   8
ENDBRANCH   1   2
BRANCH   1  15
HETATM   15  N   UNL     1      42.621 -13.338   2.353  1.00  0.00    -0.334 N 
HETATM   16  C   UNL     1      41.701 -12.350   2.210  1.00  0.00     0.314 C 
HETATM   17  N   UNL     1      42.000 -11.494   1.206  1.00  0.00    -0.352 N 
HETATM   18  O   UNL     1      40.712 -12.216   2.915  1.00  0.00    -0.248 OA
HETATM   19  H   UNL     1      42.423 -11.883   0.376  1.00  0.00     0.160 HD
HETATM   20  H   UNL     1      41.271 -10.814   1.026  1.00  0.00     0.160 HD
HETATM   21  H   UNL     1      43.536 -13.161   1.962  1.00  0.00     0.165 HD
ENDBRANCH   1  15
BRANCH   1  22
HETATM   22  C   UNL     1      43.722 -14.294   4.341  1.00  0.00     0.134 C 
BRANCH  22  23
HETATM   23  C   UNL     1      43.504 -13.796   5.753  1.00  0.00     0.238 C 
HETATM   24  N   UNL     1      44.558 -13.907   6.633  1.00  0.00    -0.267 N 
HETATM   25  H   UNL     1      45.197 -14.709   6.594  1.00  0.00     0.190 HD
HETATM   26  O   UNL     1      42.465 -13.202   6.055  1.00  0.00    -0.272 OA
BRANCH  24  27
HETATM   27  N   UNL     1      44.329 -13.409   7.928  1.00  0.00    -0.262 N 
HETATM   28  C   UNL     1      45.269 -12.609   8.548  1.00  0.00     0.293 C 
HETATM   29  O   UNL     1      46.385 -12.402   8.073  1.00  0.00    -0.264 OA
HETATM   30  H   UNL     1      43.381 -13.485   8.296  1.00  0.00     0.190 HD
BRANCH  28  31
HETATM   31  C   UNL     1      44.808 -12.036   9.796  1.00  0.00     0.144 A 
HETATM   32  O   UNL     1      44.285 -12.856  10.764  1.00  0.00    -0.317 OA
HETATM   33  C   UNL     1      43.919 -12.066  11.806  1.00  0.00     0.143 A 
HETATM   34  C   UNL     1      44.201 -10.749  11.534  1.00  0.00     0.027 A 
HETATM   35  C   UNL     1      44.773 -10.727  10.239  1.00  0.00     0.045 A 
ENDBRANCH  28  31
ENDBRANCH  24  27
ENDBRANCH  22  23
ENDBRANCH   1  22
TORSDOF 8
ENDMDL
MODEL 5
REMARK VINA RESULT:      -8.9      4.489      7.620
REMARK  8 active torsions:
REMARK  status: ('A' for Active; 'I' for Inactive)
REMARK    1  A    between atoms: C_4  and  O_5 
REMARK    2  A    between atoms: O_5  and  C_6 
REMARK    3  A    between atoms: C_8  and  C_9 
REMARK    4  A    between atoms: C_9  and  N_10 
REMARK    5  A    between atoms: C_9  and  C_14 
REMARK       I    between atoms: N_10  and  C_11 
REMARK       I    between atoms: C_11  and  N_12 
REMARK    6  A    between atoms: C_14  and  C_15 
REMARK       I    between atoms: C_15  and  N_16 
REMARK    7  A    between atoms: N_16  and  N_17 
REMARK       I    between atoms: N_17  and  C_18 
REMARK    8  A    between atoms: C_18  and  C_19 
ROOT
HETATM    1  C   UNL     1      41.696 -16.150   5.191  1.00  0.00     0.128 C 
ENDROOT
BRANCH   1   2
HETATM    2  C   UNL     1      42.703 -17.023   5.954  1.00  0.00    -0.032 A 
HETATM    3  C   UNL     1      43.644 -17.837   5.295  1.00  0.00     0.046 A 
HETATM    4  C   UNL     1      44.576 -18.602   6.005  1.00  0.00     0.076 A 
HETATM    5  C   UNL     1      44.591 -18.557   7.398  1.00  0.00     0.037 A 
HETATM    6  C   UNL     1      43.636 -17.800   8.073  1.00  0.00     0.003 A 
HETATM    7  C   UNL     1      42.694 -17.054   7.360  1.00  0.00     0.009 A 
BRANCH   4   8
HETATM    8  O   UNL     1      45.476 -19.302   5.229  1.00  0.00    -0.311 OA
BRANCH   8   9
HETATM    9  C   UNL     1      45.007 -20.244   4.348  1.00  0.00     0.076 A 
HETATM   10  C   UNL     1      44.633 -19.929   3.040  1.00  0.00     0.037 A 
HETATM   11  C   UNL     1      44.205 -20.943   2.180  1.00  0.00     0.003 A 
HETATM   12  C   UNL     1      44.181 -22.268   2.619  1.00  0.00     0.000 A 
HETATM   13  C   UNL     1      44.587 -22.584   3.916  1.00  0.00     0.003 A 
HETATM   14  C   UNL     1      45.008 -21.571   4.779  1.00  0.00     0.037 A 
ENDBRANCH   8   9
ENDBRANCH   4   8
ENDBRANCH   1   2
BRANCH   1  15
HETATM   15  N   UNL     1      40.879 -15.365   6.110  1.00  0.00    -0.334 N 
HETATM   16  C   UNL     1      40.349 -14.166   5.756  1.00  0.00     0.314 C 
HETATM   17  N   UNL     1      39.596 -13.614   6.734  1.00  0.00    -0.352 N 
HETATM   18  O   UNL     1      40.504 -13.635   4.667  1.00  0.00    -0.248 OA
HETATM   19  H   UNL     1      39.907 -13.740   7.686  1.00  0.00     0.160 HD
HETATM   20  H   UNL     1      39.279 -12.676   6.518  1.00  0.00     0.160 HD
HETATM   21  H   UNL     1      40.423 -15.851   6.871  1.00  0.00     0.165 HD
ENDBRANCH   1  15
BRANCH   1  22
HETATM   22  C   UNL     1      40.813 -17.007   4.272  1.00  0.00     0.134 C 
BRANCH  22  23
HETATM   23  C   UNL     1      40.891 -16.763   2.781  1.00  0.00     0.238 C 
HETATM   24  N   UNL     1      40.136 -15.731   2.268  1.00  0.00    -0.267 N 
HETATM   25  H   UNL     1      39.210 -15.511   2.654  1.00  0.00     0.190 HD
HETATM   26  O   UNL     1      41.697 -17.387   2.085  1.00  0.00    -0.272 OA
BRANCH  24  27
HETATM   27  N   UNL     1      40.254 -15.516   0.883  1.00  0.00    -0.262 N 
HETATM   28  C   UNL     1      41.026 -14.478   0.398  1.00  0.00     0.293 C 
HETATM   29  O   UNL     1      41.531 -13.627   1.128  1.00  0.00    -0.264 OA
HETATM   30  H   UNL     1      39.927 -16.260   0.266  1.00  0.00     0.190 HD
BRANCH  28  31
HETATM   31  C   UNL     1      41.187 -14.502  -1.041  1.00  0.00     0.144 A 
HETATM   32  O   UNL     1      40.763 -15.596  -1.751  1.00  0.00    -0.317 OA
HETATM   33  C   UNL     1      41.049 -15.364  -3.058  1.00  0.00     0.143 A 
HETATM   34  C   UNL     1      41.646 -14.135  -3.209  1.00  0.00     0.027 A 
HETATM   35  C   UNL     1      41.736 -13.578  -1.911  1.00  0.00     0.045 A 
ENDBRANCH  28  31
ENDBRANCH  24  27
ENDBRANCH  22  23
ENDBRANCH   1  22
TORSDOF 8
ENDMDL
MODEL 6
REMARK VINA RESULT:      -8.7      3.359      7.252
REMARK  8 active torsions:
REMARK  status: ('A' for Active; 'I' for Inactive)
REMARK    1  A    between atoms: C_4  and  O_5 
REMARK    2  A    between atoms: O_5  and  C_6 
REMARK    3  A    between atoms: C_8  and  C_9 
REMARK    4  A    between atoms: C_9  and  N_10 
REMARK    5  A    between atoms: C_9  and  C_14 
REMARK       I    between atoms: N_10  and  C_11 
REMARK       I    between atoms: C_11  and  N_12 
REMARK    6  A    between atoms: C_14  and  C_15 
REMARK       I    between atoms: C_15  and  N_16 
REMARK    7  A    between atoms: N_16  and  N_17 
REMARK       I    between atoms: N_17  and  C_18 
REMARK    8  A    between atoms: C_18  and  C_19 
ROOT
HETATM    1  C   UNL     1      43.586 -14.193   5.851  1.00  0.00     0.128 C 
ENDROOT
BRANCH   1   2
HETATM    2  C   UNL     1      43.155 -15.665   5.787  1.00  0.00    -0.032 A 
HETATM    3  C   UNL     1      44.031 -16.689   5.382  1.00  0.00     0.046 A 
HETATM    4  C   UNL     1      43.632 -18.031   5.362  1.00  0.00     0.076 A 
HETATM    5  C   UNL     1      42.342 -18.375   5.760  1.00  0.00     0.037 A 
HETATM    6  C   UNL     1      41.441 -17.374   6.116  1.00  0.00     0.003 A 
HETATM    7  C   UNL     1      41.838 -16.034   6.114  1.00  0.00     0.009 A 
BRANCH   4   8
HETATM    8  O   UNL     1      44.613 -18.930   5.003  1.00  0.00    -0.311 OA
BRANCH   8   9
HETATM    9  C   UNL     1      44.354 -19.843   4.011  1.00  0.00     0.076 A 
HETATM   10  C   UNL     1      43.799 -19.478   2.781  1.00  0.00     0.037 A 
HETATM   11  C   UNL     1      43.601 -20.449   1.798  1.00  0.00     0.003 A 
HETATM   12  C   UNL     1      43.982 -21.771   2.033  1.00  0.00     0.000 A 
HETATM   13  C   UNL     1      44.566 -22.125   3.249  1.00  0.00     0.003 A 
HETATM   14  C   UNL     1      44.759 -21.158   4.236  1.00  0.00     0.037 A 
ENDBRANCH   8   9
ENDBRANCH   4   8
ENDBRANCH   1   2
BRANCH   1  15
HETATM   15  N   UNL     1      43.533 -13.688   7.219  1.00  0.00    -0.334 N 
HETATM   16  C   UNL     1      44.648 -13.281   7.878  1.00  0.00     0.314 C 
HETATM   17  N   UNL     1      44.384 -12.816   9.120  1.00  0.00    -0.352 N 
HETATM   18  O   UNL     1      45.776 -13.302   7.410  1.00  0.00    -0.248 OA
HETATM   19  H   UNL     1      43.658 -13.280   9.644  1.00  0.00     0.160 HD
HETATM   20  H   UNL     1      45.218 -12.604   9.656  1.00  0.00     0.160 HD
HETATM   21  H   UNL     1      42.653 -13.318   7.553  1.00  0.00     0.165 HD
ENDBRANCH   1  15
BRANCH   1  22
HETATM   22  C   UNL     1      42.724 -13.329   4.918  1.00  0.00     0.134 C 
BRANCH  22  23
HETATM   23  C   UNL     1      42.854 -13.545   3.426  1.00  0.00     0.238 C 
HETATM   24  N   UNL     1      41.757 -13.250   2.646  1.00  0.00    -0.267 N 
HETATM   25  H   UNL     1      40.804 -13.424   2.986  1.00  0.00     0.190 HD
HETATM   26  O   UNL     1      43.942 -13.851   2.929  1.00  0.00    -0.272 OA
BRANCH  24  27
HETATM   27  N   UNL     1      41.922 -13.437   1.262  1.00  0.00    -0.262 N 
HETATM   28  C   UNL     1      41.211 -14.417   0.597  1.00  0.00     0.293 C 
HETATM   29  O   UNL     1      40.513 -15.245   1.180  1.00  0.00    -0.264 OA
HETATM   30  H   UNL     1      42.415 -12.706   0.748  1.00  0.00     0.190 HD
BRANCH  28  31
HETATM   31  C   UNL     1      41.359 -14.362  -0.843  1.00  0.00     0.144 A 
HETATM   32  O   UNL     1      42.050 -13.322  -1.412  1.00  0.00    -0.317 OA
HETATM   33  C   UNL     1      42.020 -13.507  -2.757  1.00  0.00     0.143 A 
HETATM   34  C   UNL     1      41.327 -14.652  -3.071  1.00  0.00     0.027 A 
HETATM   35  C   UNL     1      40.900 -15.204  -1.839  1.00  0.00     0.045 A 
ENDBRANCH  28  31
ENDBRANCH  24  27
ENDBRANCH  22  23
ENDBRANCH   1  22
TORSDOF 8
ENDMDL
MODEL 7
REMARK VINA RESULT:      -8.5      2.025      2.620
REMARK  8 active torsions:
REMARK  status: ('A' for Active; 'I' for Inactive)
REMARK    1  A    between atoms: C_4  and  O_5 
REMARK    2  A    between atoms: O_5  and  C_6 
REMARK    3  A    between atoms: C_8  and  C_9 
REMARK    4  A    between atoms: C_9  and  N_10 
REMARK    5  A    between atoms: C_9  and  C_14 
REMARK       I    between atoms: N_10  and  C_11 
REMARK       I    between atoms: C_11  and  N_12 
REMARK    6  A    between atoms: C_14  and  C_15 
REMARK       I    between atoms: C_15  and  N_16 
REMARK    7  A    between atoms: N_16  and  N_17 
REMARK       I    between atoms: N_17  and  C_18 
REMARK    8  A    between atoms: C_18  and  C_19 
ROOT
HETATM    1  C   UNL     1      41.792 -15.426   4.240  1.00  0.00     0.128 C 
ENDROOT
BRANCH   1   2
HETATM    2  C   UNL     1      42.404 -16.478   5.177  1.00  0.00    -0.032 A 
HETATM    3  C   UNL     1      43.473 -17.305   4.783  1.00  0.00     0.046 A 
HETATM    4  C   UNL     1      44.042 -18.236   5.660  1.00  0.00     0.076 A 
HETATM    5  C   UNL     1      43.555 -18.348   6.961  1.00  0.00     0.037 A 
HETATM    6  C   UNL     1      42.464 -17.576   7.357  1.00  0.00     0.003 A 
HETATM    7  C   UNL     1      41.887 -16.664   6.471  1.00  0.00     0.009 A 
BRANCH   4   8
HETATM    8  O   UNL     1      45.120 -18.934   5.159  1.00  0.00    -0.311 OA
BRANCH   8   9
HETATM    9  C   UNL     1      44.899 -20.092   4.456  1.00  0.00     0.076 A 
HETATM   10  C   UNL     1      44.924 -21.352   5.057  1.00  0.00     0.037 A 
HETATM   11  C   UNL     1      44.647 -22.488   4.293  1.00  0.00     0.003 A 
HETATM   12  C   UNL     1      44.319 -22.359   2.942  1.00  0.00     0.000 A 
HETATM   13  C   UNL     1      44.261 -21.095   2.353  1.00  0.00     0.003 A 
HETATM   14  C   UNL     1      44.544 -19.960   3.113  1.00  0.00     0.037 A 
ENDBRANCH   8   9
ENDBRANCH   4   8
ENDBRANCH   1   2
BRANCH   1  15
HETATM   15  N   UNL     1      41.564 -15.977   2.908  1.00  0.00    -0.334 N 
HETATM   16  C   UNL     1      40.419 -15.739   2.219  1.00  0.00     0.314 C 
HETATM   17  N   UNL     1      40.415 -16.308   0.993  1.00  0.00    -0.352 N 
HETATM   18  O   UNL     1      39.488 -15.066   2.634  1.00  0.00    -0.248 OA
HETATM   19  H   UNL     1      40.854 -17.212   0.900  1.00  0.00     0.160 HD
HETATM   20  H   UNL     1      39.528 -16.221   0.511  1.00  0.00     0.160 HD
HETATM   21  H   UNL     1      42.373 -16.240   2.361  1.00  0.00     0.165 HD
ENDBRANCH   1  15
BRANCH   1  22
HETATM   22  C   UNL     1      42.679 -14.174   4.168  1.00  0.00     0.134 C 
BRANCH  22  23
HETATM   23  C   UNL     1      43.296 -13.663   5.452  1.00  0.00     0.238 C 
HETATM   24  N   UNL     1      42.472 -12.984   6.323  1.00  0.00    -0.267 N 
HETATM   25  H   UNL     1      41.725 -12.372   5.975  1.00  0.00     0.190 HD
HETATM   26  O   UNL     1      44.456 -13.960   5.752  1.00  0.00    -0.272 OA
BRANCH  24  27
HETATM   27  N   UNL     1      43.071 -12.548   7.518  1.00  0.00    -0.262 N 
HETATM   28  C   UNL     1      42.814 -11.283   8.010  1.00  0.00     0.293 C 
HETATM   29  O   UNL     1      42.172 -10.442   7.382  1.00  0.00    -0.264 OA
HETATM   30  H   UNL     1      43.523 -13.255   8.098  1.00  0.00     0.190 HD
BRANCH  28  31
HETATM   31  C   UNL     1      43.362 -11.055   9.331  1.00  0.00     0.144 A 
HETATM   32  O   UNL     1      42.535 -10.638  10.344  1.00  0.00    -0.317 OA
HETATM   33  C   UNL     1      43.303 -10.485  11.453  1.00  0.00     0.143 A 
HETATM   34  C   UNL     1      44.612 -10.801  11.180  1.00  0.00     0.027 A 
HETATM   35  C   UNL     1      44.652 -11.167   9.813  1.00  0.00     0.045 A 
ENDBRANCH  28  31
ENDBRANCH  24  27
ENDBRANCH  22  23
ENDBRANCH   1  22
TORSDOF 8
ENDMDL
MODEL 8
REMARK VINA RESULT:      -8.3      2.057      3.492
REMARK  8 active torsions:
REMARK  status: ('A' for Active; 'I' for Inactive)
REMARK    1  A    between atoms: C_4  and  O_5 
REMARK    2  A    between atoms: O_5  and  C_6 
REMARK    3  A    between atoms: C_8  and  C_9 
REMARK    4  A    between atoms: C_9  and  N_10 
REMARK    5  A    between atoms: C_9  and  C_14 
REMARK       I    between atoms: N_10  and  C_11 
REMARK       I    between atoms: C_11  and  N_12 
REMARK    6  A    between atoms: C_14  and  C_15 
REMARK       I    between atoms: C_15  and  N_16 
REMARK    7  A    between atoms: N_16  and  N_17 
REMARK       I    between atoms: N_17  and  C_18 
REMARK    8  A    between atoms: C_18  and  C_19 
ROOT
HETATM    1  C   UNL     1      43.115 -16.047   4.952  1.00  0.00     0.128 C 
ENDROOT
BRANCH   1   2
HETATM    2  C   UNL     1      43.323 -16.690   3.574  1.00  0.00    -0.032 A 
HETATM    3  C   UNL     1      43.327 -18.085   3.387  1.00  0.00     0.046 A 
HETATM    4  C   UNL     1      43.486 -18.655   2.118  1.00  0.00     0.076 A 
HETATM    5  C   UNL     1      43.633 -17.832   1.004  1.00  0.00     0.037 A 
HETATM    6  C   UNL     1      43.684 -16.449   1.170  1.00  0.00     0.003 A 
HETATM    7  C   UNL     1      43.547 -15.887   2.442  1.00  0.00     0.009 A 
BRANCH   4   8
HETATM    8  O   UNL     1      43.407 -20.031   2.077  1.00  0.00    -0.311 OA
BRANCH   8   9
HETATM    9  C   UNL     1      44.022 -20.765   3.060  1.00  0.00     0.076 A 
HETATM   10  C   UNL     1      44.316 -20.238   4.320  1.00  0.00     0.037 A 
HETATM   11  C   UNL     1      44.903 -21.051   5.290  1.00  0.00     0.003 A 
HETATM   12  C   UNL     1      45.168 -22.393   5.011  1.00  0.00     0.000 A 
HETATM   13  C   UNL     1      44.842 -22.926   3.763  1.00  0.00     0.003 A 
HETATM   14  C   UNL     1      44.262 -22.113   2.790  1.00  0.00     0.037 A 
ENDBRANCH   8   9
ENDBRANCH   4   8
ENDBRANCH   1   2
BRANCH   1  15
HETATM   15  N   UNL     1      41.708 -16.078   5.340  1.00  0.00    -0.334 N 
HETATM   16  C   UNL     1      41.275 -16.783   6.416  1.00  0.00     0.314 C 
HETATM   17  N   UNL     1      39.945 -16.656   6.627  1.00  0.00    -0.352 N 
HETATM   18  O   UNL     1      41.995 -17.450   7.143  1.00  0.00    -0.248 OA
HETATM   19  H   UNL     1      39.350 -16.604   5.813  1.00  0.00     0.160 HD
HETATM   20  H   UNL     1      39.595 -17.256   7.365  1.00  0.00     0.160 HD
HETATM   21  H   UNL     1      41.116 -15.318   5.031  1.00  0.00     0.165 HD
ENDBRANCH   1  15
BRANCH   1  22
HETATM   22  C   UNL     1      43.654 -14.609   4.973  1.00  0.00     0.134 C 
BRANCH  22  23
HETATM   23  C   UNL     1      43.214 -13.701   6.100  1.00  0.00     0.238 C 
HETATM   24  N   UNL     1      44.103 -13.498   7.134  1.00  0.00    -0.267 N 
HETATM   25  H   UNL     1      44.720 -14.253   7.456  1.00  0.00     0.190 HD
HETATM   26  O   UNL     1      42.154 -13.073   6.023  1.00  0.00    -0.272 OA
BRANCH  24  27
HETATM   27  N   UNL     1      43.672 -12.626   8.150  1.00  0.00    -0.262 N 
HETATM   28  C   UNL     1      44.512 -12.301   9.197  1.00  0.00     0.293 C 
HETATM   29  O   UNL     1      45.603 -12.842   9.368  1.00  0.00    -0.264 OA
HETATM   30  H   UNL     1      42.818 -12.096   7.978  1.00  0.00     0.190 HD
BRANCH  28  31
HETATM   31  C   UNL     1      43.987 -11.261  10.057  1.00  0.00     0.144 A 
HETATM   32  O   UNL     1      42.776 -10.687   9.762  1.00  0.00    -0.317 OA
HETATM   33  C   UNL     1      42.537  -9.742  10.707  1.00  0.00     0.143 A 
HETATM   34  C   UNL     1      43.569  -9.697  11.615  1.00  0.00     0.027 A 
HETATM   35  C   UNL     1      44.504 -10.674  11.197  1.00  0.00     0.045 A 
ENDBRANCH  28  31
ENDBRANCH  24  27
ENDBRANCH  22  23
ENDBRANCH   1  22
TORSDOF 8
ENDMDL
MODEL 9
REMARK VINA RESULT:      -8.2      4.089      7.613
REMARK  8 active torsions:
REMARK  status: ('A' for Active; 'I' for Inactive)
REMARK    1  A    between atoms: C_4  and  O_5 
REMARK    2  A    between atoms: O_5  and  C_6 
REMARK    3  A    between atoms: C_8  and  C_9 
REMARK    4  A    between atoms: C_9  and  N_10 
REMARK    5  A    between atoms: C_9  and  C_14 
REMARK       I    between atoms: N_10  and  C_11 
REMARK       I    between atoms: C_11  and  N_12 
REMARK    6  A    between atoms: C_14  and  C_15 
REMARK       I    between atoms: C_15  and  N_16 
REMARK    7  A    between atoms: N_16  and  N_17 
REMARK       I    between atoms: N_17  and  C_18 
REMARK    8  A    between atoms: C_18  and  C_19 
ROOT
HETATM    1  C   UNL     1      41.962 -15.094   5.043  1.00  0.00     0.128 C 
ENDROOT
BRANCH   1   2
HETATM    2  C   UNL     1      42.590 -16.364   5.636  1.00  0.00    -0.032 A 
HETATM    3  C   UNL     1      43.540 -17.131   4.936  1.00  0.00     0.046 A 
HETATM    4  C   UNL     1      44.128 -18.267   5.505  1.00  0.00     0.076 A 
HETATM    5  C   UNL     1      43.780 -18.652   6.798  1.00  0.00     0.037 A 
HETATM    6  C   UNL     1      42.803 -17.939   7.490  1.00  0.00     0.003 A 
HETATM    7  C   UNL     1      42.205 -16.818   6.910  1.00  0.00     0.009 A 
BRANCH   4   8
HETATM    8  O   UNL     1      45.086 -18.884   4.729  1.00  0.00    -0.311 OA
BRANCH   8   9
HETATM    9  C   UNL     1      44.713 -19.903   3.889  1.00  0.00     0.076 A 
HETATM   10  C   UNL     1      44.923 -21.249   4.200  1.00  0.00     0.037 A 
HETATM   11  C   UNL     1      44.479 -22.238   3.321  1.00  0.00     0.003 A 
HETATM   12  C   UNL     1      43.803 -21.884   2.152  1.00  0.00     0.000 A 
HETATM   13  C   UNL     1      43.565 -20.541   1.861  1.00  0.00     0.003 A 
HETATM   14  C   UNL     1      44.014 -19.550   2.734  1.00  0.00     0.037 A 
ENDBRANCH   8   9
ENDBRANCH   4   8
ENDBRANCH   1   2
BRANCH   1  15
HETATM   15  N   UNL     1      41.763 -14.077   6.070  1.00  0.00    -0.334 N 
HETATM   16  C   UNL     1      41.883 -12.752   5.802  1.00  0.00     0.314 C 
HETATM   17  N   UNL     1      41.626 -11.972   6.876  1.00  0.00    -0.352 N 
HETATM   18  O   UNL     1      42.169 -12.290   4.707  1.00  0.00    -0.248 OA
HETATM   19  H   UNL     1      41.930 -12.310   7.777  1.00  0.00     0.160 HD
HETATM   20  H   UNL     1      41.811 -10.989   6.713  1.00  0.00     0.160 HD
HETATM   21  H   UNL     1      41.207 -14.324   6.878  1.00  0.00     0.165 HD
ENDBRANCH   1  15
BRANCH   1  22
HETATM   22  C   UNL     1      40.639 -15.417   4.332  1.00  0.00     0.134 C 
BRANCH  22  23
HETATM   23  C   UNL     1      40.530 -15.106   2.856  1.00  0.00     0.238 C 
HETATM   24  N   UNL     1      39.339 -15.406   2.232  1.00  0.00    -0.267 N 
HETATM   25  H   UNL     1      38.797 -16.236   2.499  1.00  0.00     0.190 HD
HETATM   26  O   UNL     1      41.430 -14.492   2.276  1.00  0.00    -0.272 OA
BRANCH  24  27
HETATM   27  N   UNL     1      39.263 -15.078   0.866  1.00  0.00    -0.262 N 
HETATM   28  C   UNL     1      38.493 -14.011   0.444  1.00  0.00     0.293 C 
HETATM   29  O   UNL     1      37.746 -13.389   1.197  1.00  0.00    -0.264 OA
HETATM   30  H   UNL     1      39.943 -15.513   0.244  1.00  0.00     0.190 HD
BRANCH  28  31
HETATM   31  C   UNL     1      38.662 -13.698  -0.960  1.00  0.00     0.144 A 
HETATM   32  O   UNL     1      39.637 -12.811  -1.342  1.00  0.00    -0.317 OA
HETATM   33  C   UNL     1      39.562 -12.688  -2.692  1.00  0.00     0.143 A 
HETATM   34  C   UNL     1      38.560 -13.483  -3.194  1.00  0.00     0.027 A 
HETATM   35  C   UNL     1      37.979 -14.134  -2.079  1.00  0.00     0.045 A 
ENDBRANCH  28  31
ENDBRANCH  24  27
ENDBRANCH  22  23
ENDBRANCH   1  22
TORSDOF 8
ENDMDL
MODEL 10
REMARK VINA RESULT:      -8.2      4.056      7.733
REMARK  8 active torsions:
REMARK  status: ('A' for Active; 'I' for Inactive)
REMARK    1  A    between atoms: C_4  and  O_5 
REMARK    2  A    between atoms: O_5  and  C_6 
REMARK    3  A    between atoms: C_8  and  C_9 
REMARK    4  A    between atoms: C_9  and  N_10 
REMARK    5  A    between atoms: C_9  and  C_14 
REMARK       I    between atoms: N_10  and  C_11 
REMARK       I    between atoms: C_11  and  N_12 
REMARK    6  A    between atoms: C_14  and  C_15 
REMARK       I    between atoms: C_15  and  N_16 
REMARK    7  A    between atoms: N_16  and  N_17 
REMARK       I    between atoms: N_17  and  C_18 
REMARK    8  A    between atoms: C_18  and  C_19 
ROOT
HETATM    1  C   UNL     1      42.272 -13.883   5.130  1.00  0.00     0.128 C 
ENDROOT
BRANCH   1   2
HETATM    2  C   UNL     1      42.199 -15.416   5.147  1.00  0.00    -0.032 A 
HETATM    3  C   UNL     1      43.267 -16.225   4.717  1.00  0.00     0.046 A 
HETATM    4  C   UNL     1      43.196 -17.623   4.770  1.00  0.00     0.076 A 
HETATM    5  C   UNL     1      42.050 -18.239   5.268  1.00  0.00     0.037 A 
HETATM    6  C   UNL     1      40.960 -17.460   5.651  1.00  0.00     0.003 A 
HETATM    7  C   UNL     1      41.028 -16.067   5.576  1.00  0.00     0.009 A 
BRANCH   4   8
HETATM    8  O   UNL     1      44.339 -18.284   4.375  1.00  0.00    -0.311 OA
BRANCH   8   9
HETATM    9  C   UNL     1      44.224 -19.479   3.708  1.00  0.00     0.076 A 
HETATM   10  C   UNL     1      43.684 -19.573   2.423  1.00  0.00     0.037 A 
HETATM   11  C   UNL     1      43.635 -20.813   1.783  1.00  0.00     0.003 A 
HETATM   12  C   UNL     1      44.151 -21.946   2.414  1.00  0.00     0.000 A 
HETATM   13  C   UNL     1      44.721 -21.843   3.683  1.00  0.00     0.003 A 
HETATM   14  C   UNL     1      44.764 -20.606   4.328  1.00  0.00     0.037 A 
ENDBRANCH   8   9
ENDBRANCH   4   8
ENDBRANCH   1   2
BRANCH   1  15
HETATM   15  N   UNL     1      40.938 -13.292   5.132  1.00  0.00    -0.334 N 
HETATM   16  C   UNL     1      40.630 -12.215   5.899  1.00  0.00     0.314 C 
HETATM   17  N   UNL     1      39.354 -11.799   5.733  1.00  0.00    -0.352 N 
HETATM   18  O   UNL     1      41.413 -11.653   6.649  1.00  0.00    -0.248 OA
HETATM   19  H   UNL     1      38.650 -12.508   5.593  1.00  0.00     0.160 HD
HETATM   20  H   UNL     1      39.085 -11.061   6.373  1.00  0.00     0.160 HD
HETATM   21  H   UNL     1      40.348 -13.454   4.327  1.00  0.00     0.165 HD
ENDBRANCH   1  15
BRANCH   1  22
HETATM   22  C   UNL     1      43.086 -13.386   3.926  1.00  0.00     0.134 C 
BRANCH  22  23
HETATM   23  C   UNL     1      42.369 -13.210   2.606  1.00  0.00     0.238 C 
HETATM   24  N   UNL     1      42.405 -14.265   1.720  1.00  0.00    -0.267 N 
HETATM   25  H   UNL     1      43.240 -14.857   1.638  1.00  0.00     0.190 HD
HETATM   26  O   UNL     1      41.677 -12.210   2.396  1.00  0.00    -0.272 OA
BRANCH  24  27
HETATM   27  N   UNL     1      41.705 -14.078   0.515  1.00  0.00    -0.262 N 
HETATM   28  C   UNL     1      41.355 -15.161  -0.268  1.00  0.00     0.293 C 
HETATM   29  O   UNL     1      41.740 -16.305  -0.032  1.00  0.00    -0.264 OA
HETATM   30  H   UNL     1      41.295 -13.158   0.352  1.00  0.00     0.190 HD
BRANCH  28  31
HETATM   31  C   UNL     1      40.488 -14.816  -1.376  1.00  0.00     0.144 A 
HETATM   32  O   UNL     1      40.728 -15.355  -2.615  1.00  0.00    -0.317 OA
HETATM   33  C   UNL     1      39.791 -14.855  -3.460  1.00  0.00     0.143 A 
HETATM   34  C   UNL     1      38.942 -14.006  -2.790  1.00  0.00     0.027 A 
HETATM   35  C   UNL     1      39.391 -13.979  -1.448  1.00  0.00     0.045 A 
ENDBRANCH  28  31
ENDBRANCH  24  27
ENDBRANCH  22  23
ENDBRANCH   1  22
TORSDOF 8
ENDMDL
