MODEL 1
REMARK VINA RESULT:      -8.2      0.000      0.000
REMARK  6 active torsions:
REMARK  status: ('A' for Active; 'I' for Inactive)
REMARK    1  A    between atoms: C_2  and  O_3 
REMARK    2  A    between atoms: O_3  and  C_4 
REMARK    3  A    between atoms: C_9  and  S_10 
REMARK    4  A    between atoms: S_10  and  C_11 
REMARK    5  A    between atoms: C_11  and  C_12 
REMARK       I    between atoms: C_12  and  N_13 
REMARK    6  A    between atoms: N_13  and  C_14 
ROOT
HETATM    1  C   UNL     1      44.161 -14.303   6.938  1.00  0.00     0.069 A 
HETATM    2  C   UNL     1      43.185 -13.616   6.220  1.00  0.00     0.050 A 
HETATM    3  C   UNL     1      42.396 -14.289   5.266  1.00  0.00    -0.004 A 
HETATM    4  C   UNL     1      42.570 -15.665   5.037  1.00  0.00     0.068 A 
HETATM    5  N   UNL     1      41.853 -16.341   4.126  1.00  0.00    -0.241 NA
HETATM    6  C   UNL     1      40.967 -15.666   3.356  1.00  0.00     0.100 A 
HETATM    7  C   UNL     1      40.696 -14.308   3.524  1.00  0.00    -0.026 A 
HETATM    8  C   UNL     1      39.680 -13.571   2.704  1.00  0.00     0.051 C 
HETATM    9  C   UNL     1      41.426 -13.624   4.504  1.00  0.00     0.023 A 
HETATM   10  C   UNL     1      43.527 -16.336   5.783  1.00  0.00     0.035 A 
HETATM   11  C   UNL     1      44.318 -15.670   6.724  1.00  0.00     0.039 A 
ENDROOT
BRANCH   6  12
HETATM   12  S   UNL     1      40.212 -16.633   2.063  1.00  0.00    -0.096 SA
BRANCH  12  13
HETATM   13  C   UNL     1      41.531 -16.661   0.789  1.00  0.00     0.142 C 
HETATM   14  C   UNL     1      41.895 -15.290   0.231  1.00  0.00     0.031 C 
BRANCH  13  15
HETATM   15  C   UNL     1      42.717 -17.517   1.247  1.00  0.00     0.236 C 
HETATM   16  N   UNL     1      42.376 -18.669   1.933  1.00  0.00    -0.326 N 
HETATM   17  H   UNL     1      41.386 -18.891   1.986  1.00  0.00     0.169 HD
HETATM   18  O   UNL     1      43.863 -17.172   0.961  1.00  0.00    -0.272 OA
BRANCH  16  19
HETATM   19  C   UNL     1      43.247 -19.643   2.464  1.00  0.00     0.034 A 
HETATM   20  C   UNL     1      43.494 -20.881   1.868  1.00  0.00     0.029 A 
HETATM   21  C   UNL     1      44.374 -21.792   2.460  1.00  0.00     0.002 A 
HETATM   22  C   UNL     1      45.018 -21.472   3.651  1.00  0.00     0.000 A 
HETATM   23  C   UNL     1      44.782 -20.239   4.254  1.00  0.00     0.002 A 
HETATM   24  C   UNL     1      43.901 -19.329   3.663  1.00  0.00     0.029 A 
ENDBRANCH  16  19
ENDBRANCH  13  15
ENDBRANCH  12  13
ENDBRANCH   6  12
BRANCH   1  25
HETATM   25  O   UNL     1      45.009 -13.766   7.864  1.00  0.00    -0.351 OA
BRANCH  25  26
HETATM   26  C   UNL     1      44.584 -12.570   8.517  1.00  0.00     0.171 C 
HETATM   27  C   UNL     1      45.805 -11.916   9.138  1.00  0.00     0.034 C 
ENDBRANCH  25  26
ENDBRANCH   1  25
TORSDOF 6
ENDMDL
MODEL 2
REMARK VINA RESULT:      -7.9      2.567      5.568
REMARK  6 active torsions:
REMARK  status: ('A' for Active; 'I' for Inactive)
REMARK    1  A    between atoms: C_2  and  O_3 
REMARK    2  A    between atoms: O_3  and  C_4 
REMARK    3  A    between atoms: C_9  and  S_10 
REMARK    4  A    between atoms: S_10  and  C_11 
REMARK    5  A    between atoms: C_11  and  C_12 
REMARK       I    between atoms: C_12  and  N_13 
REMARK    6  A    between atoms: N_13  and  C_14 
ROOT
HETATM    1  C   UNL     1      41.554 -15.483   1.042  1.00  0.00     0.069 A 
HETATM    2  C   UNL     1      42.378 -14.900   2.003  1.00  0.00     0.050 A 
HETATM    3  C   UNL     1      42.505 -15.482   3.280  1.00  0.00    -0.004 A 
HETATM    4  C   UNL     1      41.815 -16.665   3.598  1.00  0.00     0.068 A 
HETATM    5  N   UNL     1      41.893 -17.242   4.807  1.00  0.00    -0.241 NA
HETATM    6  C   UNL     1      42.617 -16.636   5.779  1.00  0.00     0.100 A 
HETATM    7  C   UNL     1      43.363 -15.479   5.558  1.00  0.00    -0.026 A 
HETATM    8  C   UNL     1      44.203 -14.835   6.620  1.00  0.00     0.051 C 
HETATM    9  C   UNL     1      43.301 -14.908   4.281  1.00  0.00     0.023 A 
HETATM   10  C   UNL     1      41.022 -17.244   2.619  1.00  0.00     0.035 A 
HETATM   11  C   UNL     1      40.888 -16.665   1.353  1.00  0.00     0.039 A 
ENDROOT
BRANCH   6  12
HETATM   12  S   UNL     1      42.495 -17.397   7.385  1.00  0.00    -0.096 SA
BRANCH  12  13
HETATM   13  C   UNL     1      44.024 -18.410   7.443  1.00  0.00     0.142 C 
HETATM   14  C   UNL     1      44.509 -18.736   8.850  1.00  0.00     0.031 C 
BRANCH  13  15
HETATM   15  C   UNL     1      43.925 -19.607   6.490  1.00  0.00     0.236 C 
HETATM   16  N   UNL     1      44.268 -19.338   5.177  1.00  0.00    -0.326 N 
HETATM   17  H   UNL     1      44.641 -18.413   4.983  1.00  0.00     0.169 HD
HETATM   18  O   UNL     1      43.596 -20.708   6.930  1.00  0.00    -0.272 OA
BRANCH  16  19
HETATM   19  C   UNL     1      44.278 -20.237   4.090  1.00  0.00     0.034 A 
HETATM   20  C   UNL     1      44.727 -21.557   4.170  1.00  0.00     0.029 A 
HETATM   21  C   UNL     1      44.702 -22.385   3.043  1.00  0.00     0.002 A 
HETATM   22  C   UNL     1      44.224 -21.903   1.829  1.00  0.00     0.000 A 
HETATM   23  C   UNL     1      43.770 -20.590   1.738  1.00  0.00     0.002 A 
HETATM   24  C   UNL     1      43.797 -19.761   2.863  1.00  0.00     0.029 A 
ENDBRANCH  16  19
ENDBRANCH  13  15
ENDBRANCH  12  13
ENDBRANCH   6  12
BRANCH   1  25
HETATM   25  O   UNL     1      41.321 -15.006  -0.217  1.00  0.00    -0.351 OA
BRANCH  25  26
HETATM   26  C   UNL     1      40.643 -13.755  -0.322  1.00  0.00     0.171 C 
HETATM   27  C   UNL     1      39.171 -13.994  -0.037  1.00  0.00     0.034 C 
ENDBRANCH  25  26
ENDBRANCH   1  25
TORSDOF 6
ENDMDL
MODEL 3
REMARK VINA RESULT:      -7.8      2.991      6.662
REMARK  6 active torsions:
REMARK  status: ('A' for Active; 'I' for Inactive)
REMARK    1  A    between atoms: C_2  and  O_3 
REMARK    2  A    between atoms: O_3  and  C_4 
REMARK    3  A    between atoms: C_9  and  S_10 
REMARK    4  A    between atoms: S_10  and  C_11 
REMARK    5  A    between atoms: C_11  and  C_12 
REMARK       I    between atoms: C_12  and  N_13 
REMARK    6  A    between atoms: N_13  and  C_14 
ROOT
HETATM    1  C   UNL     1      44.061 -19.833   2.981  1.00  0.00     0.069 A 
HETATM    2  C   UNL     1      43.499 -19.246   4.114  1.00  0.00     0.050 A 
HETATM    3  C   UNL     1      42.629 -18.144   3.989  1.00  0.00    -0.004 A 
HETATM    4  C   UNL     1      42.303 -17.631   2.721  1.00  0.00     0.068 A 
HETATM    5  N   UNL     1      41.494 -16.573   2.557  1.00  0.00    -0.241 NA
HETATM    6  C   UNL     1      41.016 -15.936   3.653  1.00  0.00     0.100 A 
HETATM    7  C   UNL     1      41.253 -16.383   4.952  1.00  0.00    -0.026 A 
HETATM    8  C   UNL     1      40.684 -15.706   6.164  1.00  0.00     0.051 C 
HETATM    9  C   UNL     1      42.070 -17.510   5.106  1.00  0.00     0.023 A 
HETATM   10  C   UNL     1      42.851 -18.248   1.606  1.00  0.00     0.035 A 
HETATM   11  C   UNL     1      43.720 -19.336   1.726  1.00  0.00     0.039 A 
ENDROOT
BRANCH   6  12
HETATM   12  S   UNL     1      40.107 -14.443   3.311  1.00  0.00    -0.096 SA
BRANCH  12  13
HETATM   13  C   UNL     1      41.440 -13.299   2.782  1.00  0.00     0.142 C 
HETATM   14  C   UNL     1      42.754 -13.474   3.534  1.00  0.00     0.031 C 
BRANCH  13  15
HETATM   15  C   UNL     1      41.560 -13.267   1.254  1.00  0.00     0.236 C 
HETATM   16  N   UNL     1      40.644 -14.055   0.580  1.00  0.00    -0.326 N 
HETATM   17  H   UNL     1      39.925 -14.501   1.142  1.00  0.00     0.169 HD
HETATM   18  O   UNL     1      42.402 -12.542   0.725  1.00  0.00    -0.272 OA
BRANCH  16  19
HETATM   19  C   UNL     1      40.512 -14.217  -0.815  1.00  0.00     0.034 A 
HETATM   20  C   UNL     1      39.875 -13.299  -1.654  1.00  0.00     0.029 A 
HETATM   21  C   UNL     1      39.788 -13.536  -3.029  1.00  0.00     0.002 A 
HETATM   22  C   UNL     1      40.340 -14.688  -3.580  1.00  0.00     0.000 A 
HETATM   23  C   UNL     1      40.981 -15.609  -2.754  1.00  0.00     0.002 A 
HETATM   24  C   UNL     1      41.066 -15.374  -1.379  1.00  0.00     0.029 A 
ENDBRANCH  16  19
ENDBRANCH  13  15
ENDBRANCH  12  13
ENDBRANCH   6  12
BRANCH   1  25
HETATM   25  O   UNL     1      44.937 -20.880   2.967  1.00  0.00    -0.351 OA
BRANCH  25  26
HETATM   26  C   UNL     1      44.393 -22.185   3.166  1.00  0.00     0.171 C 
HETATM   27  C   UNL     1      44.750 -22.631   4.572  1.00  0.00     0.034 C 
ENDBRANCH  25  26
ENDBRANCH   1  25
TORSDOF 6
ENDMDL
MODEL 4
REMARK VINA RESULT:      -7.6      2.294      5.742
REMARK  6 active torsions:
REMARK  status: ('A' for Active; 'I' for Inactive)
REMARK    1  A    between atoms: C_2  and  O_3 
REMARK    2  A    between atoms: O_3  and  C_4 
REMARK    3  A    between atoms: C_9  and  S_10 
REMARK    4  A    between atoms: S_10  and  C_11 
REMARK    5  A    between atoms: C_11  and  C_12 
REMARK       I    between atoms: C_12  and  N_13 
REMARK    6  A    between atoms: N_13  and  C_14 
ROOT
HETATM    1  C   UNL     1      43.067 -19.543   1.841  1.00  0.00     0.069 A 
HETATM    2  C   UNL     1      41.815 -18.931   1.828  1.00  0.00     0.050 A 
HETATM    3  C   UNL     1      41.707 -17.526   1.830  1.00  0.00    -0.004 A 
HETATM    4  C   UNL     1      42.860 -16.722   1.829  1.00  0.00     0.068 A 
HETATM    5  N   UNL     1      42.804 -15.381   1.849  1.00  0.00    -0.241 NA
HETATM    6  C   UNL     1      41.595 -14.776   1.931  1.00  0.00     0.100 A 
HETATM    7  C   UNL     1      40.392 -15.480   1.905  1.00  0.00    -0.026 A 
HETATM    8  C   UNL     1      39.052 -14.808   1.947  1.00  0.00     0.051 C 
HETATM    9  C   UNL     1      40.466 -16.877   1.847  1.00  0.00     0.023 A 
HETATM   10  C   UNL     1      44.097 -17.350   1.814  1.00  0.00     0.035 A 
HETATM   11  C   UNL     1      44.207 -18.743   1.820  1.00  0.00     0.039 A 
ENDROOT
BRANCH   6  12
HETATM   12  S   UNL     1      41.657 -13.007   2.135  1.00  0.00    -0.096 SA
BRANCH  12  13
HETATM   13  C   UNL     1      41.874 -12.841   3.949  1.00  0.00     0.142 C 
HETATM   14  C   UNL     1      40.570 -12.768   4.734  1.00  0.00     0.031 C 
BRANCH  13  15
HETATM   15  C   UNL     1      42.898 -13.855   4.473  1.00  0.00     0.236 C 
HETATM   16  N   UNL     1      42.354 -14.999   5.031  1.00  0.00    -0.326 N 
HETATM   17  H   UNL     1      41.347 -15.107   4.957  1.00  0.00     0.169 HD
HETATM   18  O   UNL     1      44.100 -13.629   4.342  1.00  0.00    -0.272 OA
BRANCH  16  19
HETATM   19  C   UNL     1      43.045 -16.098   5.583  1.00  0.00     0.034 A 
HETATM   20  C   UNL     1      44.138 -15.983   6.444  1.00  0.00     0.029 A 
HETATM   21  C   UNL     1      44.768 -17.125   6.949  1.00  0.00     0.002 A 
HETATM   22  C   UNL     1      44.308 -18.391   6.602  1.00  0.00     0.000 A 
HETATM   23  C   UNL     1      43.216 -18.518   5.747  1.00  0.00     0.002 A 
HETATM   24  C   UNL     1      42.588 -17.377   5.240  1.00  0.00     0.029 A 
ENDBRANCH  16  19
ENDBRANCH  13  15
ENDBRANCH  12  13
ENDBRANCH   6  12
BRANCH   1  25
HETATM   25  O   UNL     1      43.308 -20.887   1.871  1.00  0.00    -0.351 OA
BRANCH  25  26
HETATM   26  C   UNL     1      44.611 -21.303   2.279  1.00  0.00     0.171 C 
HETATM   27  C   UNL     1      44.448 -22.375   3.341  1.00  0.00     0.034 C 
ENDBRANCH  25  26
ENDBRANCH   1  25
TORSDOF 6
ENDMDL
MODEL 5
REMARK VINA RESULT:      -7.3      2.292      5.836
REMARK  6 active torsions:
REMARK  status: ('A' for Active; 'I' for Inactive)
REMARK    1  A    between atoms: C_2  and  O_3 
REMARK    2  A    between atoms: O_3  and  C_4 
REMARK    3  A    between atoms: C_9  and  S_10 
REMARK    4  A    between atoms: S_10  and  C_11 
REMARK    5  A    between atoms: C_11  and  C_12 
REMARK       I    between atoms: C_12  and  N_13 
REMARK    6  A    between atoms: N_13  and  C_14 
ROOT
HETATM    1  C   UNL     1      40.601 -14.813  -0.604  1.00  0.00     0.069 A 
HETATM    2  C   UNL     1      40.225 -14.109   0.540  1.00  0.00     0.050 A 
HETATM    3  C   UNL     1      40.587 -14.580   1.818  1.00  0.00    -0.004 A 
HETATM    4  C   UNL     1      41.344 -15.756   1.957  1.00  0.00     0.068 A 
HETATM    5  N   UNL     1      41.695 -16.249   3.155  1.00  0.00    -0.241 NA
HETATM    6  C   UNL     1      41.257 -15.627   4.275  1.00  0.00     0.100 A 
HETATM    7  C   UNL     1      40.529 -14.438   4.246  1.00  0.00    -0.026 A 
HETATM    8  C   UNL     1      40.085 -13.723   5.487  1.00  0.00     0.051 C 
HETATM    9  C   UNL     1      40.201 -13.916   2.989  1.00  0.00     0.023 A 
HETATM   10  C   UNL     1      41.732 -16.425   0.806  1.00  0.00     0.035 A 
HETATM   11  C   UNL     1      41.368 -15.966  -0.463  1.00  0.00     0.039 A 
ENDROOT
BRANCH   6  12
HETATM   12  S   UNL     1      41.632 -16.476   5.797  1.00  0.00    -0.096 SA
BRANCH  12  13
HETATM   13  C   UNL     1      43.464 -16.390   5.838  1.00  0.00     0.142 C 
HETATM   14  C   UNL     1      44.036 -15.783   7.113  1.00  0.00     0.031 C 
BRANCH  13  15
HETATM   15  C   UNL     1      44.084 -17.727   5.414  1.00  0.00     0.236 C 
HETATM   16  N   UNL     1      43.447 -18.358   4.360  1.00  0.00    -0.326 N 
HETATM   17  H   UNL     1      42.698 -17.843   3.906  1.00  0.00     0.169 HD
HETATM   18  O   UNL     1      45.097 -18.135   5.981  1.00  0.00    -0.272 OA
BRANCH  16  19
HETATM   19  C   UNL     1      43.794 -19.584   3.756  1.00  0.00     0.034 A 
HETATM   20  C   UNL     1      44.534 -20.586   4.388  1.00  0.00     0.029 A 
HETATM   21  C   UNL     1      44.835 -21.776   3.718  1.00  0.00     0.002 A 
HETATM   22  C   UNL     1      44.396 -21.977   2.413  1.00  0.00     0.000 A 
HETATM   23  C   UNL     1      43.654 -20.987   1.774  1.00  0.00     0.002 A 
HETATM   24  C   UNL     1      43.355 -19.797   2.443  1.00  0.00     0.029 A 
ENDBRANCH  16  19
ENDBRANCH  13  15
ENDBRANCH  12  13
ENDBRANCH   6  12
BRANCH   1  25
HETATM   25  O   UNL     1      40.291 -14.483  -1.892  1.00  0.00    -0.351 OA
BRANCH  25  26
HETATM   26  C   UNL     1      39.302 -13.471  -2.083  1.00  0.00     0.171 C 
HETATM   27  C   UNL     1      38.390 -13.915  -3.212  1.00  0.00     0.034 C 
ENDBRANCH  25  26
ENDBRANCH   1  25
TORSDOF 6
ENDMDL
MODEL 6
REMARK VINA RESULT:      -7.3      2.549      6.711
REMARK  6 active torsions:
REMARK  status: ('A' for Active; 'I' for Inactive)
REMARK    1  A    between atoms: C_2  and  O_3 
REMARK    2  A    between atoms: O_3  and  C_4 
REMARK    3  A    between atoms: C_9  and  S_10 
REMARK    4  A    between atoms: S_10  and  C_11 
REMARK    5  A    between atoms: C_11  and  C_12 
REMARK       I    between atoms: C_12  and  N_13 
REMARK    6  A    between atoms: N_13  and  C_14 
ROOT
HETATM    1  C   UNL     1      44.352 -19.713   3.481  1.00  0.00     0.069 A 
HETATM    2  C   UNL     1      43.387 -19.208   2.610  1.00  0.00     0.050 A 
HETATM    3  C   UNL     1      42.657 -18.052   2.949  1.00  0.00    -0.004 A 
HETATM    4  C   UNL     1      42.901 -17.382   4.161  1.00  0.00     0.068 A 
HETATM    5  N   UNL     1      42.217 -16.289   4.531  1.00  0.00    -0.241 NA
HETATM    6  C   UNL     1      41.213 -15.843   3.739  1.00  0.00     0.100 A 
HETATM    7  C   UNL     1      40.912 -16.415   2.504  1.00  0.00    -0.026 A 
HETATM    8  C   UNL     1      39.832 -15.892   1.604  1.00  0.00     0.051 C 
HETATM    9  C   UNL     1      41.659 -17.534   2.114  1.00  0.00     0.023 A 
HETATM   10  C   UNL     1      43.885 -17.884   5.000  1.00  0.00     0.035 A 
HETATM   11  C   UNL     1      44.606 -19.036   4.670  1.00  0.00     0.039 A 
ENDROOT
BRANCH   6  12
HETATM   12  S   UNL     1      40.262 -14.500   4.422  1.00  0.00    -0.096 SA
BRANCH  12  13
HETATM   13  C   UNL     1      41.445 -13.102   4.314  1.00  0.00     0.142 C 
HETATM   14  C   UNL     1      42.345 -12.945   5.533  1.00  0.00     0.031 C 
BRANCH  13  15
HETATM   15  C   UNL     1      42.167 -13.100   2.962  1.00  0.00     0.236 C 
HETATM   16  N   UNL     1      41.421 -12.614   1.902  1.00  0.00    -0.326 N 
HETATM   17  H   UNL     1      40.513 -12.220   2.127  1.00  0.00     0.169 HD
HETATM   18  O   UNL     1      43.337 -13.476   2.896  1.00  0.00    -0.272 OA
BRANCH  16  19
HETATM   19  C   UNL     1      41.823 -12.488   0.556  1.00  0.00     0.034 A 
HETATM   20  C   UNL     1      41.698 -13.501  -0.397  1.00  0.00     0.029 A 
HETATM   21  C   UNL     1      42.120 -13.294  -1.714  1.00  0.00     0.002 A 
HETATM   22  C   UNL     1      42.667 -12.071  -2.091  1.00  0.00     0.000 A 
HETATM   23  C   UNL     1      42.793 -11.052  -1.151  1.00  0.00     0.002 A 
HETATM   24  C   UNL     1      42.373 -11.260   0.166  1.00  0.00     0.029 A 
ENDBRANCH  16  19
ENDBRANCH  13  15
ENDBRANCH  12  13
ENDBRANCH   6  12
BRANCH   1  25
HETATM   25  O   UNL     1      45.105 -20.836   3.287  1.00  0.00    -0.351 OA
BRANCH  25  26
HETATM   26  C   UNL     1      44.434 -22.092   3.388  1.00  0.00     0.171 C 
HETATM   27  C   UNL     1      44.718 -22.665   4.765  1.00  0.00     0.034 C 
ENDBRANCH  25  26
ENDBRANCH   1  25
TORSDOF 6
ENDMDL
MODEL 7
REMARK VINA RESULT:      -7.3      2.301      5.656
REMARK  6 active torsions:
REMARK  status: ('A' for Active; 'I' for Inactive)
REMARK    1  A    between atoms: C_2  and  O_3 
REMARK    2  A    between atoms: O_3  and  C_4 
REMARK    3  A    between atoms: C_9  and  S_10 
REMARK    4  A    between atoms: S_10  and  C_11 
REMARK    5  A    between atoms: C_11  and  C_12 
REMARK       I    between atoms: C_12  and  N_13 
REMARK    6  A    between atoms: N_13  and  C_14 
ROOT
HETATM    1  C   UNL     1      43.480 -19.291   2.615  1.00  0.00     0.069 A 
HETATM    2  C   UNL     1      42.183 -18.798   2.749  1.00  0.00     0.050 A 
HETATM    3  C   UNL     1      41.812 -17.588   2.130  1.00  0.00    -0.004 A 
HETATM    4  C   UNL     1      42.740 -16.868   1.357  1.00  0.00     0.068 A 
HETATM    5  N   UNL     1      42.435 -15.703   0.765  1.00  0.00    -0.241 NA
HETATM    6  C   UNL     1      41.207 -15.167   0.963  1.00  0.00     0.100 A 
HETATM    7  C   UNL     1      40.206 -15.815   1.685  1.00  0.00    -0.026 A 
HETATM    8  C   UNL     1      38.830 -15.245   1.864  1.00  0.00     0.051 C 
HETATM    9  C   UNL     1      40.527 -17.048   2.266  1.00  0.00     0.023 A 
HETATM   10  C   UNL     1      44.017 -17.389   1.214  1.00  0.00     0.035 A 
HETATM   11  C   UNL     1      44.390 -18.586   1.833  1.00  0.00     0.039 A 
ENDROOT
BRANCH   6  12
HETATM   12  S   UNL     1      40.984 -13.536   0.281  1.00  0.00    -0.096 SA
BRANCH  12  13
HETATM   13  C   UNL     1      42.002 -12.509   1.410  1.00  0.00     0.142 C 
HETATM   14  C   UNL     1      41.737 -11.012   1.307  1.00  0.00     0.031 C 
BRANCH  13  15
HETATM   15  C   UNL     1      41.987 -13.080   2.832  1.00  0.00     0.236 C 
HETATM   16  N   UNL     1      43.157 -13.709   3.221  1.00  0.00    -0.326 N 
HETATM   17  H   UNL     1      43.941 -13.652   2.577  1.00  0.00     0.169 HD
HETATM   18  O   UNL     1      40.993 -12.924   3.541  1.00  0.00    -0.272 OA
BRANCH  16  19
HETATM   19  C   UNL     1      43.434 -14.317   4.463  1.00  0.00     0.034 A 
HETATM   20  C   UNL     1      43.958 -13.640   5.567  1.00  0.00     0.029 A 
HETATM   21  C   UNL     1      44.203 -14.319   6.765  1.00  0.00     0.002 A 
HETATM   22  C   UNL     1      43.923 -15.677   6.872  1.00  0.00     0.000 A 
HETATM   23  C   UNL     1      43.397 -16.362   5.779  1.00  0.00     0.002 A 
HETATM   24  C   UNL     1      43.154 -15.685   4.581  1.00  0.00     0.029 A 
ENDBRANCH  16  19
ENDBRANCH  13  15
ENDBRANCH  12  13
ENDBRANCH   6  12
BRANCH   1  25
HETATM   25  O   UNL     1      43.973 -20.429   3.186  1.00  0.00    -0.351 OA
BRANCH  25  26
HETATM   26  C   UNL     1      44.991 -20.272   4.174  1.00  0.00     0.171 C 
HETATM   27  C   UNL     1      44.316 -19.949   5.494  1.00  0.00     0.034 C 
ENDBRANCH  25  26
ENDBRANCH   1  25
TORSDOF 6
ENDMDL
MODEL 8
REMARK VINA RESULT:      -7.1      3.232      6.763
REMARK  6 active torsions:
REMARK  status: ('A' for Active; 'I' for Inactive)
REMARK    1  A    between atoms: C_2  and  O_3 
REMARK    2  A    between atoms: O_3  and  C_4 
REMARK    3  A    between atoms: C_9  and  S_10 
REMARK    4  A    between atoms: S_10  and  C_11 
REMARK    5  A    between atoms: C_11  and  C_12 
REMARK       I    between atoms: C_12  and  N_13 
REMARK    6  A    between atoms: N_13  and  C_14 
ROOT
HETATM    1  C   UNL     1      43.680 -18.733   2.715  1.00  0.00     0.069 A 
HETATM    2  C   UNL     1      42.842 -18.239   3.714  1.00  0.00     0.050 A 
HETATM    3  C   UNL     1      42.341 -16.923   3.638  1.00  0.00    -0.004 A 
HETATM    4  C   UNL     1      42.667 -16.097   2.548  1.00  0.00     0.068 A 
HETATM    5  N   UNL     1      42.227 -14.833   2.445  1.00  0.00    -0.241 NA
HETATM    6  C   UNL     1      41.489 -14.311   3.453  1.00  0.00     0.100 A 
HETATM    7  C   UNL     1      41.085 -15.055   4.561  1.00  0.00    -0.026 A 
HETATM    8  C   UNL     1      40.227 -14.491   5.654  1.00  0.00     0.051 C 
HETATM    9  C   UNL     1      41.521 -16.384   4.637  1.00  0.00     0.023 A 
HETATM   10  C   UNL     1      43.479 -16.617   1.552  1.00  0.00     0.035 A 
HETATM   11  C   UNL     1      43.984 -17.919   1.628  1.00  0.00     0.039 A 
ENDROOT
BRANCH   6  12
HETATM   12  S   UNL     1      41.120 -12.575   3.288  1.00  0.00    -0.096 SA
BRANCH  12  13
HETATM   13  C   UNL     1      39.533 -12.610   2.368  1.00  0.00     0.142 C 
HETATM   14  C   UNL     1      38.542 -11.530   2.785  1.00  0.00     0.031 C 
BRANCH  13  15
HETATM   15  C   UNL     1      39.777 -12.728   0.860  1.00  0.00     0.236 C 
HETATM   16  N   UNL     1      39.660 -14.009   0.348  1.00  0.00    -0.326 N 
HETATM   17  H   UNL     1      39.333 -14.727   0.987  1.00  0.00     0.169 HD
HETATM   18  O   UNL     1      40.016 -11.717   0.201  1.00  0.00    -0.272 OA
BRANCH  16  19
HETATM   19  C   UNL     1      39.821 -14.416  -0.993  1.00  0.00     0.034 A 
HETATM   20  C   UNL     1      40.930 -15.117  -1.471  1.00  0.00     0.029 A 
HETATM   21  C   UNL     1      41.012 -15.485  -2.817  1.00  0.00     0.002 A 
HETATM   22  C   UNL     1      39.985 -15.159  -3.698  1.00  0.00     0.000 A 
HETATM   23  C   UNL     1      38.872 -14.464  -3.232  1.00  0.00     0.002 A 
HETATM   24  C   UNL     1      38.791 -14.094  -1.887  1.00  0.00     0.029 A 
ENDBRANCH  16  19
ENDBRANCH  13  15
ENDBRANCH  12  13
ENDBRANCH   6  12
BRANCH   1  25
HETATM   25  O   UNL     1      44.254 -19.971   2.684  1.00  0.00    -0.351 OA
BRANCH  25  26
HETATM   26  C   UNL     1      43.634 -20.953   1.855  1.00  0.00     0.171 C 
HETATM   27  C   UNL     1      44.456 -22.227   1.943  1.00  0.00     0.034 C 
ENDBRANCH  25  26
ENDBRANCH   1  25
TORSDOF 6
ENDMDL
MODEL 9
REMARK VINA RESULT:      -7.1      2.728      6.026
REMARK  6 active torsions:
REMARK  status: ('A' for Active; 'I' for Inactive)
REMARK    1  A    between atoms: C_2  and  O_3 
REMARK    2  A    between atoms: O_3  and  C_4 
REMARK    3  A    between atoms: C_9  and  S_10 
REMARK    4  A    between atoms: S_10  and  C_11 
REMARK    5  A    between atoms: C_11  and  C_12 
REMARK       I    between atoms: C_12  and  N_13 
REMARK    6  A    between atoms: N_13  and  C_14 
ROOT
HETATM    1  C   UNL     1      39.224 -13.419  -0.218  1.00  0.00     0.069 A 
HETATM    2  C   UNL     1      40.515 -13.222   0.270  1.00  0.00     0.050 A 
HETATM    3  C   UNL     1      40.898 -13.766   1.512  1.00  0.00    -0.004 A 
HETATM    4  C   UNL     1      39.991 -14.529   2.268  1.00  0.00     0.068 A 
HETATM    5  N   UNL     1      40.308 -15.050   3.463  1.00  0.00    -0.241 NA
HETATM    6  C   UNL     1      41.527 -14.788   3.991  1.00  0.00     0.100 A 
HETATM    7  C   UNL     1      42.510 -14.071   3.310  1.00  0.00    -0.026 A 
HETATM    8  C   UNL     1      43.877 -13.821   3.874  1.00  0.00     0.051 C 
HETATM    9  C   UNL     1      42.177 -13.564   2.048  1.00  0.00     0.023 A 
HETATM   10  C   UNL     1      38.721 -14.737   1.751  1.00  0.00     0.035 A 
HETATM   11  C   UNL     1      38.335 -14.191   0.523  1.00  0.00     0.039 A 
ENDROOT
BRANCH   6  12
HETATM   12  S   UNL     1      41.764 -15.379   5.656  1.00  0.00    -0.096 SA
BRANCH  12  13
HETATM   13  C   UNL     1      43.343 -16.302   5.511  1.00  0.00     0.142 C 
HETATM   14  C   UNL     1      44.248 -16.193   6.731  1.00  0.00     0.031 C 
BRANCH  13  15
HETATM   15  C   UNL     1      43.100 -17.727   5.001  1.00  0.00     0.236 C 
HETATM   16  N   UNL     1      44.095 -18.232   4.182  1.00  0.00    -0.326 N 
HETATM   17  H   UNL     1      44.928 -17.661   4.072  1.00  0.00     0.169 HD
HETATM   18  O   UNL     1      42.096 -18.339   5.361  1.00  0.00    -0.272 OA
BRANCH  16  19
HETATM   19  C   UNL     1      44.146 -19.505   3.577  1.00  0.00     0.034 A 
HETATM   20  C   UNL     1      43.766 -19.760   2.257  1.00  0.00     0.029 A 
HETATM   21  C   UNL     1      43.848 -21.054   1.732  1.00  0.00     0.002 A 
HETATM   22  C   UNL     1      44.314 -22.102   2.519  1.00  0.00     0.000 A 
HETATM   23  C   UNL     1      44.700 -21.859   3.835  1.00  0.00     0.002 A 
HETATM   24  C   UNL     1      44.616 -20.567   4.361  1.00  0.00     0.029 A 
ENDBRANCH  16  19
ENDBRANCH  13  15
ENDBRANCH  12  13
ENDBRANCH   6  12
BRANCH   1  25
HETATM   25  O   UNL     1      38.720 -12.923  -1.386  1.00  0.00    -0.351 OA
BRANCH  25  26
HETATM   26  C   UNL     1      38.057 -13.845  -2.250  1.00  0.00     0.171 C 
HETATM   27  C   UNL     1      39.091 -14.426  -3.198  1.00  0.00     0.034 C 
ENDBRANCH  25  26
ENDBRANCH   1  25
TORSDOF 6
ENDMDL
MODEL 10
REMARK VINA RESULT:      -7.1      3.589      7.330
REMARK  6 active torsions:
REMARK  status: ('A' for Active; 'I' for Inactive)
REMARK    1  A    between atoms: C_2  and  O_3 
REMARK    2  A    between atoms: O_3  and  C_4 
REMARK    3  A    between atoms: C_9  and  S_10 
REMARK    4  A    between atoms: S_10  and  C_11 
REMARK    5  A    between atoms: C_11  and  C_12 
REMARK       I    between atoms: C_12  and  N_13 
REMARK    6  A    between atoms: N_13  and  C_14 
ROOT
HETATM    1  C   UNL     1      44.280 -19.566   3.838  1.00  0.00     0.069 A 
HETATM    2  C   UNL     1      43.555 -18.586   4.515  1.00  0.00     0.050 A 
HETATM    3  C   UNL     1      42.644 -17.765   3.820  1.00  0.00    -0.004 A 
HETATM    4  C   UNL     1      42.441 -17.934   2.439  1.00  0.00     0.068 A 
HETATM    5  N   UNL     1      41.597 -17.164   1.736  1.00  0.00    -0.241 NA
HETATM    6  C   UNL     1      40.957 -16.148   2.363  1.00  0.00     0.100 A 
HETATM    7  C   UNL     1      41.065 -15.917   3.734  1.00  0.00    -0.026 A 
HETATM    8  C   UNL     1      40.319 -14.822   4.437  1.00  0.00     0.051 C 
HETATM    9  C   UNL     1      41.921 -16.751   4.461  1.00  0.00     0.023 A 
HETATM   10  C   UNL     1      43.151 -18.933   1.790  1.00  0.00     0.035 A 
HETATM   11  C   UNL     1      44.062 -19.743   2.475  1.00  0.00     0.039 A 
ENDROOT
BRANCH   6  12
HETATM   12  S   UNL     1      40.009 -15.086   1.291  1.00  0.00    -0.096 SA
BRANCH  12  13
HETATM   13  C   UNL     1      41.199 -14.758  -0.067  1.00  0.00     0.142 C 
HETATM   14  C   UNL     1      41.091 -15.720  -1.244  1.00  0.00     0.031 C 
BRANCH  13  15
HETATM   15  C   UNL     1      41.211 -13.270  -0.436  1.00  0.00     0.236 C 
HETATM   16  N   UNL     1      42.296 -12.864  -1.193  1.00  0.00    -0.326 N 
HETATM   17  H   UNL     1      42.927 -13.594  -1.512  1.00  0.00     0.169 HD
HETATM   18  O   UNL     1      40.275 -12.550  -0.090  1.00  0.00    -0.272 OA
BRANCH  16  19
HETATM   19  C   UNL     1      42.568 -11.569  -1.681  1.00  0.00     0.034 A 
HETATM   20  C   UNL     1      42.211 -11.121  -2.954  1.00  0.00     0.029 A 
HETATM   21  C   UNL     1      42.518  -9.819  -3.361  1.00  0.00     0.002 A 
HETATM   22  C   UNL     1      43.179  -8.951  -2.497  1.00  0.00     0.000 A 
HETATM   23  C   UNL     1      43.536  -9.385  -1.223  1.00  0.00     0.002 A 
HETATM   24  C   UNL     1      43.232 -10.688  -0.817  1.00  0.00     0.029 A 
ENDBRANCH  16  19
ENDBRANCH  13  15
ENDBRANCH  12  13
ENDBRANCH   6  12
BRANCH   1  25
HETATM   25  O   UNL     1      45.211 -20.402   4.385  1.00  0.00    -0.351 OA
BRANCH  25  26
HETATM   26  C   UNL     1      44.735 -21.411   5.274  1.00  0.00     0.171 C 
HETATM   27  C   UNL     1      44.704 -22.726   4.517  1.00  0.00     0.034 C 
ENDBRANCH  25  26
ENDBRANCH   1  25
TORSDOF 6
ENDMDL
