MODEL 1
REMARK VINA RESULT:      -8.4      0.000      0.000
REMARK  3 active torsions:
REMARK  status: ('A' for Active; 'I' for Inactive)
REMARK    1  A    between atoms: O_2  and  C_3 
REMARK    2  A    between atoms: C_5  and  N_15 
REMARK    3  A    between atoms: C_8  and  C_9 
ROOT
HETATM    1  C   UNL     1      39.924 -14.412  -2.006  1.00  0.00     0.177 A 
HETATM    2  N   UNL     1      40.707 -14.795  -0.971  1.00  0.00    -0.206 NA
HETATM    3  C   UNL     1      40.233 -14.739   0.284  1.00  0.00     0.135 A 
HETATM    4  C   UNL     1      38.944 -14.279   0.530  1.00  0.00     0.052 A 
HETATM    5  C   UNL     1      38.133 -13.893  -0.543  1.00  0.00     0.020 A 
HETATM    6  C   UNL     1      38.613 -13.959  -1.854  1.00  0.00     0.030 A 
ENDROOT
BRANCH   3   7
HETATM    7  N   UNL     1      41.080 -15.150   1.336  1.00  0.00    -0.302 N 
HETATM    8  C   UNL     1      42.311 -14.491   1.685  1.00  0.00     0.135 C 
HETATM    9  C   UNL     1      42.652 -15.054   3.054  1.00  0.00     0.040 C 
HETATM   10  C   UNL     1      42.085 -16.478   3.005  1.00  0.00     0.051 C 
HETATM   11  C   UNL     1      43.048 -17.477   2.311  1.00  0.00     0.058 C 
HETATM   12  C   UNL     1      41.736 -17.042   4.397  1.00  0.00     0.058 C 
HETATM   13  C   UNL     1      40.858 -16.291   2.124  1.00  0.00     0.234 C 
HETATM   14  C   UNL     1      43.505 -18.340   3.443  1.00  0.00    -0.051 A 
HETATM   15  C   UNL     1      44.483 -19.322   3.409  1.00  0.00     0.007 A 
HETATM   16  C   UNL     1      42.774 -18.098   4.604  1.00  0.00    -0.051 A 
HETATM   17  C   UNL     1      44.725 -20.063   4.568  1.00  0.00     0.001 A 
HETATM   18  C   UNL     1      43.989 -19.819   5.737  1.00  0.00     0.001 A 
HETATM   19  C   UNL     1      43.003 -18.831   5.759  1.00  0.00     0.007 A 
HETATM   20  O   UNL     1      39.916 -17.067   2.112  1.00  0.00    -0.272 OA
ENDBRANCH   3   7
BRANCH   1  21
HETATM   21  O   UNL     1      40.455 -14.497  -3.279  1.00  0.00    -0.339 OA
HETATM   22  C   UNL     1      41.450 -13.510  -3.543  1.00  0.00     0.211 C 
ENDBRANCH   1  21
BRANCH   6  23
HETATM   23  C   UNL     1      37.775 -13.555  -2.973  1.00  0.00     0.015 A 
HETATM   24  C   UNL     1      37.386 -12.275  -3.436  1.00  0.00     0.152 A 
HETATM   25  N   UNL     1      36.597 -12.328  -4.512  1.00  0.00    -0.187 NA
HETATM   26  N   UNL     1      36.493 -13.642  -4.760  1.00  0.00    -0.289 N 
HETATM   27  H   UNL     1      35.943 -13.938  -5.560  1.00  0.00     0.188 HD
HETATM   28  C   UNL     1      37.170 -14.420  -3.865  1.00  0.00     0.123 A 
ENDBRANCH   6  23
TORSDOF 3
ENDMDL
MODEL 2
REMARK VINA RESULT:      -8.3      1.209      1.812
REMARK  3 active torsions:
REMARK  status: ('A' for Active; 'I' for Inactive)
REMARK    1  A    between atoms: O_2  and  C_3 
REMARK    2  A    between atoms: C_5  and  N_15 
REMARK    3  A    between atoms: C_8  and  C_9 
ROOT
HETATM    1  C   UNL     1      38.760 -14.022  -0.236  1.00  0.00     0.177 A 
HETATM    2  N   UNL     1      39.565 -14.482   0.750  1.00  0.00    -0.206 NA
HETATM    3  C   UNL     1      40.768 -14.995   0.448  1.00  0.00     0.135 A 
HETATM    4  C   UNL     1      41.190 -15.068  -0.875  1.00  0.00     0.052 A 
HETATM    5  C   UNL     1      40.361 -14.583  -1.892  1.00  0.00     0.020 A 
HETATM    6  C   UNL     1      39.111 -14.036  -1.586  1.00  0.00     0.030 A 
ENDROOT
BRANCH   3   7
HETATM    7  N   UNL     1      41.579 -15.463   1.505  1.00  0.00    -0.302 N 
HETATM    8  C   UNL     1      42.841 -14.877   1.872  1.00  0.00     0.135 C 
HETATM    9  C   UNL     1      43.136 -15.470   3.239  1.00  0.00     0.040 C 
HETATM   10  C   UNL     1      42.491 -16.860   3.172  1.00  0.00     0.051 C 
HETATM   11  C   UNL     1      43.403 -17.905   2.477  1.00  0.00     0.058 C 
HETATM   12  C   UNL     1      42.096 -17.415   4.555  1.00  0.00     0.058 C 
HETATM   13  C   UNL     1      41.285 -16.596   2.280  1.00  0.00     0.234 C 
HETATM   14  C   UNL     1      43.799 -18.802   3.606  1.00  0.00    -0.051 A 
HETATM   15  C   UNL     1      44.721 -19.837   3.572  1.00  0.00     0.007 A 
HETATM   16  C   UNL     1      43.071 -18.529   4.762  1.00  0.00    -0.051 A 
HETATM   17  C   UNL     1      44.909 -20.600   4.727  1.00  0.00     0.001 A 
HETATM   18  C   UNL     1      44.176 -20.325   5.890  1.00  0.00     0.001 A 
HETATM   19  C   UNL     1      43.247 -19.284   5.912  1.00  0.00     0.007 A 
HETATM   20  O   UNL     1      40.301 -17.318   2.251  1.00  0.00    -0.272 OA
ENDBRANCH   3   7
BRANCH   1  21
HETATM   21  O   UNL     1      37.536 -13.495   0.128  1.00  0.00    -0.339 OA
HETATM   22  C   UNL     1      37.642 -12.364   0.992  1.00  0.00     0.211 C 
ENDBRANCH   1  21
BRANCH   6  23
HETATM   23  C   UNL     1      38.243 -13.531  -2.640  1.00  0.00     0.015 A 
HETATM   24  C   UNL     1      37.893 -12.211  -3.010  1.00  0.00     0.152 A 
HETATM   25  N   UNL     1      37.055 -12.167  -4.049  1.00  0.00    -0.187 NA
HETATM   26  N   UNL     1      36.881 -13.458  -4.367  1.00  0.00    -0.289 N 
HETATM   27  H   UNL     1      36.283 -13.682  -5.156  1.00  0.00     0.188 HD
HETATM   28  C   UNL     1      37.561 -14.315  -3.551  1.00  0.00     0.123 A 
ENDBRANCH   6  23
TORSDOF 3
ENDMDL
MODEL 3
REMARK VINA RESULT:      -8.3      2.132      2.762
REMARK  3 active torsions:
REMARK  status: ('A' for Active; 'I' for Inactive)
REMARK    1  A    between atoms: O_2  and  C_3 
REMARK    2  A    between atoms: C_5  and  N_15 
REMARK    3  A    between atoms: C_8  and  C_9 
ROOT
HETATM    1  C   UNL     1      41.048 -14.606  -2.365  1.00  0.00     0.177 A 
HETATM    2  N   UNL     1      41.126 -15.453  -1.312  1.00  0.00    -0.206 NA
HETATM    3  C   UNL     1      41.324 -14.969  -0.076  1.00  0.00     0.135 A 
HETATM    4  C   UNL     1      41.462 -13.601   0.131  1.00  0.00     0.052 A 
HETATM    5  C   UNL     1      41.371 -12.726  -0.957  1.00  0.00     0.020 A 
HETATM    6  C   UNL     1      41.153 -13.220  -2.247  1.00  0.00     0.030 A 
ENDROOT
BRANCH   3   7
HETATM    7  N   UNL     1      41.396 -15.885   0.996  1.00  0.00    -0.302 N 
HETATM    8  C   UNL     1      40.357 -16.063   1.976  1.00  0.00     0.135 C 
HETATM    9  C   UNL     1      40.728 -17.363   2.669  1.00  0.00     0.040 C 
HETATM   10  C   UNL     1      42.260 -17.379   2.603  1.00  0.00     0.051 C 
HETATM   11  C   UNL     1      42.912 -16.543   3.736  1.00  0.00     0.058 C 
HETATM   12  C   UNL     1      42.856 -18.800   2.656  1.00  0.00     0.058 C 
HETATM   13  C   UNL     1      42.517 -16.683   1.273  1.00  0.00     0.234 C 
HETATM   14  C   UNL     1      43.536 -17.588   4.604  1.00  0.00    -0.051 A 
HETATM   15  C   UNL     1      44.142 -17.403   5.836  1.00  0.00     0.007 A 
HETATM   16  C   UNL     1      43.505 -18.845   4.002  1.00  0.00    -0.051 A 
HETATM   17  C   UNL     1      44.721 -18.508   6.467  1.00  0.00     0.001 A 
HETATM   18  C   UNL     1      44.690 -19.772   5.861  1.00  0.00     0.001 A 
HETATM   19  C   UNL     1      44.080 -19.946   4.618  1.00  0.00     0.007 A 
HETATM   20  O   UNL     1      43.560 -16.796   0.648  1.00  0.00    -0.272 OA
ENDBRANCH   3   7
BRANCH   1  21
HETATM   21  O   UNL     1      40.834 -15.153  -3.615  1.00  0.00    -0.339 OA
HETATM   22  C   UNL     1      39.531 -15.713  -3.772  1.00  0.00     0.211 C 
ENDBRANCH   1  21
BRANCH   6  23
HETATM   23  C   UNL     1      41.061 -12.314  -3.383  1.00  0.00     0.015 A 
HETATM   24  C   UNL     1      42.063 -11.714  -4.182  1.00  0.00     0.152 A 
HETATM   25  N   UNL     1      41.563 -10.933  -5.144  1.00  0.00    -0.187 NA
HETATM   26  N   UNL     1      40.237 -11.046  -4.981  1.00  0.00    -0.289 N 
HETATM   27  H   UNL     1      39.630 -10.545  -5.622  1.00  0.00     0.188 HD
HETATM   28  C   UNL     1      39.883 -11.852  -3.938  1.00  0.00     0.123 A 
ENDBRANCH   6  23
TORSDOF 3
ENDMDL
MODEL 4
REMARK VINA RESULT:      -8.2      3.222      3.906
REMARK  3 active torsions:
REMARK  status: ('A' for Active; 'I' for Inactive)
REMARK    1  A    between atoms: O_2  and  C_3 
REMARK    2  A    between atoms: C_5  and  N_15 
REMARK    3  A    between atoms: C_8  and  C_9 
ROOT
HETATM    1  C   UNL     1      40.082 -12.697   2.196  1.00  0.00     0.177 A 
HETATM    2  N   UNL     1      41.080 -13.602   2.320  1.00  0.00    -0.206 NA
HETATM    3  C   UNL     1      40.858 -14.891   2.019  1.00  0.00     0.135 A 
HETATM    4  C   UNL     1      39.602 -15.307   1.590  1.00  0.00     0.052 A 
HETATM    5  C   UNL     1      38.574 -14.368   1.452  1.00  0.00     0.020 A 
HETATM    6  C   UNL     1      38.800 -13.021   1.752  1.00  0.00     0.030 A 
ENDROOT
BRANCH   3   7
HETATM    7  N   UNL     1      41.926 -15.803   2.160  1.00  0.00    -0.302 N 
HETATM    8  C   UNL     1      43.110 -15.790   1.342  1.00  0.00     0.135 C 
HETATM    9  C   UNL     1      44.081 -16.688   2.090  1.00  0.00     0.040 C 
HETATM   10  C   UNL     1      43.166 -17.713   2.772  1.00  0.00     0.051 C 
HETATM   11  C   UNL     1      42.763 -18.873   1.823  1.00  0.00     0.058 C 
HETATM   12  C   UNL     1      43.784 -18.330   4.043  1.00  0.00     0.058 C 
HETATM   13  C   UNL     1      41.931 -16.874   3.067  1.00  0.00     0.234 C 
HETATM   14  C   UNL     1      43.499 -20.041   2.395  1.00  0.00    -0.051 A 
HETATM   15  C   UNL     1      43.602 -21.315   1.857  1.00  0.00     0.007 A 
HETATM   16  C   UNL     1      44.067 -19.739   3.631  1.00  0.00    -0.051 A 
HETATM   17  C   UNL     1      44.292 -22.291   2.579  1.00  0.00     0.001 A 
HETATM   18  C   UNL     1      44.863 -21.986   3.823  1.00  0.00     0.001 A 
HETATM   19  C   UNL     1      44.750 -20.702   4.359  1.00  0.00     0.007 A 
HETATM   20  O   UNL     1      41.103 -17.174   3.914  1.00  0.00    -0.272 OA
ENDBRANCH   3   7
BRANCH   1  21
HETATM   21  O   UNL     1      40.364 -11.381   2.509  1.00  0.00    -0.339 OA
HETATM   22  C   UNL     1      40.995 -11.226   3.780  1.00  0.00     0.211 C 
ENDBRANCH   1  21
BRANCH   6  23
HETATM   23  C   UNL     1      37.733 -12.041   1.613  1.00  0.00     0.015 A 
HETATM   24  C   UNL     1      36.669 -11.943   0.684  1.00  0.00     0.152 A 
HETATM   25  N   UNL     1      35.889 -10.879   0.896  1.00  0.00    -0.187 NA
HETATM   26  N   UNL     1      36.436 -10.301   1.976  1.00  0.00    -0.289 N 
HETATM   27  H   UNL     1      35.997  -9.463   2.345  1.00  0.00     0.188 HD
HETATM   28  C   UNL     1      37.544 -10.949   2.439  1.00  0.00     0.123 A 
ENDBRANCH   6  23
TORSDOF 3
ENDMDL
MODEL 5
REMARK VINA RESULT:      -8.1      3.162      9.177
REMARK  3 active torsions:
REMARK  status: ('A' for Active; 'I' for Inactive)
REMARK    1  A    between atoms: O_2  and  C_3 
REMARK    2  A    between atoms: C_5  and  N_15 
REMARK    3  A    between atoms: C_8  and  C_9 
ROOT
HETATM    1  C   UNL     1      43.146 -18.754   4.109  1.00  0.00     0.177 A 
HETATM    2  N   UNL     1      42.655 -17.578   3.653  1.00  0.00    -0.206 NA
HETATM    3  C   UNL     1      42.908 -17.191   2.393  1.00  0.00     0.135 A 
HETATM    4  C   UNL     1      43.683 -17.984   1.554  1.00  0.00     0.052 A 
HETATM    5  C   UNL     1      44.181 -19.204   2.025  1.00  0.00     0.020 A 
HETATM    6  C   UNL     1      43.912 -19.622   3.332  1.00  0.00     0.030 A 
ENDROOT
BRANCH   3   7
HETATM    7  N   UNL     1      42.376 -15.959   1.954  1.00  0.00    -0.302 N 
HETATM    8  C   UNL     1      42.484 -14.726   2.688  1.00  0.00     0.135 C 
HETATM    9  C   UNL     1      42.099 -13.662   1.675  1.00  0.00     0.040 C 
HETATM   10  C   UNL     1      41.085 -14.377   0.774  1.00  0.00     0.051 C 
HETATM   11  C   UNL     1      39.654 -14.380   1.374  1.00  0.00     0.058 C 
HETATM   12  C   UNL     1      41.006 -13.781  -0.646  1.00  0.00     0.058 C 
HETATM   13  C   UNL     1      41.619 -15.803   0.782  1.00  0.00     0.234 C 
HETATM   14  C   UNL     1      38.910 -13.457   0.463  1.00  0.00    -0.051 A 
HETATM   15  C   UNL     1      37.613 -12.992   0.616  1.00  0.00     0.007 A 
HETATM   16  C   UNL     1      39.663 -13.124  -0.662  1.00  0.00    -0.051 A 
HETATM   17  C   UNL     1      37.075 -12.176  -0.383  1.00  0.00     0.001 A 
HETATM   18  C   UNL     1      37.833 -11.842  -1.515  1.00  0.00     0.001 A 
HETATM   19  C   UNL     1      39.136 -12.319  -1.660  1.00  0.00     0.007 A 
HETATM   20  O   UNL     1      41.346 -16.627  -0.077  1.00  0.00    -0.272 OA
ENDBRANCH   3   7
BRANCH   1  21
HETATM   21  O   UNL     1      42.848 -19.112   5.410  1.00  0.00    -0.339 OA
HETATM   22  C   UNL     1      43.341 -18.187   6.378  1.00  0.00     0.211 C 
ENDBRANCH   1  21
BRANCH   6  23
HETATM   23  C   UNL     1      44.431 -20.889   3.828  1.00  0.00     0.015 A 
HETATM   24  C   UNL     1      45.096 -21.218   5.033  1.00  0.00     0.152 A 
HETATM   25  N   UNL     1      45.415 -22.513   5.114  1.00  0.00    -0.187 NA
HETATM   26  N   UNL     1      44.936 -23.026   3.971  1.00  0.00    -0.289 N 
HETATM   27  H   UNL     1      45.045 -24.022   3.809  1.00  0.00     0.188 HD
HETATM   28  C   UNL     1      44.346 -22.097   3.163  1.00  0.00     0.123 A 
ENDBRANCH   6  23
TORSDOF 3
ENDMDL
MODEL 6
REMARK VINA RESULT:      -8.0      5.347      9.013
REMARK  3 active torsions:
REMARK  status: ('A' for Active; 'I' for Inactive)
REMARK    1  A    between atoms: O_2  and  C_3 
REMARK    2  A    between atoms: C_5  and  N_15 
REMARK    3  A    between atoms: C_8  and  C_9 
ROOT
HETATM    1  C   UNL     1      44.204 -18.620   4.696  1.00  0.00     0.177 A 
HETATM    2  N   UNL     1      43.828 -17.320   4.730  1.00  0.00    -0.206 NA
HETATM    3  C   UNL     1      43.178 -16.784   3.685  1.00  0.00     0.135 A 
HETATM    4  C   UNL     1      42.897 -17.552   2.560  1.00  0.00     0.052 A 
HETATM    5  C   UNL     1      43.279 -18.898   2.532  1.00  0.00     0.020 A 
HETATM    6  C   UNL     1      43.945 -19.469   3.620  1.00  0.00     0.030 A 
ENDROOT
BRANCH   3   7
HETATM    7  N   UNL     1      42.800 -15.426   3.760  1.00  0.00    -0.302 N 
HETATM    8  C   UNL     1      43.587 -14.339   3.240  1.00  0.00     0.135 C 
HETATM    9  C   UNL     1      42.627 -13.163   3.231  1.00  0.00     0.040 C 
HETATM   10  C   UNL     1      41.706 -13.445   4.424  1.00  0.00     0.051 C 
HETATM   11  C   UNL     1      42.321 -12.984   5.772  1.00  0.00     0.058 C 
HETATM   12  C   UNL     1      40.315 -12.793   4.287  1.00  0.00     0.058 C 
HETATM   13  C   UNL     1      41.644 -14.966   4.411  1.00  0.00     0.234 C 
HETATM   14  C   UNL     1      41.460 -11.821   6.149  1.00  0.00    -0.051 A 
HETATM   15  C   UNL     1      41.647 -10.947   7.209  1.00  0.00     0.007 A 
HETATM   16  C   UNL     1      40.343 -11.715   5.323  1.00  0.00    -0.051 A 
HETATM   17  C   UNL     1      40.692  -9.952   7.429  1.00  0.00     0.001 A 
HETATM   18  C   UNL     1      39.568  -9.846   6.597  1.00  0.00     0.001 A 
HETATM   19  C   UNL     1      39.387 -10.734   5.536  1.00  0.00     0.007 A 
HETATM   20  O   UNL     1      40.753 -15.606   4.947  1.00  0.00    -0.272 OA
ENDBRANCH   3   7
BRANCH   1  21
HETATM   21  O   UNL     1      44.862 -19.127   5.800  1.00  0.00    -0.339 OA
HETATM   22  C   UNL     1      44.892 -18.224   6.904  1.00  0.00     0.211 C 
ENDBRANCH   1  21
BRANCH   6  23
HETATM   23  C   UNL     1      44.347 -20.868   3.594  1.00  0.00     0.015 A 
HETATM   24  C   UNL     1      44.431 -21.796   2.528  1.00  0.00     0.152 A 
HETATM   25  N   UNL     1      44.850 -23.002   2.921  1.00  0.00    -0.187 NA
HETATM   26  N   UNL     1      45.058 -22.848   4.237  1.00  0.00    -0.289 N 
HETATM   27  H   UNL     1      45.404 -23.643   4.764  1.00  0.00     0.188 HD
HETATM   28  C   UNL     1      44.765 -21.595   4.692  1.00  0.00     0.123 A 
ENDBRANCH   6  23
TORSDOF 3
ENDMDL
MODEL 7
REMARK VINA RESULT:      -8.0      2.741      3.654
REMARK  3 active torsions:
REMARK  status: ('A' for Active; 'I' for Inactive)
REMARK    1  A    between atoms: O_2  and  C_3 
REMARK    2  A    between atoms: C_5  and  N_15 
REMARK    3  A    between atoms: C_8  and  C_9 
ROOT
HETATM    1  C   UNL     1      41.637 -13.303  -1.147  1.00  0.00     0.177 A 
HETATM    2  N   UNL     1      41.709 -14.542  -0.609  1.00  0.00    -0.206 NA
HETATM    3  C   UNL     1      41.905 -14.690   0.711  1.00  0.00     0.135 A 
HETATM    4  C   UNL     1      42.047 -13.575   1.530  1.00  0.00     0.052 A 
HETATM    5  C   UNL     1      41.963 -12.294   0.974  1.00  0.00     0.020 A 
HETATM    6  C   UNL     1      41.747 -12.131  -0.398  1.00  0.00     0.030 A 
ENDROOT
BRANCH   3   7
HETATM    7  N   UNL     1      41.971 -16.000   1.234  1.00  0.00    -0.302 N 
HETATM    8  C   UNL     1      40.818 -16.806   1.535  1.00  0.00     0.135 C 
HETATM    9  C   UNL     1      41.387 -18.204   1.713  1.00  0.00     0.040 C 
HETATM   10  C   UNL     1      42.790 -17.950   2.277  1.00  0.00     0.051 C 
HETATM   11  C   UNL     1      42.780 -17.715   3.811  1.00  0.00     0.058 C 
HETATM   12  C   UNL     1      43.783 -19.090   1.975  1.00  0.00     0.058 C 
HETATM   13  C   UNL     1      43.166 -16.646   1.587  1.00  0.00     0.234 C 
HETATM   14  C   UNL     1      43.443 -18.946   4.339  1.00  0.00    -0.051 A 
HETATM   15  C   UNL     1      43.580 -19.323   5.666  1.00  0.00     0.007 A 
HETATM   16  C   UNL     1      44.001 -19.712   3.317  1.00  0.00    -0.051 A 
HETATM   17  C   UNL     1      44.288 -20.491   5.959  1.00  0.00     0.001 A 
HETATM   18  C   UNL     1      44.850 -21.260   4.930  1.00  0.00     0.001 A 
HETATM   19  C   UNL     1      44.710 -20.870   3.598  1.00  0.00     0.007 A 
HETATM   20  O   UNL     1      44.319 -16.264   1.456  1.00  0.00    -0.272 OA
ENDBRANCH   3   7
BRANCH   1  21
HETATM   21  O   UNL     1      41.425 -13.205  -2.508  1.00  0.00    -0.339 OA
HETATM   22  C   UNL     1      40.886 -14.394  -3.083  1.00  0.00     0.211 C 
ENDBRANCH   1  21
BRANCH   6  23
HETATM   23  C   UNL     1      41.661 -10.801  -0.982  1.00  0.00     0.015 A 
HETATM   24  C   UNL     1      42.632 -10.002  -1.633  1.00  0.00     0.152 A 
HETATM   25  N   UNL     1      42.151  -8.822  -2.034  1.00  0.00    -0.187 NA
HETATM   26  N   UNL     1      40.863  -8.866  -1.663  1.00  0.00    -0.289 N 
HETATM   27  H   UNL     1      40.274  -8.069  -1.881  1.00  0.00     0.188 HD
HETATM   28  C   UNL     1      40.521 -10.022  -1.023  1.00  0.00     0.123 A 
ENDBRANCH   6  23
TORSDOF 3
ENDMDL
MODEL 8
REMARK VINA RESULT:      -7.9      3.060      8.824
REMARK  3 active torsions:
REMARK  status: ('A' for Active; 'I' for Inactive)
REMARK    1  A    between atoms: O_2  and  C_3 
REMARK    2  A    between atoms: C_5  and  N_15 
REMARK    3  A    between atoms: C_8  and  C_9 
ROOT
HETATM    1  C   UNL     1      42.090 -17.678   3.340  1.00  0.00     0.177 A 
HETATM    2  N   UNL     1      41.397 -16.632   2.833  1.00  0.00    -0.206 NA
HETATM    3  C   UNL     1      41.700 -16.152   1.618  1.00  0.00     0.135 A 
HETATM    4  C   UNL     1      42.733 -16.716   0.876  1.00  0.00     0.052 A 
HETATM    5  C   UNL     1      43.442 -17.803   1.397  1.00  0.00     0.020 A 
HETATM    6  C   UNL     1      43.125 -18.318   2.657  1.00  0.00     0.030 A 
ENDROOT
BRANCH   3   7
HETATM    7  N   UNL     1      40.952 -15.062   1.124  1.00  0.00    -0.302 N 
HETATM    8  C   UNL     1      41.514 -13.976   0.364  1.00  0.00     0.135 C 
HETATM    9  C   UNL     1      40.301 -13.278  -0.228  1.00  0.00     0.040 C 
HETATM   10  C   UNL     1      39.211 -13.498   0.828  1.00  0.00     0.051 C 
HETATM   11  C   UNL     1      39.289 -12.467   1.985  1.00  0.00     0.058 C 
HETATM   12  C   UNL     1      37.784 -13.457   0.247  1.00  0.00     0.058 C 
HETATM   13  C   UNL     1      39.583 -14.871   1.372  1.00  0.00     0.234 C 
HETATM   14  C   UNL     1      38.069 -11.631   1.767  1.00  0.00    -0.051 A 
HETATM   15  C   UNL     1      37.714 -10.473   2.441  1.00  0.00     0.007 A 
HETATM   16  C   UNL     1      37.231 -12.182   0.800  1.00  0.00    -0.051 A 
HETATM   17  C   UNL     1      36.495  -9.865   2.127  1.00  0.00     0.001 A 
HETATM   18  C   UNL     1      35.652 -10.421   1.154  1.00  0.00     0.001 A 
HETATM   19  C   UNL     1      36.018 -11.589   0.484  1.00  0.00     0.007 A 
HETATM   20  O   UNL     1      38.797 -15.593   1.964  1.00  0.00    -0.272 OA
ENDBRANCH   3   7
BRANCH   1  21
HETATM   21  O   UNL     1      41.732 -18.141   4.591  1.00  0.00    -0.339 OA
HETATM   22  C   UNL     1      41.890 -17.166   5.621  1.00  0.00     0.211 C 
ENDBRANCH   1  21
BRANCH   6  23
HETATM   23  C   UNL     1      43.862 -19.448   3.205  1.00  0.00     0.015 A 
HETATM   24  C   UNL     1      44.582 -19.595   4.415  1.00  0.00     0.152 A 
HETATM   25  N   UNL     1      45.125 -20.808   4.553  1.00  0.00    -0.187 NA
HETATM   26  N   UNL     1      44.737 -21.453   3.443  1.00  0.00    -0.289 N 
HETATM   27  H   UNL     1      45.020 -22.420   3.326  1.00  0.00     0.188 HD
HETATM   28  C   UNL     1      43.988 -20.683   2.600  1.00  0.00     0.123 A 
ENDBRANCH   6  23
TORSDOF 3
ENDMDL
MODEL 9
REMARK VINA RESULT:      -7.9      1.277      1.630
REMARK  3 active torsions:
REMARK  status: ('A' for Active; 'I' for Inactive)
REMARK    1  A    between atoms: O_2  and  C_3 
REMARK    2  A    between atoms: C_5  and  N_15 
REMARK    3  A    between atoms: C_8  and  C_9 
ROOT
HETATM    1  C   UNL     1      40.227 -14.710  -1.510  1.00  0.00     0.177 A 
HETATM    2  N   UNL     1      40.972 -14.793  -0.383  1.00  0.00    -0.206 NA
HETATM    3  C   UNL     1      40.447 -14.424   0.796  1.00  0.00     0.135 A 
HETATM    4  C   UNL     1      39.144 -13.944   0.867  1.00  0.00     0.052 A 
HETATM    5  C   UNL     1      38.372 -13.868  -0.297  1.00  0.00     0.020 A 
HETATM    6  C   UNL     1      38.905 -14.262  -1.528  1.00  0.00     0.030 A 
ENDROOT
BRANCH   3   7
HETATM    7  N   UNL     1      41.256 -14.529   1.948  1.00  0.00    -0.302 N 
HETATM    8  C   UNL     1      42.503 -13.833   2.124  1.00  0.00     0.135 C 
HETATM    9  C   UNL     1      42.794 -13.973   3.609  1.00  0.00     0.040 C 
HETATM   10  C   UNL     1      42.175 -15.330   3.967  1.00  0.00     0.051 C 
HETATM   11  C   UNL     1      43.113 -16.518   3.630  1.00  0.00     0.058 C 
HETATM   12  C   UNL     1      41.776 -15.443   5.452  1.00  0.00     0.058 C 
HETATM   13  C   UNL     1      40.974 -15.376   3.032  1.00  0.00     0.234 C 
HETATM   14  C   UNL     1      43.514 -17.019   4.981  1.00  0.00    -0.051 A 
HETATM   15  C   UNL     1      44.454 -17.995   5.270  1.00  0.00     0.007 A 
HETATM   16  C   UNL     1      42.768 -16.420   5.995  1.00  0.00    -0.051 A 
HETATM   17  C   UNL     1      44.644 -18.364   6.604  1.00  0.00     0.001 A 
HETATM   18  C   UNL     1      43.894 -17.762   7.624  1.00  0.00     0.001 A 
HETATM   19  C   UNL     1      42.946 -16.783   7.321  1.00  0.00     0.007 A 
HETATM   20  O   UNL     1      40.004 -16.093   3.221  1.00  0.00    -0.272 OA
ENDBRANCH   3   7
BRANCH   1  21
HETATM   21  O   UNL     1      40.810 -15.111  -2.697  1.00  0.00    -0.339 OA
HETATM   22  C   UNL     1      41.583 -14.087  -3.321  1.00  0.00     0.211 C 
ENDBRANCH   1  21
BRANCH   6  23
HETATM   23  C   UNL     1      38.108 -14.182  -2.743  1.00  0.00     0.015 A 
HETATM   24  C   UNL     1      37.403 -15.175  -3.464  1.00  0.00     0.152 A 
HETATM   25  N   UNL     1      36.784 -14.692  -4.545  1.00  0.00    -0.187 NA
HETATM   26  N   UNL     1      37.070 -13.382  -4.511  1.00  0.00    -0.289 N 
HETATM   27  H   UNL     1      36.687 -12.788  -5.239  1.00  0.00     0.188 HD
HETATM   28  C   UNL     1      37.865 -13.026  -3.460  1.00  0.00     0.123 A 
ENDBRANCH   6  23
TORSDOF 3
ENDMDL
MODEL 10
REMARK VINA RESULT:      -7.8      3.651      8.964
REMARK  3 active torsions:
REMARK  status: ('A' for Active; 'I' for Inactive)
REMARK    1  A    between atoms: O_2  and  C_3 
REMARK    2  A    between atoms: C_5  and  N_15 
REMARK    3  A    between atoms: C_8  and  C_9 
ROOT
HETATM    1  C   UNL     1      42.457 -17.833   3.451  1.00  0.00     0.177 A 
HETATM    2  N   UNL     1      41.930 -16.695   2.944  1.00  0.00    -0.206 NA
HETATM    3  C   UNL     1      42.402 -16.191   1.793  1.00  0.00     0.135 A 
HETATM    4  C   UNL     1      43.440 -16.827   1.121  1.00  0.00     0.052 A 
HETATM    5  C   UNL     1      43.978 -18.009   1.642  1.00  0.00     0.020 A 
HETATM    6  C   UNL     1      43.485 -18.547   2.834  1.00  0.00     0.030 A 
ENDROOT
BRANCH   3   7
HETATM    7  N   UNL     1      41.823 -15.004   1.296  1.00  0.00    -0.302 N 
HETATM    8  C   UNL     1      40.773 -14.969   0.313  1.00  0.00     0.135 C 
HETATM    9  C   UNL     1      40.257 -13.542   0.379  1.00  0.00     0.040 C 
HETATM   10  C   UNL     1      41.500 -12.730   0.761  1.00  0.00     0.051 C 
HETATM   11  C   UNL     1      42.389 -12.394  -0.466  1.00  0.00     0.058 C 
HETATM   12  C   UNL     1      41.167 -11.410   1.484  1.00  0.00     0.058 C 
HETATM   13  C   UNL     1      42.249 -13.714   1.650  1.00  0.00     0.234 C 
HETATM   14  C   UNL     1      42.206 -10.917  -0.614  1.00  0.00    -0.051 A 
HETATM   15  C   UNL     1      42.675 -10.112  -1.640  1.00  0.00     0.007 A 
HETATM   16  C   UNL     1      41.526 -10.370   0.472  1.00  0.00    -0.051 A 
HETATM   17  C   UNL     1      42.446  -8.736  -1.565  1.00  0.00     0.001 A 
HETATM   18  C   UNL     1      41.762  -8.185  -0.472  1.00  0.00     0.001 A 
HETATM   19  C   UNL     1      41.299  -9.004   0.558  1.00  0.00     0.007 A 
HETATM   20  O   UNL     1      43.098 -13.375   2.458  1.00  0.00    -0.272 OA
ENDBRANCH   3   7
BRANCH   1  21
HETATM   21  O   UNL     1      41.930 -18.315   4.634  1.00  0.00    -0.339 OA
HETATM   22  C   UNL     1      42.072 -17.408   5.727  1.00  0.00     0.211 C 
ENDBRANCH   1  21
BRANCH   6  23
HETATM   23  C   UNL     1      44.042 -19.775   3.381  1.00  0.00     0.015 A 
HETATM   24  C   UNL     1      44.606 -20.061   4.648  1.00  0.00     0.152 A 
HETATM   25  N   UNL     1      45.010 -21.330   4.763  1.00  0.00    -0.187 NA
HETATM   26  N   UNL     1      44.686 -21.870   3.579  1.00  0.00    -0.289 N 
HETATM   27  H   UNL     1      44.884 -22.854   3.430  1.00  0.00     0.188 HD
HETATM   28  C   UNL     1      44.114 -20.983   2.714  1.00  0.00     0.123 A 
ENDBRANCH   6  23
TORSDOF 3
ENDMDL
