MODEL 1
REMARK VINA RESULT:      -8.2      0.000      0.000
REMARK  5 active torsions:
REMARK  status: ('A' for Active; 'I' for Inactive)
REMARK    1  A    between atoms: C_3  and  N_4 
REMARK       I    between atoms: N_4  and  C_5 
REMARK    2  A    between atoms: C_5  and  C_6 
REMARK    3  A    between atoms: C_6  and  C_7 
REMARK    4  A    between atoms: C_16  and  O_17 
REMARK    5  A    between atoms: O_17  and  C_18 
ROOT
HETATM    1  C   UNL     1      44.376 -19.611   4.856  1.00  0.00     0.190 A 
HETATM    2  N   UNL     1      44.847 -20.595   4.048  1.00  0.00    -0.235 NA
HETATM    3  C   UNL     1      44.847 -21.853   4.538  1.00  0.00     0.119 A 
HETATM    4  C   UNL     1      44.417 -22.183   5.812  1.00  0.00     0.021 A 
HETATM    5  C   UNL     1      43.961 -21.158   6.637  1.00  0.00     0.028 A 
HETATM    6  C   UNL     1      43.940 -19.845   6.157  1.00  0.00     0.097 A 
HETATM    7  C   UNL     1      43.493 -18.781   7.000  1.00  0.00     0.104 C 
HETATM    8  N   UNL     1      43.133 -17.937   7.711  1.00  0.00    -0.191 NA
ENDROOT
BRANCH   1   9
HETATM    9  O   UNL     1      44.356 -18.290   4.417  1.00  0.00    -0.291 OA
BRANCH   9  10
HETATM   10  C   UNL     1      43.611 -17.933   3.319  1.00  0.00     0.078 A 
HETATM   11  C   UNL     1      44.305 -17.836   2.118  1.00  0.00     0.039 A 
HETATM   12  C   UNL     1      43.651 -17.393   0.966  1.00  0.00     0.033 A 
HETATM   13  C   UNL     1      42.297 -17.018   0.993  1.00  0.00     0.040 A 
HETATM   14  C   UNL     1      41.576 -17.166   2.193  1.00  0.00    -0.033 A 
HETATM   15  C   UNL     1      40.091 -16.977   2.331  1.00  0.00     0.050 C 
HETATM   16  C   UNL     1      42.266 -17.571   3.359  1.00  0.00     0.046 A 
BRANCH  13  17
HETATM   17  N   UNL     1      41.776 -16.556  -0.238  1.00  0.00    -0.326 N 
HETATM   18  C   UNL     1      41.401 -15.262  -0.557  1.00  0.00     0.227 C 
HETATM   19  O   UNL     1      41.566 -14.268   0.147  1.00  0.00    -0.273 OA
HETATM   20  H   UNL     1      41.959 -17.153  -1.036  1.00  0.00     0.169 HD
BRANCH  18  21
HETATM   21  C   UNL     1      40.767 -15.145  -1.945  1.00  0.00     0.159 C 
BRANCH  21  22
HETATM   22  C   UNL     1      41.239 -13.928  -2.679  1.00  0.00     0.017 A 
HETATM   23  N   UNL     1      42.499 -13.400  -2.497  1.00  0.00    -0.369 N 
HETATM   24  H   UNL     1      43.209 -13.803  -1.891  1.00  0.00     0.165 HD
HETATM   25  C   UNL     1      42.646 -12.280  -3.270  1.00  0.00     0.088 A 
HETATM   26  C   UNL     1      41.467 -12.073  -3.947  1.00  0.00     0.019 A 
HETATM   27  C   UNL     1      40.578 -13.109  -3.576  1.00  0.00     0.027 A 
ENDBRANCH  21  22
ENDBRANCH  18  21
ENDBRANCH  13  17
ENDBRANCH   9  10
ENDBRANCH   1   9
TORSDOF 5
ENDMDL
MODEL 2
REMARK VINA RESULT:      -8.2      2.392      2.819
REMARK  5 active torsions:
REMARK  status: ('A' for Active; 'I' for Inactive)
REMARK    1  A    between atoms: C_3  and  N_4 
REMARK       I    between atoms: N_4  and  C_5 
REMARK    2  A    between atoms: C_5  and  C_6 
REMARK    3  A    between atoms: C_6  and  C_7 
REMARK    4  A    between atoms: C_16  and  O_17 
REMARK    5  A    between atoms: O_17  and  C_18 
ROOT
HETATM    1  C   UNL     1      44.451 -20.032   3.461  1.00  0.00     0.190 A 
HETATM    2  N   UNL     1      44.311 -21.043   2.566  1.00  0.00    -0.235 NA
HETATM    3  C   UNL     1      44.401 -22.306   3.035  1.00  0.00     0.119 A 
HETATM    4  C   UNL     1      44.647 -22.617   4.362  1.00  0.00     0.021 A 
HETATM    5  C   UNL     1      44.814 -21.569   5.262  1.00  0.00     0.028 A 
HETATM    6  C   UNL     1      44.718 -20.249   4.810  1.00  0.00     0.097 A 
HETATM    7  C   UNL     1      44.907 -19.163   5.719  1.00  0.00     0.104 C 
HETATM    8  N   UNL     1      45.074 -18.303   6.481  1.00  0.00    -0.191 NA
ENDROOT
BRANCH   1   9
HETATM    9  O   UNL     1      44.378 -18.707   3.042  1.00  0.00    -0.291 OA
BRANCH   9  10
HETATM   10  C   UNL     1      43.160 -18.087   2.904  1.00  0.00     0.078 A 
HETATM   11  C   UNL     1      42.516 -18.275   1.686  1.00  0.00     0.039 A 
HETATM   12  C   UNL     1      41.316 -17.612   1.420  1.00  0.00     0.033 A 
HETATM   13  C   UNL     1      40.745 -16.731   2.354  1.00  0.00     0.040 A 
HETATM   14  C   UNL     1      41.363 -16.580   3.609  1.00  0.00    -0.033 A 
HETATM   15  C   UNL     1      40.780 -15.818   4.767  1.00  0.00     0.050 C 
HETATM   16  C   UNL     1      42.601 -17.222   3.843  1.00  0.00     0.046 A 
BRANCH  13  17
HETATM   17  N   UNL     1      39.548 -16.104   1.935  1.00  0.00    -0.326 N 
HETATM   18  C   UNL     1      39.400 -14.810   1.466  1.00  0.00     0.227 C 
HETATM   19  O   UNL     1      40.311 -14.020   1.225  1.00  0.00    -0.273 OA
HETATM   20  H   UNL     1      38.793 -16.733   1.689  1.00  0.00     0.169 HD
BRANCH  18  21
HETATM   21  C   UNL     1      37.941 -14.425   1.215  1.00  0.00     0.159 C 
BRANCH  21  22
HETATM   22  C   UNL     1      37.770 -13.666  -0.064  1.00  0.00     0.017 A 
HETATM   23  N   UNL     1      38.189 -14.164  -1.279  1.00  0.00    -0.369 N 
HETATM   24  H   UNL     1      38.605 -15.083  -1.410  1.00  0.00     0.165 HD
HETATM   25  C   UNL     1      37.933 -13.252  -2.266  1.00  0.00     0.088 A 
HETATM   26  C   UNL     1      37.358 -12.146  -1.684  1.00  0.00     0.019 A 
HETATM   27  C   UNL     1      37.254 -12.404  -0.297  1.00  0.00     0.027 A 
ENDBRANCH  21  22
ENDBRANCH  18  21
ENDBRANCH  13  17
ENDBRANCH   9  10
ENDBRANCH   1   9
TORSDOF 5
ENDMDL
MODEL 3
REMARK VINA RESULT:      -8.0      3.040      3.421
REMARK  5 active torsions:
REMARK  status: ('A' for Active; 'I' for Inactive)
REMARK    1  A    between atoms: C_3  and  N_4 
REMARK       I    between atoms: N_4  and  C_5 
REMARK    2  A    between atoms: C_5  and  C_6 
REMARK    3  A    between atoms: C_6  and  C_7 
REMARK    4  A    between atoms: C_16  and  O_17 
REMARK    5  A    between atoms: O_17  and  C_18 
ROOT
HETATM    1  C   UNL     1      44.419 -19.997   3.323  1.00  0.00     0.190 A 
HETATM    2  N   UNL     1      44.259 -21.005   2.427  1.00  0.00    -0.235 NA
HETATM    3  C   UNL     1      44.362 -22.269   2.890  1.00  0.00     0.119 A 
HETATM    4  C   UNL     1      44.639 -22.585   4.210  1.00  0.00     0.021 A 
HETATM    5  C   UNL     1      44.825 -21.540   5.110  1.00  0.00     0.028 A 
HETATM    6  C   UNL     1      44.717 -20.218   4.665  1.00  0.00     0.097 A 
HETATM    7  C   UNL     1      44.925 -19.136   5.573  1.00  0.00     0.104 C 
HETATM    8  N   UNL     1      45.109 -18.278   6.334  1.00  0.00    -0.191 NA
ENDROOT
BRANCH   1   9
HETATM    9  O   UNL     1      44.335 -18.670   2.911  1.00  0.00    -0.291 OA
BRANCH   9  10
HETATM   10  C   UNL     1      43.113 -18.053   2.800  1.00  0.00     0.078 A 
HETATM   11  C   UNL     1      42.421 -18.281   1.615  1.00  0.00     0.039 A 
HETATM   12  C   UNL     1      41.211 -17.625   1.374  1.00  0.00     0.033 A 
HETATM   13  C   UNL     1      40.679 -16.711   2.299  1.00  0.00     0.040 A 
HETATM   14  C   UNL     1      41.346 -16.518   3.523  1.00  0.00    -0.033 A 
HETATM   15  C   UNL     1      40.811 -15.715   4.676  1.00  0.00     0.050 C 
HETATM   16  C   UNL     1      42.593 -17.155   3.729  1.00  0.00     0.046 A 
BRANCH  13  17
HETATM   17  N   UNL     1      39.467 -16.096   1.907  1.00  0.00    -0.326 N 
HETATM   18  C   UNL     1      39.304 -14.825   1.383  1.00  0.00     0.227 C 
HETATM   19  O   UNL     1      40.206 -14.054   1.064  1.00  0.00    -0.273 OA
HETATM   20  H   UNL     1      38.698 -16.731   1.726  1.00  0.00     0.169 HD
BRANCH  18  21
HETATM   21  C   UNL     1      37.836 -14.442   1.182  1.00  0.00     0.159 C 
BRANCH  21  22
HETATM   22  C   UNL     1      37.635 -12.958   1.186  1.00  0.00     0.017 A 
HETATM   23  N   UNL     1      38.207 -12.139   2.136  1.00  0.00    -0.369 N 
HETATM   24  H   UNL     1      38.828 -12.462   2.874  1.00  0.00     0.165 HD
HETATM   25  C   UNL     1      37.834 -10.842   1.913  1.00  0.00     0.088 A 
HETATM   26  C   UNL     1      37.001 -10.821   0.819  1.00  0.00     0.019 A 
HETATM   27  C   UNL     1      36.873 -12.153   0.359  1.00  0.00     0.027 A 
ENDBRANCH  21  22
ENDBRANCH  18  21
ENDBRANCH  13  17
ENDBRANCH   9  10
ENDBRANCH   1   9
TORSDOF 5
ENDMDL
MODEL 4
REMARK VINA RESULT:      -7.9      2.241      3.225
REMARK  5 active torsions:
REMARK  status: ('A' for Active; 'I' for Inactive)
REMARK    1  A    between atoms: C_3  and  N_4 
REMARK       I    between atoms: N_4  and  C_5 
REMARK    2  A    between atoms: C_5  and  C_6 
REMARK    3  A    between atoms: C_6  and  C_7 
REMARK    4  A    between atoms: C_16  and  O_17 
REMARK    5  A    between atoms: O_17  and  C_18 
ROOT
HETATM    1  C   UNL     1      44.409 -19.613   3.677  1.00  0.00     0.190 A 
HETATM    2  N   UNL     1      44.376 -18.941   4.856  1.00  0.00    -0.235 NA
HETATM    3  C   UNL     1      44.394 -19.674   5.990  1.00  0.00     0.119 A 
HETATM    4  C   UNL     1      44.423 -21.058   6.010  1.00  0.00     0.021 A 
HETATM    5  C   UNL     1      44.431 -21.733   4.792  1.00  0.00     0.028 A 
HETATM    6  C   UNL     1      44.422 -21.003   3.599  1.00  0.00     0.097 A 
HETATM    7  C   UNL     1      44.410 -21.682   2.343  1.00  0.00     0.104 C 
HETATM    8  N   UNL     1      44.392 -22.263   1.338  1.00  0.00    -0.191 NA
ENDROOT
BRANCH   1   9
HETATM    9  O   UNL     1      44.385 -18.918   2.471  1.00  0.00    -0.291 OA
BRANCH   9  10
HETATM   10  C   UNL     1      43.406 -17.986   2.225  1.00  0.00     0.078 A 
HETATM   11  C   UNL     1      42.219 -18.477   1.692  1.00  0.00     0.039 A 
HETATM   12  C   UNL     1      41.200 -17.595   1.325  1.00  0.00     0.033 A 
HETATM   13  C   UNL     1      41.352 -16.205   1.463  1.00  0.00     0.040 A 
HETATM   14  C   UNL     1      42.529 -15.706   2.052  1.00  0.00    -0.033 A 
HETATM   15  C   UNL     1      42.759 -14.268   2.425  1.00  0.00     0.050 C 
HETATM   16  C   UNL     1      43.568 -16.610   2.374  1.00  0.00     0.046 A 
BRANCH  13  17
HETATM   17  N   UNL     1      40.253 -15.433   1.018  1.00  0.00    -0.326 N 
HETATM   18  C   UNL     1      40.196 -14.626  -0.105  1.00  0.00     0.227 C 
HETATM   19  O   UNL     1      41.061 -14.533  -0.973  1.00  0.00    -0.273 OA
HETATM   20  H   UNL     1      39.351 -15.713   1.386  1.00  0.00     0.169 HD
BRANCH  18  21
HETATM   21  C   UNL     1      38.885 -13.843  -0.215  1.00  0.00     0.159 C 
BRANCH  21  22
HETATM   22  C   UNL     1      38.328 -13.870  -1.605  1.00  0.00     0.017 A 
HETATM   23  N   UNL     1      38.390 -14.993  -2.402  1.00  0.00    -0.369 N 
HETATM   24  H   UNL     1      38.778 -15.885  -2.107  1.00  0.00     0.165 HD
HETATM   25  C   UNL     1      37.832 -14.725  -3.622  1.00  0.00     0.088 A 
HETATM   26  C   UNL     1      37.418 -13.413  -3.621  1.00  0.00     0.019 A 
HETATM   27  C   UNL     1      37.730 -12.872  -2.352  1.00  0.00     0.027 A 
ENDBRANCH  21  22
ENDBRANCH  18  21
ENDBRANCH  13  17
ENDBRANCH   9  10
ENDBRANCH   1   9
TORSDOF 5
ENDMDL
MODEL 5
REMARK VINA RESULT:      -7.6      1.819      3.075
REMARK  5 active torsions:
REMARK  status: ('A' for Active; 'I' for Inactive)
REMARK    1  A    between atoms: C_3  and  N_4 
REMARK       I    between atoms: N_4  and  C_5 
REMARK    2  A    between atoms: C_5  and  C_6 
REMARK    3  A    between atoms: C_6  and  C_7 
REMARK    4  A    between atoms: C_16  and  O_17 
REMARK    5  A    between atoms: O_17  and  C_18 
ROOT
HETATM    1  C   UNL     1      43.100 -17.885   5.080  1.00  0.00     0.190 A 
HETATM    2  N   UNL     1      42.671 -16.769   5.724  1.00  0.00    -0.235 NA
HETATM    3  C   UNL     1      43.488 -16.238   6.659  1.00  0.00     0.119 A 
HETATM    4  C   UNL     1      44.715 -16.780   7.004  1.00  0.00     0.021 A 
HETATM    5  C   UNL     1      45.129 -17.938   6.353  1.00  0.00     0.028 A 
HETATM    6  C   UNL     1      44.310 -18.508   5.373  1.00  0.00     0.097 A 
HETATM    7  C   UNL     1      44.713 -19.708   4.710  1.00  0.00     0.104 C 
HETATM    8  N   UNL     1      45.064 -20.688   4.197  1.00  0.00    -0.191 NA
ENDROOT
BRANCH   1   9
HETATM    9  O   UNL     1      42.303 -18.487   4.111  1.00  0.00    -0.291 OA
BRANCH   9  10
HETATM   10  C   UNL     1      41.937 -17.796   2.983  1.00  0.00     0.078 A 
HETATM   11  C   UNL     1      42.790 -17.918   1.891  1.00  0.00     0.039 A 
HETATM   12  C   UNL     1      42.549 -17.181   0.729  1.00  0.00     0.033 A 
HETATM   13  C   UNL     1      41.465 -16.291   0.640  1.00  0.00     0.040 A 
HETATM   14  C   UNL     1      40.568 -16.204   1.721  1.00  0.00    -0.033 A 
HETATM   15  C   UNL     1      39.275 -15.437   1.705  1.00  0.00     0.050 C 
HETATM   16  C   UNL     1      40.855 -16.922   2.906  1.00  0.00     0.046 A 
BRANCH  13  17
HETATM   17  N   UNL     1      41.365 -15.586  -0.582  1.00  0.00    -0.326 N 
HETATM   18  C   UNL     1      41.564 -14.232  -0.788  1.00  0.00     0.227 C 
HETATM   19  O   UNL     1      41.976 -13.428   0.046  1.00  0.00    -0.273 OA
HETATM   20  H   UNL     1      41.434 -16.156  -1.417  1.00  0.00     0.169 HD
BRANCH  18  21
HETATM   21  C   UNL     1      41.255 -13.790  -2.220  1.00  0.00     0.159 C 
BRANCH  21  22
HETATM   22  C   UNL     1      39.952 -14.342  -2.711  1.00  0.00     0.017 A 
HETATM   23  N   UNL     1      39.884 -15.330  -3.669  1.00  0.00    -0.369 N 
HETATM   24  H   UNL     1      40.695 -15.781  -4.087  1.00  0.00     0.165 HD
HETATM   25  C   UNL     1      38.576 -15.620  -3.944  1.00  0.00     0.088 A 
HETATM   26  C   UNL     1      37.788 -14.802  -3.167  1.00  0.00     0.019 A 
HETATM   27  C   UNL     1      38.652 -13.996  -2.390  1.00  0.00     0.027 A 
ENDBRANCH  21  22
ENDBRANCH  18  21
ENDBRANCH  13  17
ENDBRANCH   9  10
ENDBRANCH   1   9
TORSDOF 5
ENDMDL
MODEL 6
REMARK VINA RESULT:      -7.6      3.130      3.960
REMARK  5 active torsions:
REMARK  status: ('A' for Active; 'I' for Inactive)
REMARK    1  A    between atoms: C_3  and  N_4 
REMARK       I    between atoms: N_4  and  C_5 
REMARK    2  A    between atoms: C_5  and  C_6 
REMARK    3  A    between atoms: C_6  and  C_7 
REMARK    4  A    between atoms: C_16  and  O_17 
REMARK    5  A    between atoms: O_17  and  C_18 
ROOT
HETATM    1  C   UNL     1      44.195 -19.838   3.998  1.00  0.00     0.190 A 
HETATM    2  N   UNL     1      44.162 -19.372   5.273  1.00  0.00    -0.235 NA
HETATM    3  C   UNL     1      44.323 -20.271   6.268  1.00  0.00     0.119 A 
HETATM    4  C   UNL     1      44.494 -21.629   6.056  1.00  0.00     0.021 A 
HETATM    5  C   UNL     1      44.500 -22.094   4.744  1.00  0.00     0.028 A 
HETATM    6  C   UNL     1      44.345 -21.187   3.690  1.00  0.00     0.097 A 
HETATM    7  C   UNL     1      44.328 -21.653   2.340  1.00  0.00     0.104 C 
HETATM    8  N   UNL     1      44.310 -22.063   1.254  1.00  0.00    -0.191 NA
ENDROOT
BRANCH   1   9
HETATM    9  O   UNL     1      44.028 -18.965   2.927  1.00  0.00    -0.291 OA
BRANCH   9  10
HETATM   10  C   UNL     1      42.871 -18.236   2.797  1.00  0.00     0.078 A 
HETATM   11  C   UNL     1      42.148 -18.444   1.628  1.00  0.00     0.039 A 
HETATM   12  C   UNL     1      41.007 -17.683   1.366  1.00  0.00     0.033 A 
HETATM   13  C   UNL     1      40.575 -16.684   2.256  1.00  0.00     0.040 A 
HETATM   14  C   UNL     1      41.271 -16.507   3.466  1.00  0.00    -0.033 A 
HETATM   15  C   UNL     1      40.828 -15.608   4.587  1.00  0.00     0.050 C 
HETATM   16  C   UNL     1      42.451 -17.254   3.691  1.00  0.00     0.046 A 
BRANCH  13  17
HETATM   17  N   UNL     1      39.425 -15.969   1.845  1.00  0.00    -0.326 N 
HETATM   18  C   UNL     1      39.386 -14.770   1.155  1.00  0.00     0.227 C 
HETATM   19  O   UNL     1      40.354 -14.178   0.680  1.00  0.00    -0.273 OA
HETATM   20  H   UNL     1      38.572 -16.514   1.798  1.00  0.00     0.169 HD
BRANCH  18  21
HETATM   21  C   UNL     1      37.968 -14.224   0.980  1.00  0.00     0.159 C 
BRANCH  21  22
HETATM   22  C   UNL     1      37.862 -12.789   1.396  1.00  0.00     0.017 A 
HETATM   23  N   UNL     1      38.622 -12.259   2.416  1.00  0.00    -0.369 N 
HETATM   24  H   UNL     1      39.327 -12.776   2.935  1.00  0.00     0.165 HD
HETATM   25  C   UNL     1      38.300 -10.941   2.597  1.00  0.00     0.088 A 
HETATM   26  C   UNL     1      37.312 -10.618   1.696  1.00  0.00     0.019 A 
HETATM   27  C   UNL     1      37.033 -11.781   0.939  1.00  0.00     0.027 A 
ENDBRANCH  21  22
ENDBRANCH  18  21
ENDBRANCH  13  17
ENDBRANCH   9  10
ENDBRANCH   1   9
TORSDOF 5
ENDMDL
MODEL 7
REMARK VINA RESULT:      -7.5      1.661      9.025
REMARK  5 active torsions:
REMARK  status: ('A' for Active; 'I' for Inactive)
REMARK    1  A    between atoms: C_3  and  N_4 
REMARK       I    between atoms: N_4  and  C_5 
REMARK    2  A    between atoms: C_5  and  C_6 
REMARK    3  A    between atoms: C_6  and  C_7 
REMARK    4  A    between atoms: C_16  and  O_17 
REMARK    5  A    between atoms: O_17  and  C_18 
ROOT
HETATM    1  C   UNL     1      41.227 -14.297  -0.877  1.00  0.00     0.190 A 
HETATM    2  N   UNL     1      41.813 -13.271  -0.208  1.00  0.00    -0.235 NA
HETATM    3  C   UNL     1      42.334 -12.266  -0.945  1.00  0.00     0.119 A 
HETATM    4  C   UNL     1      42.320 -12.242  -2.330  1.00  0.00     0.021 A 
HETATM    5  C   UNL     1      41.739 -13.314  -3.000  1.00  0.00     0.028 A 
HETATM    6  C   UNL     1      41.182 -14.366  -2.266  1.00  0.00     0.097 A 
HETATM    7  C   UNL     1      40.600 -15.483  -2.942  1.00  0.00     0.104 C 
HETATM    8  N   UNL     1      40.142 -16.379  -3.519  1.00  0.00    -0.191 NA
ENDROOT
BRANCH   1   9
HETATM    9  O   UNL     1      40.678 -15.369  -0.178  1.00  0.00    -0.291 OA
BRANCH   9  10
HETATM   10  C   UNL     1      41.427 -16.053   0.748  1.00  0.00     0.078 A 
HETATM   11  C   UNL     1      42.657 -16.526   0.306  1.00  0.00     0.039 A 
HETATM   12  C   UNL     1      43.449 -17.310   1.148  1.00  0.00     0.033 A 
HETATM   13  C   UNL     1      43.021 -17.655   2.441  1.00  0.00     0.040 A 
HETATM   14  C   UNL     1      41.802 -17.132   2.914  1.00  0.00    -0.033 A 
HETATM   15  C   UNL     1      41.301 -17.265   4.325  1.00  0.00     0.050 C 
HETATM   16  C   UNL     1      40.993 -16.381   2.031  1.00  0.00     0.046 A 
BRANCH  13  17
HETATM   17  N   UNL     1      43.909 -18.481   3.168  1.00  0.00    -0.326 N 
HETATM   18  C   UNL     1      44.076 -19.849   3.038  1.00  0.00     0.227 C 
HETATM   19  O   UNL     1      43.557 -20.563   2.183  1.00  0.00    -0.273 OA
HETATM   20  H   UNL     1      44.682 -18.000   3.613  1.00  0.00     0.169 HD
BRANCH  18  21
HETATM   21  C   UNL     1      45.041 -20.437   4.071  1.00  0.00     0.159 C 
BRANCH  21  22
HETATM   22  C   UNL     1      44.462 -20.426   5.452  1.00  0.00     0.017 A 
HETATM   23  N   UNL     1      44.250 -19.258   6.154  1.00  0.00    -0.369 N 
HETATM   24  H   UNL     1      44.431 -18.327   5.787  1.00  0.00     0.165 HD
HETATM   25  C   UNL     1      43.741 -19.547   7.391  1.00  0.00     0.088 A 
HETATM   26  C   UNL     1      43.636 -20.915   7.498  1.00  0.00     0.019 A 
HETATM   27  C   UNL     1      44.090 -21.471   6.278  1.00  0.00     0.027 A 
ENDBRANCH  21  22
ENDBRANCH  18  21
ENDBRANCH  13  17
ENDBRANCH   9  10
ENDBRANCH   1   9
TORSDOF 5
ENDMDL
MODEL 8
REMARK VINA RESULT:      -7.4      2.288      3.326
REMARK  5 active torsions:
REMARK  status: ('A' for Active; 'I' for Inactive)
REMARK    1  A    between atoms: C_3  and  N_4 
REMARK       I    between atoms: N_4  and  C_5 
REMARK    2  A    between atoms: C_5  and  C_6 
REMARK    3  A    between atoms: C_6  and  C_7 
REMARK    4  A    between atoms: C_16  and  O_17 
REMARK    5  A    between atoms: O_17  and  C_18 
ROOT
HETATM    1  C   UNL     1      43.129 -18.342   4.697  1.00  0.00     0.190 A 
HETATM    2  N   UNL     1      42.814 -17.441   5.661  1.00  0.00    -0.235 NA
HETATM    3  C   UNL     1      43.697 -17.275   6.669  1.00  0.00     0.119 A 
HETATM    4  C   UNL     1      44.882 -17.984   6.777  1.00  0.00     0.021 A 
HETATM    5  C   UNL     1      45.178 -18.922   5.793  1.00  0.00     0.028 A 
HETATM    6  C   UNL     1      44.288 -19.113   4.731  1.00  0.00     0.097 A 
HETATM    7  C   UNL     1      44.570 -20.087   3.725  1.00  0.00     0.104 C 
HETATM    8  N   UNL     1      44.822 -20.892   2.928  1.00  0.00    -0.191 NA
ENDROOT
BRANCH   1   9
HETATM    9  O   UNL     1      42.258 -18.568   3.634  1.00  0.00    -0.291 OA
BRANCH   9  10
HETATM   10  C   UNL     1      41.940 -17.552   2.768  1.00  0.00     0.078 A 
HETATM   11  C   UNL     1      42.912 -17.226   1.828  1.00  0.00     0.039 A 
HETATM   12  C   UNL     1      42.715 -16.147   0.963  1.00  0.00     0.033 A 
HETATM   13  C   UNL     1      41.555 -15.358   1.032  1.00  0.00     0.040 A 
HETATM   14  C   UNL     1      40.544 -15.716   1.943  1.00  0.00    -0.033 A 
HETATM   15  C   UNL     1      39.183 -15.081   2.009  1.00  0.00     0.050 C 
HETATM   16  C   UNL     1      40.781 -16.782   2.842  1.00  0.00     0.046 A 
BRANCH  13  17
HETATM   17  N   UNL     1      41.507 -14.278   0.119  1.00  0.00    -0.326 N 
HETATM   18  C   UNL     1      41.922 -12.976   0.339  1.00  0.00     0.227 C 
HETATM   19  O   UNL     1      42.511 -12.564   1.336  1.00  0.00    -0.273 OA
HETATM   20  H   UNL     1      41.432 -14.540  -0.857  1.00  0.00     0.169 HD
BRANCH  18  21
HETATM   21  C   UNL     1      41.613 -12.041  -0.833  1.00  0.00     0.159 C 
BRANCH  21  22
HETATM   22  C   UNL     1      42.471 -10.814  -0.816  1.00  0.00     0.017 A 
HETATM   23  N   UNL     1      42.437  -9.904   0.219  1.00  0.00    -0.369 N 
HETATM   24  H   UNL     1      41.866 -10.006   1.055  1.00  0.00     0.165 HD
HETATM   25  C   UNL     1      43.299  -8.874  -0.042  1.00  0.00     0.088 A 
HETATM   26  C   UNL     1      43.886  -9.111  -1.264  1.00  0.00     0.019 A 
HETATM   27  C   UNL     1      43.366 -10.332  -1.754  1.00  0.00     0.027 A 
ENDBRANCH  21  22
ENDBRANCH  18  21
ENDBRANCH  13  17
ENDBRANCH   9  10
ENDBRANCH   1   9
TORSDOF 5
ENDMDL
MODEL 9
REMARK VINA RESULT:      -7.4      1.803      8.951
REMARK  5 active torsions:
REMARK  status: ('A' for Active; 'I' for Inactive)
REMARK    1  A    between atoms: C_3  and  N_4 
REMARK       I    between atoms: N_4  and  C_5 
REMARK    2  A    between atoms: C_5  and  C_6 
REMARK    3  A    between atoms: C_6  and  C_7 
REMARK    4  A    between atoms: C_16  and  O_17 
REMARK    5  A    between atoms: O_17  and  C_18 
ROOT
HETATM    1  C   UNL     1      41.104 -13.984  -0.969  1.00  0.00     0.190 A 
HETATM    2  N   UNL     1      41.748 -13.002  -0.288  1.00  0.00    -0.235 NA
HETATM    3  C   UNL     1      42.550 -12.177  -0.996  1.00  0.00     0.119 A 
HETATM    4  C   UNL     1      42.761 -12.296  -2.360  1.00  0.00     0.021 A 
HETATM    5  C   UNL     1      42.113 -13.324  -3.038  1.00  0.00     0.028 A 
HETATM    6  C   UNL     1      41.269 -14.190  -2.336  1.00  0.00     0.097 A 
HETATM    7  C   UNL     1      40.613 -15.261  -3.016  1.00  0.00     0.104 C 
HETATM    8  N   UNL     1      40.102 -16.128  -3.595  1.00  0.00    -0.191 NA
ENDROOT
BRANCH   1   9
HETATM    9  O   UNL     1      40.269 -14.873  -0.297  1.00  0.00    -0.291 OA
BRANCH   9  10
HETATM   10  C   UNL     1      40.629 -15.373   0.930  1.00  0.00     0.078 A 
HETATM   11  C   UNL     1      41.356 -16.559   0.915  1.00  0.00     0.039 A 
HETATM   12  C   UNL     1      41.689 -17.191   2.115  1.00  0.00     0.033 A 
HETATM   13  C   UNL     1      41.287 -16.664   3.354  1.00  0.00     0.040 A 
HETATM   14  C   UNL     1      40.599 -15.436   3.378  1.00  0.00    -0.033 A 
HETATM   15  C   UNL     1      40.261 -14.665   4.624  1.00  0.00     0.050 C 
HETATM   16  C   UNL     1      40.229 -14.836   2.152  1.00  0.00     0.046 A 
BRANCH  13  17
HETATM   17  N   UNL     1      41.665 -17.428   4.483  1.00  0.00    -0.326 N 
HETATM   18  C   UNL     1      42.872 -17.383   5.160  1.00  0.00     0.227 C 
HETATM   19  O   UNL     1      43.783 -16.583   4.958  1.00  0.00    -0.273 OA
HETATM   20  H   UNL     1      40.898 -17.828   5.011  1.00  0.00     0.169 HD
BRANCH  18  21
HETATM   21  C   UNL     1      42.980 -18.435   6.266  1.00  0.00     0.159 C 
BRANCH  21  22
HETATM   22  C   UNL     1      43.750 -19.640   5.822  1.00  0.00     0.017 A 
HETATM   23  N   UNL     1      44.470 -19.665   4.647  1.00  0.00    -0.369 N 
HETATM   24  H   UNL     1      44.564 -18.873   4.015  1.00  0.00     0.165 HD
HETATM   25  C   UNL     1      45.047 -20.894   4.483  1.00  0.00     0.088 A 
HETATM   26  C   UNL     1      44.687 -21.679   5.554  1.00  0.00     0.019 A 
HETATM   27  C   UNL     1      43.869 -20.891   6.399  1.00  0.00     0.027 A 
ENDBRANCH  21  22
ENDBRANCH  18  21
ENDBRANCH  13  17
ENDBRANCH   9  10
ENDBRANCH   1   9
TORSDOF 5
ENDMDL
MODEL 10
REMARK VINA RESULT:      -7.4      2.743      4.184
REMARK  5 active torsions:
REMARK  status: ('A' for Active; 'I' for Inactive)
REMARK    1  A    between atoms: C_3  and  N_4 
REMARK       I    between atoms: N_4  and  C_5 
REMARK    2  A    between atoms: C_5  and  C_6 
REMARK    3  A    between atoms: C_6  and  C_7 
REMARK    4  A    between atoms: C_16  and  O_17 
REMARK    5  A    between atoms: O_17  and  C_18 
ROOT
HETATM    1  C   UNL     1      42.412 -15.377   5.697  1.00  0.00     0.190 A 
HETATM    2  N   UNL     1      42.464 -14.022   5.734  1.00  0.00    -0.235 NA
HETATM    3  C   UNL     1      43.475 -13.458   6.431  1.00  0.00     0.119 A 
HETATM    4  C   UNL     1      44.433 -14.184   7.118  1.00  0.00     0.021 A 
HETATM    5  C   UNL     1      44.350 -15.573   7.090  1.00  0.00     0.028 A 
HETATM    6  C   UNL     1      43.321 -16.188   6.370  1.00  0.00     0.097 A 
HETATM    7  C   UNL     1      43.211 -17.613   6.350  1.00  0.00     0.104 C 
HETATM    8  N   UNL     1      43.144 -18.771   6.360  1.00  0.00    -0.191 NA
ENDROOT
BRANCH   1   9
HETATM    9  O   UNL     1      41.391 -16.022   5.003  1.00  0.00    -0.291 OA
BRANCH   9  10
HETATM   10  C   UNL     1      41.418 -16.092   3.632  1.00  0.00     0.078 A 
HETATM   11  C   UNL     1      40.362 -15.475   2.970  1.00  0.00     0.039 A 
HETATM   12  C   UNL     1      40.256 -15.570   1.581  1.00  0.00     0.033 A 
HETATM   13  C   UNL     1      41.189 -16.299   0.825  1.00  0.00     0.040 A 
HETATM   14  C   UNL     1      42.290 -16.879   1.483  1.00  0.00    -0.033 A 
HETATM   15  C   UNL     1      43.455 -17.533   0.793  1.00  0.00     0.050 C 
HETATM   16  C   UNL     1      42.355 -16.813   2.894  1.00  0.00     0.046 A 
BRANCH  13  17
HETATM   17  N   UNL     1      40.936 -16.338  -0.566  1.00  0.00    -0.326 N 
HETATM   18  C   UNL     1      41.170 -15.333  -1.489  1.00  0.00     0.227 C 
HETATM   19  O   UNL     1      41.746 -14.270  -1.269  1.00  0.00    -0.273 OA
HETATM   20  H   UNL     1      40.847 -17.266  -0.963  1.00  0.00     0.169 HD
BRANCH  18  21
HETATM   21  C   UNL     1      40.665 -15.678  -2.892  1.00  0.00     0.159 C 
BRANCH  21  22
HETATM   22  C   UNL     1      39.326 -15.070  -3.174  1.00  0.00     0.017 A 
HETATM   23  N   UNL     1      38.232 -15.829  -3.532  1.00  0.00    -0.369 N 
HETATM   24  H   UNL     1      38.235 -16.844  -3.598  1.00  0.00     0.165 HD
HETATM   25  C   UNL     1      37.156 -15.013  -3.754  1.00  0.00     0.088 A 
HETATM   26  C   UNL     1      37.559 -13.713  -3.553  1.00  0.00     0.019 A 
HETATM   27  C   UNL     1      38.926 -13.746  -3.188  1.00  0.00     0.027 A 
ENDBRANCH  21  22
ENDBRANCH  18  21
ENDBRANCH  13  17
ENDBRANCH   9  10
ENDBRANCH   1   9
TORSDOF 5
ENDMDL
