MODEL 1
REMARK VINA RESULT:      -8.9      0.000      0.000
REMARK  6 active torsions:
REMARK  status: ('A' for Active; 'I' for Inactive)
REMARK    1  A    between atoms: C_4  and  C_5 
REMARK    2  A    between atoms: C_5  and  N_6 
REMARK    3  A    between atoms: N_6  and  N_7 
REMARK    4  A    between atoms: N_6  and  C_21 
REMARK       I    between atoms: N_7  and  C_8 
REMARK    5  A    between atoms: C_8  and  C_9 
REMARK    6  A    between atoms: C_9  and  C_10 
ROOT
HETATM    1  N   UNL     1      41.172 -16.274   3.017  1.00  0.00    -0.267 N 
HETATM    2  C   UNL     1      42.415 -16.123   2.407  1.00  0.00     0.240 C 
HETATM    3  O   UNL     1      43.022 -15.056   2.342  1.00  0.00    -0.272 OA
HETATM    4  H   UNL     1      40.664 -17.150   3.052  1.00  0.00     0.190 HD
ENDROOT
BRANCH   1   5
HETATM    5  N   UNL     1      40.559 -15.183   3.674  1.00  0.00    -0.286 N 
BRANCH   5   6
HETATM    6  C   UNL     1      40.291 -15.393   5.111  1.00  0.00     0.187 C 
BRANCH   6   7
HETATM    7  C   UNL     1      41.554 -15.709   5.890  1.00  0.00    -0.038 A 
HETATM    8  C   UNL     1      42.635 -14.815   5.871  1.00  0.00     0.009 A 
HETATM    9  C   UNL     1      43.783 -15.072   6.625  1.00  0.00     0.001 A 
HETATM   10  C   UNL     1      43.859 -16.218   7.413  1.00  0.00     0.000 A 
HETATM   11  C   UNL     1      42.789 -17.107   7.453  1.00  0.00     0.001 A 
HETATM   12  C   UNL     1      41.641 -16.852   6.700  1.00  0.00     0.009 A 
ENDBRANCH   6   7
ENDBRANCH   5   6
BRANCH   5  13
HETATM   13  C   UNL     1      39.689 -14.431   2.855  1.00  0.00     0.051 A 
HETATM   14  C   UNL     1      39.542 -13.042   3.047  1.00  0.00     0.031 A 
HETATM   15  C   UNL     1      38.685 -12.268   2.255  1.00  0.00     0.002 A 
HETATM   16  C   UNL     1      37.941 -12.867   1.247  1.00  0.00     0.000 A 
HETATM   17  C   UNL     1      38.048 -14.237   1.042  1.00  0.00     0.002 A 
HETATM   18  C   UNL     1      38.905 -15.007   1.842  1.00  0.00     0.031 A 
ENDBRANCH   5  13
ENDBRANCH   1   5
BRANCH   2  19
HETATM   19  C   UNL     1      42.944 -17.442   1.862  1.00  0.00     0.145 C 
BRANCH  19  20
HETATM   20  C   UNL     1      43.571 -18.310   2.905  1.00  0.00    -0.021 A 
HETATM   21  C   UNL     1      43.829 -19.716   2.802  1.00  0.00    -0.001 A 
HETATM   22  C   UNL     1      44.444 -20.118   3.987  1.00  0.00     0.042 A 
HETATM   23  C   UNL     1      43.589 -20.687   1.807  1.00  0.00     0.014 A 
HETATM   24  C   UNL     1      44.841 -21.440   4.225  1.00  0.00     0.030 A 
HETATM   25  N   UNL     1      44.546 -19.004   4.787  1.00  0.00    -0.365 N 
HETATM   26  C   UNL     1      44.598 -22.380   3.220  1.00  0.00     0.002 A 
HETATM   27  C   UNL     1      43.979 -22.012   2.028  1.00  0.00     0.001 A 
HETATM   28  H   UNL     1      44.943 -19.003   5.716  1.00  0.00     0.165 HD
HETATM   29  C   UNL     1      44.033 -17.910   4.144  1.00  0.00     0.097 A 
ENDBRANCH  19  20
ENDBRANCH   2  19
TORSDOF 6
ENDMDL
MODEL 2
REMARK VINA RESULT:      -8.9      1.909      6.989
REMARK  6 active torsions:
REMARK  status: ('A' for Active; 'I' for Inactive)
REMARK    1  A    between atoms: C_4  and  C_5 
REMARK    2  A    between atoms: C_5  and  N_6 
REMARK    3  A    between atoms: N_6  and  N_7 
REMARK    4  A    between atoms: N_6  and  C_21 
REMARK       I    between atoms: N_7  and  C_8 
REMARK    5  A    between atoms: C_8  and  C_9 
REMARK    6  A    between atoms: C_9  and  C_10 
ROOT
HETATM    1  N   UNL     1      43.329 -18.006   4.723  1.00  0.00    -0.267 N 
HETATM    2  C   UNL     1      43.938 -17.690   5.935  1.00  0.00     0.240 C 
HETATM    3  O   UNL     1      45.153 -17.711   6.117  1.00  0.00    -0.272 OA
HETATM    4  H   UNL     1      42.326 -18.008   4.580  1.00  0.00     0.190 HD
ENDROOT
BRANCH   1   5
HETATM    5  N   UNL     1      44.110 -18.311   3.586  1.00  0.00    -0.286 N 
BRANCH   5   6
HETATM    6  C   UNL     1      44.062 -17.301   2.509  1.00  0.00     0.187 C 
BRANCH   6   7
HETATM    7  C   UNL     1      42.674 -16.712   2.336  1.00  0.00    -0.038 A 
HETATM    8  C   UNL     1      42.518 -15.422   1.807  1.00  0.00     0.009 A 
HETATM    9  C   UNL     1      41.244 -14.889   1.598  1.00  0.00     0.001 A 
HETATM   10  C   UNL     1      40.113 -15.643   1.904  1.00  0.00     0.000 A 
HETATM   11  C   UNL     1      40.252 -16.930   2.417  1.00  0.00     0.001 A 
HETATM   12  C   UNL     1      41.525 -17.463   2.627  1.00  0.00     0.009 A 
ENDBRANCH   6   7
ENDBRANCH   5   6
BRANCH   5  13
HETATM   13  C   UNL     1      44.215 -19.692   3.310  1.00  0.00     0.051 A 
HETATM   14  C   UNL     1      43.791 -20.211   2.070  1.00  0.00     0.031 A 
HETATM   15  C   UNL     1      43.877 -21.576   1.767  1.00  0.00     0.002 A 
HETATM   16  C   UNL     1      44.388 -22.465   2.704  1.00  0.00     0.000 A 
HETATM   17  C   UNL     1      44.799 -21.988   3.942  1.00  0.00     0.002 A 
HETATM   18  C   UNL     1      44.705 -20.621   4.241  1.00  0.00     0.031 A 
ENDBRANCH   5  13
ENDBRANCH   1   5
BRANCH   2  19
HETATM   19  C   UNL     1      42.922 -17.284   6.993  1.00  0.00     0.145 C 
BRANCH  19  20
HETATM   20  C   UNL     1      41.823 -16.418   6.464  1.00  0.00    -0.021 A 
HETATM   21  C   UNL     1      41.975 -15.152   5.810  1.00  0.00    -0.001 A 
HETATM   22  C   UNL     1      40.702 -14.705   5.459  1.00  0.00     0.042 A 
HETATM   23  C   UNL     1      43.084 -14.342   5.489  1.00  0.00     0.014 A 
HETATM   24  C   UNL     1      40.480 -13.492   4.795  1.00  0.00     0.030 A 
HETATM   25  N   UNL     1      39.807 -15.655   5.894  1.00  0.00    -0.365 N 
HETATM   26  C   UNL     1      41.597 -12.712   4.483  1.00  0.00     0.002 A 
HETATM   27  C   UNL     1      42.881 -13.127   4.825  1.00  0.00     0.001 A 
HETATM   28  H   UNL     1      38.805 -15.586   5.784  1.00  0.00     0.165 HD
HETATM   29  C   UNL     1      40.469 -16.693   6.491  1.00  0.00     0.097 A 
ENDBRANCH  19  20
ENDBRANCH   2  19
TORSDOF 6
ENDMDL
MODEL 3
REMARK VINA RESULT:      -8.4      2.614      5.303
REMARK  6 active torsions:
REMARK  status: ('A' for Active; 'I' for Inactive)
REMARK    1  A    between atoms: C_4  and  C_5 
REMARK    2  A    between atoms: C_5  and  N_6 
REMARK    3  A    between atoms: N_6  and  N_7 
REMARK    4  A    between atoms: N_6  and  C_21 
REMARK       I    between atoms: N_7  and  C_8 
REMARK    5  A    between atoms: C_8  and  C_9 
REMARK    6  A    between atoms: C_9  and  C_10 
ROOT
HETATM    1  N   UNL     1      42.601 -15.792   0.553  1.00  0.00    -0.267 N 
HETATM    2  C   UNL     1      42.216 -17.076   0.929  1.00  0.00     0.240 C 
HETATM    3  O   UNL     1      41.054 -17.404   1.158  1.00  0.00    -0.272 OA
HETATM    4  H   UNL     1      43.561 -15.518   0.384  1.00  0.00     0.190 HD
ENDROOT
BRANCH   1   5
HETATM    5  N   UNL     1      41.630 -14.786   0.343  1.00  0.00    -0.286 N 
BRANCH   5   6
HETATM    6  C   UNL     1      41.703 -14.117  -0.973  1.00  0.00     0.187 C 
BRANCH   6   7
HETATM    7  C   UNL     1      40.579 -14.545  -1.897  1.00  0.00    -0.038 A 
HETATM    8  C   UNL     1      40.768 -15.610  -2.790  1.00  0.00     0.009 A 
HETATM    9  C   UNL     1      39.724 -16.044  -3.611  1.00  0.00     0.001 A 
HETATM   10  C   UNL     1      38.477 -15.426  -3.540  1.00  0.00     0.000 A 
HETATM   11  C   UNL     1      38.270 -14.377  -2.648  1.00  0.00     0.001 A 
HETATM   12  C   UNL     1      39.313 -13.942  -1.829  1.00  0.00     0.009 A 
ENDBRANCH   6   7
ENDBRANCH   5   6
BRANCH   5  13
HETATM   13  C   UNL     1      41.255 -14.091   1.513  1.00  0.00     0.051 A 
HETATM   14  C   UNL     1      42.214 -13.396   2.275  1.00  0.00     0.031 A 
HETATM   15  C   UNL     1      41.876 -12.701   3.443  1.00  0.00     0.002 A 
HETATM   16  C   UNL     1      40.560 -12.688   3.886  1.00  0.00     0.000 A 
HETATM   17  C   UNL     1      39.591 -13.378   3.167  1.00  0.00     0.002 A 
HETATM   18  C   UNL     1      39.939 -14.076   2.002  1.00  0.00     0.031 A 
ENDBRANCH   5  13
ENDBRANCH   1   5
BRANCH   2  19
HETATM   19  C   UNL     1      43.402 -18.029   0.990  1.00  0.00     0.145 C 
BRANCH  19  20
HETATM   20  C   UNL     1      43.735 -18.477   2.377  1.00  0.00    -0.021 A 
HETATM   21  C   UNL     1      44.051 -19.813   2.789  1.00  0.00    -0.001 A 
HETATM   22  C   UNL     1      44.320 -19.779   4.157  1.00  0.00     0.042 A 
HETATM   23  C   UNL     1      44.127 -21.053   2.121  1.00  0.00     0.014 A 
HETATM   24  C   UNL     1      44.670 -20.919   4.890  1.00  0.00     0.030 A 
HETATM   25  N   UNL     1      44.162 -18.475   4.566  1.00  0.00    -0.365 N 
HETATM   26  C   UNL     1      44.745 -22.134   4.202  1.00  0.00     0.002 A 
HETATM   27  C   UNL     1      44.475 -22.203   2.837  1.00  0.00     0.001 A 
HETATM   28  H   UNL     1      44.282 -18.158   5.517  1.00  0.00     0.165 HD
HETATM   29  C   UNL     1      43.819 -17.682   3.504  1.00  0.00     0.097 A 
ENDBRANCH  19  20
ENDBRANCH   2  19
TORSDOF 6
ENDMDL
MODEL 4
REMARK VINA RESULT:      -8.3      1.692      7.302
REMARK  6 active torsions:
REMARK  status: ('A' for Active; 'I' for Inactive)
REMARK    1  A    between atoms: C_4  and  C_5 
REMARK    2  A    between atoms: C_5  and  N_6 
REMARK    3  A    between atoms: N_6  and  N_7 
REMARK    4  A    between atoms: N_6  and  C_21 
REMARK       I    between atoms: N_7  and  C_8 
REMARK    5  A    between atoms: C_8  and  C_9 
REMARK    6  A    between atoms: C_9  and  C_10 
ROOT
HETATM    1  N   UNL     1      42.460 -17.241   3.721  1.00  0.00    -0.267 N 
HETATM    2  C   UNL     1      43.204 -16.064   3.728  1.00  0.00     0.240 C 
HETATM    3  O   UNL     1      43.908 -15.693   2.791  1.00  0.00    -0.272 OA
HETATM    4  H   UNL     1      41.896 -17.556   4.502  1.00  0.00     0.190 HD
ENDROOT
BRANCH   1   5
HETATM    5  N   UNL     1      42.422 -18.058   2.568  1.00  0.00    -0.286 N 
BRANCH   5   6
HETATM    6  C   UNL     1      41.164 -17.987   1.796  1.00  0.00     0.187 C 
BRANCH   6   7
HETATM    7  C   UNL     1      40.843 -16.573   1.352  1.00  0.00    -0.038 A 
HETATM    8  C   UNL     1      41.585 -15.972   0.324  1.00  0.00     0.009 A 
HETATM    9  C   UNL     1      41.266 -14.689  -0.128  1.00  0.00     0.001 A 
HETATM   10  C   UNL     1      40.196 -13.997   0.435  1.00  0.00     0.000 A 
HETATM   11  C   UNL     1      39.441 -14.586   1.446  1.00  0.00     0.001 A 
HETATM   12  C   UNL     1      39.759 -15.867   1.898  1.00  0.00     0.009 A 
ENDBRANCH   6   7
ENDBRANCH   5   6
BRANCH   5  13
HETATM   13  C   UNL     1      43.158 -19.257   2.686  1.00  0.00     0.051 A 
HETATM   14  C   UNL     1      44.030 -19.461   3.774  1.00  0.00     0.031 A 
HETATM   15  C   UNL     1      44.778 -20.636   3.917  1.00  0.00     0.002 A 
HETATM   16  C   UNL     1      44.678 -21.644   2.967  1.00  0.00     0.000 A 
HETATM   17  C   UNL     1      43.841 -21.467   1.872  1.00  0.00     0.002 A 
HETATM   18  C   UNL     1      43.099 -20.286   1.732  1.00  0.00     0.031 A 
ENDBRANCH   5  13
ENDBRANCH   1   5
BRANCH   2  19
HETATM   19  C   UNL     1      43.016 -15.281   5.020  1.00  0.00     0.145 C 
BRANCH  19  20
HETATM   20  C   UNL     1      41.664 -14.654   5.146  1.00  0.00    -0.021 A 
HETATM   21  C   UNL     1      41.200 -13.482   4.464  1.00  0.00    -0.001 A 
HETATM   22  C   UNL     1      39.879 -13.266   4.853  1.00  0.00     0.042 A 
HETATM   23  C   UNL     1      41.789 -12.580   3.554  1.00  0.00     0.014 A 
HETATM   24  C   UNL     1      39.112 -12.198   4.370  1.00  0.00     0.030 A 
HETATM   25  N   UNL     1      39.553 -14.259   5.746  1.00  0.00    -0.365 N 
HETATM   26  C   UNL     1      39.717 -11.323   3.464  1.00  0.00     0.002 A 
HETATM   27  C   UNL     1      41.038 -11.508   3.061  1.00  0.00     0.001 A 
HETATM   28  H   UNL     1      38.656 -14.344   6.202  1.00  0.00     0.165 HD
HETATM   29  C   UNL     1      40.615 -15.105   5.924  1.00  0.00     0.097 A 
ENDBRANCH  19  20
ENDBRANCH   2  19
TORSDOF 6
ENDMDL
MODEL 5
REMARK VINA RESULT:      -8.3      2.523      3.634
REMARK  6 active torsions:
REMARK  status: ('A' for Active; 'I' for Inactive)
REMARK    1  A    between atoms: C_4  and  C_5 
REMARK    2  A    between atoms: C_5  and  N_6 
REMARK    3  A    between atoms: N_6  and  N_7 
REMARK    4  A    between atoms: N_6  and  C_21 
REMARK       I    between atoms: N_7  and  C_8 
REMARK    5  A    between atoms: C_8  and  C_9 
REMARK    6  A    between atoms: C_9  and  C_10 
ROOT
HETATM    1  N   UNL     1      41.647 -17.057   1.081  1.00  0.00    -0.267 N 
HETATM    2  C   UNL     1      42.940 -17.508   1.332  1.00  0.00     0.240 C 
HETATM    3  O   UNL     1      43.924 -16.772   1.386  1.00  0.00    -0.272 OA
HETATM    4  H   UNL     1      40.840 -17.667   1.016  1.00  0.00     0.190 HD
ENDROOT
BRANCH   1   5
HETATM    5  N   UNL     1      41.383 -15.676   0.939  1.00  0.00    -0.286 N 
BRANCH   5   6
HETATM    6  C   UNL     1      40.463 -15.112   1.948  1.00  0.00     0.187 C 
BRANCH   6   7
HETATM    7  C   UNL     1      41.191 -14.645   3.194  1.00  0.00    -0.038 A 
HETATM    8  C   UNL     1      40.552 -14.690   4.442  1.00  0.00     0.009 A 
HETATM    9  C   UNL     1      41.230 -14.310   5.602  1.00  0.00     0.001 A 
HETATM   10  C   UNL     1      42.557 -13.891   5.530  1.00  0.00     0.000 A 
HETATM   11  C   UNL     1      43.209 -13.855   4.300  1.00  0.00     0.001 A 
HETATM   12  C   UNL     1      42.533 -14.234   3.140  1.00  0.00     0.009 A 
ENDBRANCH   6   7
ENDBRANCH   5   6
BRANCH   5  13
HETATM   13  C   UNL     1      41.398 -15.218  -0.396  1.00  0.00     0.051 A 
HETATM   14  C   UNL     1      41.771 -13.893  -0.698  1.00  0.00     0.031 A 
HETATM   15  C   UNL     1      41.792 -13.407  -2.011  1.00  0.00     0.002 A 
HETATM   16  C   UNL     1      41.432 -14.237  -3.065  1.00  0.00     0.000 A 
HETATM   17  C   UNL     1      41.043 -15.544  -2.800  1.00  0.00     0.002 A 
HETATM   18  C   UNL     1      41.019 -16.022  -1.483  1.00  0.00     0.031 A 
ENDBRANCH   5  13
ENDBRANCH   1   5
BRANCH   2  19
HETATM   19  C   UNL     1      42.983 -19.012   1.563  1.00  0.00     0.145 C 
BRANCH  19  20
HETATM   20  C   UNL     1      43.673 -19.401   2.831  1.00  0.00    -0.021 A 
HETATM   21  C   UNL     1      43.398 -18.893   4.143  1.00  0.00    -0.001 A 
HETATM   22  C   UNL     1      44.252 -19.542   5.032  1.00  0.00     0.042 A 
HETATM   23  C   UNL     1      42.499 -17.933   4.653  1.00  0.00     0.014 A 
HETATM   24  C   UNL     1      44.249 -19.288   6.409  1.00  0.00     0.030 A 
HETATM   25  N   UNL     1      45.028 -20.403   4.292  1.00  0.00    -0.365 N 
HETATM   26  C   UNL     1      43.344 -18.337   6.890  1.00  0.00     0.002 A 
HETATM   27  C   UNL     1      42.482 -17.666   6.026  1.00  0.00     0.001 A 
HETATM   28  H   UNL     1      45.748 -20.996   4.678  1.00  0.00     0.165 HD
HETATM   29  C   UNL     1      44.683 -20.333   2.969  1.00  0.00     0.097 A 
ENDBRANCH  19  20
ENDBRANCH   2  19
TORSDOF 6
ENDMDL
MODEL 6
REMARK VINA RESULT:      -8.1      2.347      2.885
REMARK  6 active torsions:
REMARK  status: ('A' for Active; 'I' for Inactive)
REMARK    1  A    between atoms: C_4  and  C_5 
REMARK    2  A    between atoms: C_5  and  N_6 
REMARK    3  A    between atoms: N_6  and  N_7 
REMARK    4  A    between atoms: N_6  and  C_21 
REMARK       I    between atoms: N_7  and  C_8 
REMARK    5  A    between atoms: C_8  and  C_9 
REMARK    6  A    between atoms: C_9  and  C_10 
ROOT
HETATM    1  N   UNL     1      42.110 -16.810   1.129  1.00  0.00    -0.267 N 
HETATM    2  C   UNL     1      43.452 -17.126   1.324  1.00  0.00     0.240 C 
HETATM    3  O   UNL     1      44.352 -16.290   1.376  1.00  0.00    -0.272 OA
HETATM    4  H   UNL     1      41.372 -17.501   1.067  1.00  0.00     0.190 HD
ENDROOT
BRANCH   1   5
HETATM    5  N   UNL     1      41.695 -15.461   1.048  1.00  0.00    -0.286 N 
BRANCH   5   6
HETATM    6  C   UNL     1      40.811 -15.015   2.145  1.00  0.00     0.187 C 
BRANCH   6   7
HETATM    7  C   UNL     1      41.524 -14.995   3.484  1.00  0.00    -0.038 A 
HETATM    8  C   UNL     1      41.044 -15.773   4.548  1.00  0.00     0.009 A 
HETATM    9  C   UNL     1      41.721 -15.801   5.771  1.00  0.00     0.001 A 
HETATM   10  C   UNL     1      42.888 -15.060   5.939  1.00  0.00     0.000 A 
HETATM   11  C   UNL     1      43.384 -14.294   4.887  1.00  0.00     0.001 A 
HETATM   12  C   UNL     1      42.709 -14.265   3.666  1.00  0.00     0.009 A 
ENDBRANCH   6   7
ENDBRANCH   5   6
BRANCH   5  13
HETATM   13  C   UNL     1      41.548 -14.980  -0.270  1.00  0.00     0.051 A 
HETATM   14  C   UNL     1      41.814 -13.630  -0.577  1.00  0.00     0.031 A 
HETATM   15  C   UNL     1      41.674 -13.121  -1.874  1.00  0.00     0.002 A 
HETATM   16  C   UNL     1      41.255 -13.951  -2.906  1.00  0.00     0.000 A 
HETATM   17  C   UNL     1      40.969 -15.284  -2.634  1.00  0.00     0.002 A 
HETATM   18  C   UNL     1      41.106 -15.785  -1.332  1.00  0.00     0.031 A 
ENDBRANCH   5  13
ENDBRANCH   1   5
BRANCH   2  19
HETATM   19  C   UNL     1      43.664 -18.623   1.496  1.00  0.00     0.145 C 
BRANCH  19  20
HETATM   20  C   UNL     1      43.921 -19.029   2.912  1.00  0.00    -0.021 A 
HETATM   21  C   UNL     1      44.231 -20.349   3.378  1.00  0.00    -0.001 A 
HETATM   22  C   UNL     1      44.418 -20.274   4.758  1.00  0.00     0.042 A 
HETATM   23  C   UNL     1      44.363 -21.605   2.749  1.00  0.00     0.014 A 
HETATM   24  C   UNL     1      44.741 -21.389   5.541  1.00  0.00     0.030 A 
HETATM   25  N   UNL     1      44.218 -18.963   5.122  1.00  0.00    -0.365 N 
HETATM   26  C   UNL     1      44.873 -22.620   4.892  1.00  0.00     0.002 A 
HETATM   27  C   UNL     1      44.685 -22.729   3.516  1.00  0.00     0.001 A 
HETATM   28  H   UNL     1      44.278 -18.619   6.069  1.00  0.00     0.165 HD
HETATM   29  C   UNL     1      43.928 -18.204   4.020  1.00  0.00     0.097 A 
ENDBRANCH  19  20
ENDBRANCH   2  19
TORSDOF 6
ENDMDL
MODEL 7
REMARK VINA RESULT:      -8.1      2.351      4.312
REMARK  6 active torsions:
REMARK  status: ('A' for Active; 'I' for Inactive)
REMARK    1  A    between atoms: C_4  and  C_5 
REMARK    2  A    between atoms: C_5  and  N_6 
REMARK    3  A    between atoms: N_6  and  N_7 
REMARK    4  A    between atoms: N_6  and  C_21 
REMARK       I    between atoms: N_7  and  C_8 
REMARK    5  A    between atoms: C_8  and  C_9 
REMARK    6  A    between atoms: C_9  and  C_10 
ROOT
HETATM    1  N   UNL     1      42.891 -14.677   5.182  1.00  0.00    -0.267 N 
HETATM    2  C   UNL     1      42.732 -15.834   5.940  1.00  0.00     0.240 C 
HETATM    3  O   UNL     1      41.640 -16.300   6.259  1.00  0.00    -0.272 OA
HETATM    4  H   UNL     1      43.791 -14.283   4.937  1.00  0.00     0.190 HD
ENDROOT
BRANCH   1   5
HETATM    5  N   UNL     1      41.764 -13.998   4.666  1.00  0.00    -0.286 N 
BRANCH   5   6
HETATM    6  C   UNL     1      41.815 -13.719   3.216  1.00  0.00     0.187 C 
BRANCH   6   7
HETATM    7  C   UNL     1      41.523 -14.953   2.384  1.00  0.00    -0.038 A 
HETATM    8  C   UNL     1      40.657 -15.943   2.872  1.00  0.00     0.009 A 
HETATM    9  C   UNL     1      40.342 -17.059   2.093  1.00  0.00     0.001 A 
HETATM   10  C   UNL     1      40.880 -17.193   0.815  1.00  0.00     0.000 A 
HETATM   11  C   UNL     1      41.730 -16.211   0.311  1.00  0.00     0.001 A 
HETATM   12  C   UNL     1      42.046 -15.096   1.088  1.00  0.00     0.009 A 
ENDBRANCH   6   7
ENDBRANCH   5   6
BRANCH   5  13
HETATM   13  C   UNL     1      41.162 -13.103   5.577  1.00  0.00     0.051 A 
HETATM   14  C   UNL     1      41.876 -11.994   6.073  1.00  0.00     0.031 A 
HETATM   15  C   UNL     1      41.310 -11.090   6.981  1.00  0.00     0.002 A 
HETATM   16  C   UNL     1      40.006 -11.275   7.424  1.00  0.00     0.000 A 
HETATM   17  C   UNL     1      39.280 -12.368   6.967  1.00  0.00     0.002 A 
HETATM   18  C   UNL     1      39.855 -13.272   6.063  1.00  0.00     0.031 A 
ENDBRANCH   5  13
ENDBRANCH   1   5
BRANCH   2  19
HETATM   19  C   UNL     1      44.069 -16.467   6.298  1.00  0.00     0.145 C 
BRANCH  19  20
HETATM   20  C   UNL     1      44.198 -17.885   5.842  1.00  0.00    -0.021 A 
HETATM   21  C   UNL     1      44.148 -18.354   4.488  1.00  0.00    -0.001 A 
HETATM   22  C   UNL     1      44.336 -19.735   4.515  1.00  0.00     0.042 A 
HETATM   23  C   UNL     1      43.954 -17.726   3.240  1.00  0.00     0.014 A 
HETATM   24  C   UNL     1      44.349 -20.521   3.356  1.00  0.00     0.030 A 
HETATM   25  N   UNL     1      44.482 -20.097   5.833  1.00  0.00    -0.365 N 
HETATM   26  C   UNL     1      44.161 -19.873   2.132  1.00  0.00     0.002 A 
HETATM   27  C   UNL     1      43.964 -18.496   2.072  1.00  0.00     0.001 A 
HETATM   28  H   UNL     1      44.621 -21.045   6.152  1.00  0.00     0.165 HD
HETATM   29  C   UNL     1      44.410 -18.993   6.640  1.00  0.00     0.097 A 
ENDBRANCH  19  20
ENDBRANCH   2  19
TORSDOF 6
ENDMDL
MODEL 8
REMARK VINA RESULT:      -8.0      2.904      7.032
REMARK  6 active torsions:
REMARK  status: ('A' for Active; 'I' for Inactive)
REMARK    1  A    between atoms: C_4  and  C_5 
REMARK    2  A    between atoms: C_5  and  N_6 
REMARK    3  A    between atoms: N_6  and  N_7 
REMARK    4  A    between atoms: N_6  and  C_21 
REMARK       I    between atoms: N_7  and  C_8 
REMARK    5  A    between atoms: C_8  and  C_9 
REMARK    6  A    between atoms: C_9  and  C_10 
ROOT
HETATM    1  N   UNL     1      42.766 -17.598   1.560  1.00  0.00    -0.267 N 
HETATM    2  C   UNL     1      41.474 -17.173   1.260  1.00  0.00     0.240 C 
HETATM    3  O   UNL     1      40.525 -17.265   2.036  1.00  0.00    -0.272 OA
HETATM    4  H   UNL     1      43.543 -17.541   0.913  1.00  0.00     0.190 HD
ENDROOT
BRANCH   1   5
HETATM    5  N   UNL     1      43.072 -18.111   2.842  1.00  0.00    -0.286 N 
BRANCH   5   6
HETATM    6  C   UNL     1      43.590 -17.115   3.802  1.00  0.00     0.187 C 
BRANCH   6   7
HETATM    7  C   UNL     1      42.478 -16.432   4.577  1.00  0.00    -0.038 A 
HETATM    8  C   UNL     1      41.615 -17.188   5.384  1.00  0.00     0.009 A 
HETATM    9  C   UNL     1      40.620 -16.565   6.140  1.00  0.00     0.001 A 
HETATM   10  C   UNL     1      40.484 -15.179   6.107  1.00  0.00     0.000 A 
HETATM   11  C   UNL     1      41.342 -14.413   5.322  1.00  0.00     0.001 A 
HETATM   12  C   UNL     1      42.336 -15.035   4.565  1.00  0.00     0.009 A 
ENDBRANCH   6   7
ENDBRANCH   5   6
BRANCH   5  13
HETATM   13  C   UNL     1      43.525 -19.447   2.836  1.00  0.00     0.051 A 
HETATM   14  C   UNL     1      44.299 -19.949   3.903  1.00  0.00     0.031 A 
HETATM   15  C   UNL     1      44.768 -21.268   3.926  1.00  0.00     0.002 A 
HETATM   16  C   UNL     1      44.479 -22.126   2.873  1.00  0.00     0.000 A 
HETATM   17  C   UNL     1      43.733 -21.659   1.797  1.00  0.00     0.002 A 
HETATM   18  C   UNL     1      43.272 -20.335   1.779  1.00  0.00     0.031 A 
ENDBRANCH   5  13
ENDBRANCH   1   5
BRANCH   2  19
HETATM   19  C   UNL     1      41.388 -16.554  -0.127  1.00  0.00     0.145 C 
BRANCH  19  20
HETATM   20  C   UNL     1      41.572 -15.070  -0.130  1.00  0.00    -0.021 A 
HETATM   21  C   UNL     1      41.532 -14.208  -1.274  1.00  0.00    -0.001 A 
HETATM   22  C   UNL     1      41.726 -12.903  -0.824  1.00  0.00     0.042 A 
HETATM   23  C   UNL     1      41.353 -14.421  -2.657  1.00  0.00     0.014 A 
HETATM   24  C   UNL     1      41.741 -11.797  -1.684  1.00  0.00     0.030 A 
HETATM   25  N   UNL     1      41.891 -12.967   0.540  1.00  0.00    -0.365 N 
HETATM   26  C   UNL     1      41.554 -12.037  -3.048  1.00  0.00     0.002 A 
HETATM   27  C   UNL     1      41.365 -13.329  -3.531  1.00  0.00     0.001 A 
HETATM   28  H   UNL     1      42.062 -12.167   1.132  1.00  0.00     0.165 HD
HETATM   29  C   UNL     1      41.792 -14.263   0.969  1.00  0.00     0.097 A 
ENDBRANCH  19  20
ENDBRANCH   2  19
TORSDOF 6
ENDMDL
MODEL 9
REMARK VINA RESULT:      -7.9      2.179      7.155
REMARK  6 active torsions:
REMARK  status: ('A' for Active; 'I' for Inactive)
REMARK    1  A    between atoms: C_4  and  C_5 
REMARK    2  A    between atoms: C_5  and  N_6 
REMARK    3  A    between atoms: N_6  and  N_7 
REMARK    4  A    between atoms: N_6  and  C_21 
REMARK       I    between atoms: N_7  and  C_8 
REMARK    5  A    between atoms: C_8  and  C_9 
REMARK    6  A    between atoms: C_9  and  C_10 
ROOT
HETATM    1  N   UNL     1      42.597 -16.556   1.575  1.00  0.00    -0.267 N 
HETATM    2  C   UNL     1      41.314 -16.665   1.044  1.00  0.00     0.240 C 
HETATM    3  O   UNL     1      40.362 -17.155   1.647  1.00  0.00    -0.272 OA
HETATM    4  H   UNL     1      43.385 -16.171   1.070  1.00  0.00     0.190 HD
ENDROOT
BRANCH   1   5
HETATM    5  N   UNL     1      42.857 -16.954   2.907  1.00  0.00    -0.286 N 
BRANCH   5   6
HETATM    6  C   UNL     1      43.218 -15.855   3.825  1.00  0.00     0.187 C 
BRANCH   6   7
HETATM    7  C   UNL     1      42.198 -14.732   3.805  1.00  0.00    -0.038 A 
HETATM    8  C   UNL     1      42.529 -13.490   3.242  1.00  0.00     0.009 A 
HETATM    9  C   UNL     1      41.581 -12.466   3.174  1.00  0.00     0.001 A 
HETATM   10  C   UNL     1      40.292 -12.674   3.657  1.00  0.00     0.000 A 
HETATM   11  C   UNL     1      39.945 -13.906   4.206  1.00  0.00     0.001 A 
HETATM   12  C   UNL     1      40.890 -14.930   4.275  1.00  0.00     0.009 A 
ENDBRANCH   6   7
ENDBRANCH   5   6
BRANCH   5  13
HETATM   13  C   UNL     1      43.425 -18.241   3.024  1.00  0.00     0.051 A 
HETATM   14  C   UNL     1      43.322 -19.171   1.970  1.00  0.00     0.031 A 
HETATM   15  C   UNL     1      43.869 -20.458   2.057  1.00  0.00     0.002 A 
HETATM   16  C   UNL     1      44.535 -20.853   3.210  1.00  0.00     0.000 A 
HETATM   17  C   UNL     1      44.640 -19.966   4.274  1.00  0.00     0.002 A 
HETATM   18  C   UNL     1      44.085 -18.682   4.182  1.00  0.00     0.031 A 
ENDBRANCH   5  13
ENDBRANCH   1   5
BRANCH   2  19
HETATM   19  C   UNL     1      41.228 -16.077  -0.358  1.00  0.00     0.145 C 
BRANCH  19  20
HETATM   20  C   UNL     1      41.006 -14.599  -0.371  1.00  0.00    -0.021 A 
HETATM   21  C   UNL     1      39.842 -13.907   0.099  1.00  0.00    -0.001 A 
HETATM   22  C   UNL     1      40.065 -12.542  -0.078  1.00  0.00     0.042 A 
HETATM   23  C   UNL     1      38.614 -14.321   0.656  1.00  0.00     0.014 A 
HETATM   24  C   UNL     1      39.126 -11.567   0.282  1.00  0.00     0.030 A 
HETATM   25  N   UNL     1      41.310 -12.406  -0.646  1.00  0.00    -0.365 N 
HETATM   26  C   UNL     1      37.920 -12.004   0.838  1.00  0.00     0.002 A 
HETATM   27  C   UNL     1      37.664 -13.361   1.022  1.00  0.00     0.001 A 
HETATM   28  H   UNL     1      41.728 -11.523  -0.898  1.00  0.00     0.165 HD
HETATM   29  C   UNL     1      41.889 -13.635  -0.819  1.00  0.00     0.097 A 
ENDBRANCH  19  20
ENDBRANCH   2  19
TORSDOF 6
ENDMDL
MODEL 10
REMARK VINA RESULT:      -7.9      2.544      4.641
REMARK  6 active torsions:
REMARK  status: ('A' for Active; 'I' for Inactive)
REMARK    1  A    between atoms: C_4  and  C_5 
REMARK    2  A    between atoms: C_5  and  N_6 
REMARK    3  A    between atoms: N_6  and  N_7 
REMARK    4  A    between atoms: N_6  and  C_21 
REMARK       I    between atoms: N_7  and  C_8 
REMARK    5  A    between atoms: C_8  and  C_9 
REMARK    6  A    between atoms: C_9  and  C_10 
ROOT
HETATM    1  N   UNL     1      41.371 -15.488   1.406  1.00  0.00    -0.267 N 
HETATM    2  C   UNL     1      41.413 -16.878   1.356  1.00  0.00     0.240 C 
HETATM    3  O   UNL     1      40.420 -17.598   1.445  1.00  0.00    -0.272 OA
HETATM    4  H   UNL     1      42.193 -14.897   1.353  1.00  0.00     0.190 HD
ENDROOT
BRANCH   1   5
HETATM    5  N   UNL     1      40.134 -14.810   1.495  1.00  0.00    -0.286 N 
BRANCH   5   6
HETATM    6  C   UNL     1      39.628 -14.269   0.217  1.00  0.00     0.187 C 
BRANCH   6   7
HETATM    7  C   UNL     1      40.745 -13.749  -0.669  1.00  0.00    -0.038 A 
HETATM    8  C   UNL     1      41.008 -14.362  -1.903  1.00  0.00     0.009 A 
HETATM    9  C   UNL     1      42.001 -13.860  -2.749  1.00  0.00     0.001 A 
HETATM   10  C   UNL     1      42.734 -12.736  -2.375  1.00  0.00     0.000 A 
HETATM   11  C   UNL     1      42.474 -12.108  -1.159  1.00  0.00     0.001 A 
HETATM   12  C   UNL     1      41.483 -12.608  -0.314  1.00  0.00     0.009 A 
ENDBRANCH   6   7
ENDBRANCH   5   6
BRANCH   5  13
HETATM   13  C   UNL     1      39.927 -14.143   2.721  1.00  0.00     0.051 A 
HETATM   14  C   UNL     1      39.419 -12.829   2.748  1.00  0.00     0.031 A 
HETATM   15  C   UNL     1      39.207 -12.137   3.947  1.00  0.00     0.002 A 
HETATM   16  C   UNL     1      39.505 -12.744   5.161  1.00  0.00     0.000 A 
HETATM   17  C   UNL     1      40.023 -14.033   5.169  1.00  0.00     0.002 A 
HETATM   18  C   UNL     1      40.238 -14.717   3.964  1.00  0.00     0.031 A 
ENDBRANCH   5  13
ENDBRANCH   1   5
BRANCH   2  19
HETATM   19  C   UNL     1      42.829 -17.397   1.147  1.00  0.00     0.145 C 
BRANCH  19  20
HETATM   20  C   UNL     1      43.407 -18.055   2.359  1.00  0.00    -0.021 A 
HETATM   21  C   UNL     1      43.741 -19.442   2.499  1.00  0.00    -0.001 A 
HETATM   22  C   UNL     1      44.273 -19.619   3.776  1.00  0.00     0.042 A 
HETATM   23  C   UNL     1      43.632 -20.567   1.655  1.00  0.00     0.014 A 
HETATM   24  C   UNL     1      44.712 -20.861   4.249  1.00  0.00     0.030 A 
HETATM   25  N   UNL     1      44.254 -18.391   4.395  1.00  0.00    -0.365 N 
HETATM   26  C   UNL     1      44.599 -21.958   3.390  1.00  0.00     0.002 A 
HETATM   27  C   UNL     1      44.066 -21.816   2.111  1.00  0.00     0.001 A 
HETATM   28  H   UNL     1      44.571 -18.223   5.339  1.00  0.00     0.165 HD
HETATM   29  C   UNL     1      43.744 -17.442   3.550  1.00  0.00     0.097 A 
ENDBRANCH  19  20
ENDBRANCH   2  19
TORSDOF 6
ENDMDL
