MODEL 1
REMARK VINA RESULT:      -8.9      0.000      0.000
REMARK  7 active torsions:
REMARK  status: ('A' for Active; 'I' for Inactive)
REMARK    1  A    between atoms: C_7  and  C_8 
REMARK    2  A    between atoms: N_9  and  N_10 
REMARK       I    between atoms: N_10  and  C_11 
REMARK    3  A    between atoms: C_11  and  C_12 
REMARK    4  A    between atoms: C_12  and  N_13 
REMARK       I    between atoms: N_13  and  C_14 
REMARK    5  A    between atoms: C_14  and  C_15 
REMARK    6  A    between atoms: C_16  and  C_17 
REMARK    7  A    between atoms: C_18  and  O_19 
ROOT
HETATM    1  N   UNL     1      40.298 -15.041   6.282  1.00  0.00    -0.246 N 
HETATM    2  C   UNL     1      39.830 -14.206   5.277  1.00  0.00     0.255 C 
HETATM    3  O   UNL     1      39.890 -14.427   4.070  1.00  0.00    -0.270 OA
HETATM    4  H   UNL     1      40.264 -14.718   7.253  1.00  0.00     0.192 HD
ENDROOT
BRANCH   2   5
HETATM    5  C   UNL     1      39.186 -12.933   5.827  1.00  0.00     0.227 C 
BRANCH   5   6
HETATM    6  N   UNL     1      39.745 -12.555   7.115  1.00  0.00    -0.349 N 
HETATM    7  C   UNL     1      39.640 -11.275   7.590  1.00  0.00     0.241 C 
HETATM    8  O   UNL     1      39.049 -10.385   6.986  1.00  0.00    -0.269 OA
HETATM    9  H   UNL     1      40.119 -13.290   7.700  1.00  0.00     0.163 HD
BRANCH   7  10
HETATM   10  C   UNL     1      40.239 -11.094   8.931  1.00  0.00     0.075 C 
HETATM   11  C   UNL     1      41.512 -10.685   9.041  1.00  0.00     0.020 C 
BRANCH  11  12
HETATM   12  C   UNL     1      42.119 -10.440  10.354  1.00  0.00    -0.003 A 
HETATM   13  C   UNL     1      43.514 -10.406  10.545  1.00  0.00     0.078 A 
HETATM   14  C   UNL     1      44.019 -10.178  11.831  1.00  0.00     0.037 A 
HETATM   15  C   UNL     1      43.153  -9.986  12.911  1.00  0.00     0.003 A 
HETATM   16  C   UNL     1      41.775 -10.020  12.719  1.00  0.00     0.001 A 
HETATM   17  C   UNL     1      41.259 -10.246  11.445  1.00  0.00     0.014 A 
BRANCH  13  18
HETATM   18  O   UNL     1      44.287 -10.610   9.429  1.00  0.00    -0.355 OA
HETATM   19  C   UNL     1      45.625 -11.049   9.634  1.00  0.00     0.210 C 
ENDBRANCH  13  18
ENDBRANCH  11  12
ENDBRANCH   7  10
ENDBRANCH   5   6
ENDBRANCH   2   5
BRANCH   1  20
HETATM   20  N   UNL     1      40.920 -16.214   5.969  1.00  0.00    -0.184 NA
HETATM   21  C   UNL     1      42.208 -16.208   6.090  1.00  0.00     0.153 C 
BRANCH  21  22
HETATM   22  C   UNL     1      42.974 -17.402   5.781  1.00  0.00     0.018 A 
HETATM   23  C   UNL     1      43.643 -18.169   6.729  1.00  0.00     0.018 A 
HETATM   24  C   UNL     1      43.761 -18.015   8.203  1.00  0.00     0.069 C 
HETATM   25  N   UNL     1      44.249 -19.210   6.072  1.00  0.00    -0.358 N 
HETATM   26  H   UNL     1      44.805 -19.932   6.509  1.00  0.00     0.166 HD
HETATM   27  C   UNL     1      44.000 -19.146   4.723  1.00  0.00     0.043 A 
HETATM   28  C   UNL     1      43.201 -18.022   4.506  1.00  0.00     0.004 A 
HETATM   29  C   UNL     1      44.419 -19.995   3.690  1.00  0.00     0.030 A 
HETATM   30  C   UNL     1      42.806 -17.737   3.181  1.00  0.00     0.014 A 
HETATM   31  C   UNL     1      43.215 -18.574   2.135  1.00  0.00     0.001 A 
HETATM   32  C   UNL     1      44.011 -19.687   2.389  1.00  0.00     0.002 A 
ENDBRANCH  21  22
ENDBRANCH   1  20
TORSDOF 7
ENDMDL
MODEL 2
REMARK VINA RESULT:      -8.8      5.764     10.035
REMARK  7 active torsions:
REMARK  status: ('A' for Active; 'I' for Inactive)
REMARK    1  A    between atoms: C_7  and  C_8 
REMARK    2  A    between atoms: N_9  and  N_10 
REMARK       I    between atoms: N_10  and  C_11 
REMARK    3  A    between atoms: C_11  and  C_12 
REMARK    4  A    between atoms: C_12  and  N_13 
REMARK       I    between atoms: N_13  and  C_14 
REMARK    5  A    between atoms: C_14  and  C_15 
REMARK    6  A    between atoms: C_16  and  C_17 
REMARK    7  A    between atoms: C_18  and  O_19 
ROOT
HETATM    1  N   UNL     1      41.059 -13.882   1.757  1.00  0.00    -0.246 N 
HETATM    2  C   UNL     1      39.924 -14.424   2.342  1.00  0.00     0.255 C 
HETATM    3  O   UNL     1      38.815 -14.510   1.821  1.00  0.00    -0.270 OA
HETATM    4  H   UNL     1      41.913 -13.792   2.315  1.00  0.00     0.192 HD
ENDROOT
BRANCH   2   5
HETATM    5  C   UNL     1      40.188 -14.947   3.755  1.00  0.00     0.227 C 
BRANCH   5   6
HETATM    6  N   UNL     1      40.713 -16.303   3.743  1.00  0.00    -0.349 N 
HETATM    7  C   UNL     1      42.060 -16.546   3.725  1.00  0.00     0.241 C 
HETATM    8  O   UNL     1      42.900 -15.651   3.751  1.00  0.00    -0.269 OA
HETATM    9  H   UNL     1      40.056 -17.063   3.858  1.00  0.00     0.163 HD
BRANCH   7  10
HETATM   10  C   UNL     1      42.399 -17.985   3.749  1.00  0.00     0.075 C 
HETATM   11  C   UNL     1      43.573 -18.401   3.252  1.00  0.00     0.020 C 
BRANCH  11  12
HETATM   12  C   UNL     1      43.966 -19.814   3.312  1.00  0.00    -0.003 A 
HETATM   13  C   UNL     1      44.538 -20.389   4.463  1.00  0.00     0.078 A 
HETATM   14  C   UNL     1      44.898 -21.742   4.440  1.00  0.00     0.037 A 
HETATM   15  C   UNL     1      44.693 -22.512   3.292  1.00  0.00     0.003 A 
HETATM   16  C   UNL     1      44.127 -21.941   2.156  1.00  0.00     0.001 A 
HETATM   17  C   UNL     1      43.765 -20.596   2.165  1.00  0.00     0.014 A 
BRANCH  13  18
HETATM   18  O   UNL     1      44.707 -19.556   5.541  1.00  0.00    -0.355 OA
HETATM   19  C   UNL     1      43.864 -19.767   6.667  1.00  0.00     0.210 C 
ENDBRANCH  13  18
ENDBRANCH  11  12
ENDBRANCH   7  10
ENDBRANCH   5   6
ENDBRANCH   2   5
BRANCH   1  20
HETATM   20  N   UNL     1      41.000 -13.349   0.502  1.00  0.00    -0.184 NA
HETATM   21  C   UNL     1      41.721 -13.948  -0.389  1.00  0.00     0.153 C 
BRANCH  21  22
HETATM   22  C   UNL     1      41.737 -13.465  -1.758  1.00  0.00     0.018 A 
HETATM   23  C   UNL     1      41.360 -14.226  -2.859  1.00  0.00     0.018 A 
HETATM   24  C   UNL     1      40.872 -15.627  -2.958  1.00  0.00     0.069 C 
HETATM   25  N   UNL     1      41.503 -13.443  -3.978  1.00  0.00    -0.358 N 
HETATM   26  H   UNL     1      41.300 -13.733  -4.924  1.00  0.00     0.166 HD
HETATM   27  C   UNL     1      41.964 -12.193  -3.641  1.00  0.00     0.043 A 
HETATM   28  C   UNL     1      42.122 -12.174  -2.255  1.00  0.00     0.004 A 
HETATM   29  C   UNL     1      42.249 -11.091  -4.457  1.00  0.00     0.030 A 
HETATM   30  C   UNL     1      42.592 -10.983  -1.659  1.00  0.00     0.014 A 
HETATM   31  C   UNL     1      42.882  -9.871  -2.459  1.00  0.00     0.001 A 
HETATM   32  C   UNL     1      42.712  -9.927  -3.838  1.00  0.00     0.002 A 
ENDBRANCH  21  22
ENDBRANCH   1  20
TORSDOF 7
ENDMDL
MODEL 3
REMARK VINA RESULT:      -8.7      1.208      1.969
REMARK  7 active torsions:
REMARK  status: ('A' for Active; 'I' for Inactive)
REMARK    1  A    between atoms: C_7  and  C_8 
REMARK    2  A    between atoms: N_9  and  N_10 
REMARK       I    between atoms: N_10  and  C_11 
REMARK    3  A    between atoms: C_11  and  C_12 
REMARK    4  A    between atoms: C_12  and  N_13 
REMARK       I    between atoms: N_13  and  C_14 
REMARK    5  A    between atoms: C_14  and  C_15 
REMARK    6  A    between atoms: C_16  and  C_17 
REMARK    7  A    between atoms: C_18  and  O_19 
ROOT
HETATM    1  N   UNL     1      40.355 -15.085   6.394  1.00  0.00    -0.246 N 
HETATM    2  C   UNL     1      39.887 -14.193   5.440  1.00  0.00     0.255 C 
HETATM    3  O   UNL     1      39.918 -14.357   4.223  1.00  0.00    -0.270 OA
HETATM    4  H   UNL     1      40.348 -14.809   7.380  1.00  0.00     0.192 HD
ENDROOT
BRANCH   2   5
HETATM    5  C   UNL     1      39.284 -12.934   6.063  1.00  0.00     0.227 C 
BRANCH   5   6
HETATM    6  N   UNL     1      40.159 -12.353   7.069  1.00  0.00    -0.349 N 
HETATM    7  C   UNL     1      39.918 -11.112   7.595  1.00  0.00     0.241 C 
HETATM    8  O   UNL     1      38.945 -10.433   7.281  1.00  0.00    -0.269 OA
HETATM    9  H   UNL     1      40.891 -12.938   7.450  1.00  0.00     0.163 HD
BRANCH   7  10
HETATM   10  C   UNL     1      40.898 -10.709   8.627  1.00  0.00     0.075 C 
HETATM   11  C   UNL     1      40.599 -10.865   9.925  1.00  0.00     0.020 C 
BRANCH  11  12
HETATM   12  C   UNL     1      41.569 -10.530  10.973  1.00  0.00    -0.003 A 
HETATM   13  C   UNL     1      41.176 -10.107  12.258  1.00  0.00     0.078 A 
HETATM   14  C   UNL     1      42.161  -9.793  13.202  1.00  0.00     0.037 A 
HETATM   15  C   UNL     1      43.516  -9.898  12.876  1.00  0.00     0.003 A 
HETATM   16  C   UNL     1      43.902 -10.316  11.606  1.00  0.00     0.001 A 
HETATM   17  C   UNL     1      42.932 -10.631  10.657  1.00  0.00     0.014 A 
BRANCH  13  18
HETATM   18  O   UNL     1      39.825 -10.029  12.487  1.00  0.00    -0.355 OA
HETATM   19  C   UNL     1      39.274  -8.736  12.708  1.00  0.00     0.210 C 
ENDBRANCH  13  18
ENDBRANCH  11  12
ENDBRANCH   7  10
ENDBRANCH   5   6
ENDBRANCH   2   5
BRANCH   1  20
HETATM   20  N   UNL     1      40.943 -16.256   6.013  1.00  0.00    -0.184 NA
HETATM   21  C   UNL     1      42.236 -16.268   6.059  1.00  0.00     0.153 C 
BRANCH  21  22
HETATM   22  C   UNL     1      42.967 -17.461   5.672  1.00  0.00     0.018 A 
HETATM   23  C   UNL     1      43.687 -18.257   6.556  1.00  0.00     0.018 A 
HETATM   24  C   UNL     1      43.902 -18.140   8.023  1.00  0.00     0.069 C 
HETATM   25  N   UNL     1      44.239 -19.287   5.837  1.00  0.00    -0.358 N 
HETATM   26  H   UNL     1      44.814 -20.024   6.220  1.00  0.00     0.166 HD
HETATM   27  C   UNL     1      43.904 -19.187   4.508  1.00  0.00     0.043 A 
HETATM   28  C   UNL     1      43.106 -18.051   4.371  1.00  0.00     0.004 A 
HETATM   29  C   UNL     1      44.248 -20.014   3.431  1.00  0.00     0.030 A 
HETATM   30  C   UNL     1      42.629 -17.730   3.081  1.00  0.00     0.014 A 
HETATM   31  C   UNL     1      42.962 -18.544   1.991  1.00  0.00     0.001 A 
HETATM   32  C   UNL     1      43.761 -19.670   2.167  1.00  0.00     0.002 A 
ENDBRANCH  21  22
ENDBRANCH   1  20
TORSDOF 7
ENDMDL
MODEL 4
REMARK VINA RESULT:      -8.5      2.171      3.376
REMARK  7 active torsions:
REMARK  status: ('A' for Active; 'I' for Inactive)
REMARK    1  A    between atoms: C_7  and  C_8 
REMARK    2  A    between atoms: N_9  and  N_10 
REMARK       I    between atoms: N_10  and  C_11 
REMARK    3  A    between atoms: C_11  and  C_12 
REMARK    4  A    between atoms: C_12  and  N_13 
REMARK       I    between atoms: N_13  and  C_14 
REMARK    5  A    between atoms: C_14  and  C_15 
REMARK    6  A    between atoms: C_16  and  C_17 
REMARK    7  A    between atoms: C_18  and  O_19 
ROOT
HETATM    1  N   UNL     1      41.476 -14.081   4.461  1.00  0.00    -0.246 N 
HETATM    2  C   UNL     1      42.187 -13.239   5.304  1.00  0.00     0.255 C 
HETATM    3  O   UNL     1      43.398 -13.280   5.509  1.00  0.00    -0.270 OA
HETATM    4  H   UNL     1      40.455 -14.005   4.427  1.00  0.00     0.192 HD
ENDROOT
BRANCH   2   5
HETATM    5  C   UNL     1      41.296 -12.195   5.976  1.00  0.00     0.227 C 
BRANCH   5   6
HETATM    6  N   UNL     1      41.726 -11.908   7.336  1.00  0.00    -0.349 N 
HETATM    7  C   UNL     1      42.048 -10.637   7.729  1.00  0.00     0.241 C 
HETATM    8  O   UNL     1      41.966  -9.666   6.982  1.00  0.00    -0.269 OA
HETATM    9  H   UNL     1      41.675 -12.657   8.014  1.00  0.00     0.163 HD
BRANCH   7  10
HETATM   10  C   UNL     1      42.429 -10.540   9.155  1.00  0.00     0.075 C 
HETATM   11  C   UNL     1      41.556 -10.045  10.045  1.00  0.00     0.020 C 
BRANCH  11  12
HETATM   12  C   UNL     1      41.879  -9.988  11.475  1.00  0.00    -0.003 A 
HETATM   13  C   UNL     1      40.907 -10.177  12.476  1.00  0.00     0.078 A 
HETATM   14  C   UNL     1      41.290 -10.096  13.820  1.00  0.00     0.037 A 
HETATM   15  C   UNL     1      42.618  -9.833  14.166  1.00  0.00     0.003 A 
HETATM   16  C   UNL     1      43.577  -9.646  13.174  1.00  0.00     0.001 A 
HETATM   17  C   UNL     1      43.209  -9.724  11.833  1.00  0.00     0.014 A 
BRANCH  13  18
HETATM   18  O   UNL     1      39.628 -10.426  12.044  1.00  0.00    -0.355 OA
HETATM   19  C   UNL     1      38.657  -9.409  12.258  1.00  0.00     0.210 C 
ENDBRANCH  13  18
ENDBRANCH  11  12
ENDBRANCH   7  10
ENDBRANCH   5   6
ENDBRANCH   2   5
BRANCH   1  20
HETATM   20  N   UNL     1      42.113 -15.086   3.793  1.00  0.00    -0.184 NA
HETATM   21  C   UNL     1      41.667 -16.277   4.028  1.00  0.00     0.153 C 
BRANCH  21  22
HETATM   22  C   UNL     1      42.272 -17.423   3.374  1.00  0.00     0.018 A 
HETATM   23  C   UNL     1      41.997 -17.813   2.068  1.00  0.00     0.018 A 
HETATM   24  C   UNL     1      41.091 -17.228   1.044  1.00  0.00     0.069 C 
HETATM   25  N   UNL     1      42.750 -18.928   1.797  1.00  0.00    -0.358 N 
HETATM   26  H   UNL     1      42.756 -19.429   0.920  1.00  0.00     0.166 HD
HETATM   27  C   UNL     1      43.506 -19.282   2.888  1.00  0.00     0.043 A 
HETATM   28  C   UNL     1      43.230 -18.357   3.896  1.00  0.00     0.004 A 
HETATM   29  C   UNL     1      44.406 -20.343   3.051  1.00  0.00     0.030 A 
HETATM   30  C   UNL     1      43.893 -18.510   5.133  1.00  0.00     0.014 A 
HETATM   31  C   UNL     1      44.796 -19.564   5.315  1.00  0.00     0.001 A 
HETATM   32  C   UNL     1      45.047 -20.467   4.286  1.00  0.00     0.002 A 
ENDBRANCH  21  22
ENDBRANCH   1  20
TORSDOF 7
ENDMDL
MODEL 5
REMARK VINA RESULT:      -8.4      2.432      9.546
REMARK  7 active torsions:
REMARK  status: ('A' for Active; 'I' for Inactive)
REMARK    1  A    between atoms: C_7  and  C_8 
REMARK    2  A    between atoms: N_9  and  N_10 
REMARK       I    between atoms: N_10  and  C_11 
REMARK    3  A    between atoms: C_11  and  C_12 
REMARK    4  A    between atoms: C_12  and  N_13 
REMARK       I    between atoms: N_13  and  C_14 
REMARK    5  A    between atoms: C_14  and  C_15 
REMARK    6  A    between atoms: C_16  and  C_17 
REMARK    7  A    between atoms: C_18  and  O_19 
ROOT
HETATM    1  N   UNL     1      41.866 -12.431   5.270  1.00  0.00    -0.246 N 
HETATM    2  C   UNL     1      40.880 -13.167   4.629  1.00  0.00     0.255 C 
HETATM    3  O   UNL     1      39.859 -13.612   5.149  1.00  0.00    -0.270 OA
HETATM    4  H   UNL     1      42.712 -12.177   4.753  1.00  0.00     0.192 HD
ENDROOT
BRANCH   2   5
HETATM    5  C   UNL     1      41.177 -13.374   3.143  1.00  0.00     0.227 C 
BRANCH   5   6
HETATM    6  N   UNL     1      41.791 -14.667   2.887  1.00  0.00    -0.349 N 
HETATM    7  C   UNL     1      43.149 -14.832   2.928  1.00  0.00     0.241 C 
HETATM    8  O   UNL     1      43.924 -13.923   3.211  1.00  0.00    -0.269 OA
HETATM    9  H   UNL     1      41.180 -15.466   2.784  1.00  0.00     0.163 HD
BRANCH   7  10
HETATM   10  C   UNL     1      43.581 -16.224   2.675  1.00  0.00     0.075 C 
HETATM   11  C   UNL     1      43.389 -17.162   3.613  1.00  0.00     0.020 C 
BRANCH  11  12
HETATM   12  C   UNL     1      43.753 -18.563   3.373  1.00  0.00    -0.003 A 
HETATM   13  C   UNL     1      44.509 -19.314   4.294  1.00  0.00     0.078 A 
HETATM   14  C   UNL     1      44.826 -20.643   3.988  1.00  0.00     0.037 A 
HETATM   15  C   UNL     1      44.400 -21.218   2.788  1.00  0.00     0.003 A 
HETATM   16  C   UNL     1      43.654 -20.473   1.880  1.00  0.00     0.001 A 
HETATM   17  C   UNL     1      43.331 -19.149   2.171  1.00  0.00     0.014 A 
BRANCH  13  18
HETATM   18  O   UNL     1      44.888 -18.667   5.443  1.00  0.00    -0.355 OA
HETATM   19  C   UNL     1      44.235 -19.044   6.650  1.00  0.00     0.210 C 
ENDBRANCH  13  18
ENDBRANCH  11  12
ENDBRANCH   7  10
ENDBRANCH   5   6
ENDBRANCH   2   5
BRANCH   1  20
HETATM   20  N   UNL     1      41.771 -12.168   6.606  1.00  0.00    -0.184 NA
HETATM   21  C   UNL     1      41.768 -10.916   6.926  1.00  0.00     0.153 C 
BRANCH  21  22
HETATM   22  C   UNL     1      41.673 -10.520   8.320  1.00  0.00     0.018 A 
HETATM   23  C   UNL     1      40.535  -9.975   8.902  1.00  0.00     0.018 A 
HETATM   24  C   UNL     1      39.198  -9.664   8.330  1.00  0.00     0.069 C 
HETATM   25  N   UNL     1      40.817  -9.730  10.223  1.00  0.00    -0.358 N 
HETATM   26  H   UNL     1      40.173  -9.335  10.894  1.00  0.00     0.166 HD
HETATM   27  C   UNL     1      42.106 -10.097  10.521  1.00  0.00     0.043 A 
HETATM   28  C   UNL     1      42.673 -10.598   9.348  1.00  0.00     0.004 A 
HETATM   29  C   UNL     1      42.803 -10.023  11.735  1.00  0.00     0.030 A 
HETATM   30  C   UNL     1      44.011 -11.045   9.398  1.00  0.00     0.014 A 
HETATM   31  C   UNL     1      44.724 -10.979  10.602  1.00  0.00     0.001 A 
HETATM   32  C   UNL     1      44.126 -10.474  11.752  1.00  0.00     0.002 A 
ENDBRANCH  21  22
ENDBRANCH   1  20
TORSDOF 7
ENDMDL
MODEL 6
REMARK VINA RESULT:      -8.3      5.972      8.680
REMARK  7 active torsions:
REMARK  status: ('A' for Active; 'I' for Inactive)
REMARK    1  A    between atoms: C_7  and  C_8 
REMARK    2  A    between atoms: N_9  and  N_10 
REMARK       I    between atoms: N_10  and  C_11 
REMARK    3  A    between atoms: C_11  and  C_12 
REMARK    4  A    between atoms: C_12  and  N_13 
REMARK       I    between atoms: N_13  and  C_14 
REMARK    5  A    between atoms: C_14  and  C_15 
REMARK    6  A    between atoms: C_16  and  C_17 
REMARK    7  A    between atoms: C_18  and  O_19 
ROOT
HETATM    1  N   UNL     1      42.699 -15.114   2.795  1.00  0.00    -0.246 N 
HETATM    2  C   UNL     1      43.183 -13.861   3.142  1.00  0.00     0.255 C 
HETATM    3  O   UNL     1      44.289 -13.623   3.622  1.00  0.00    -0.270 OA
HETATM    4  H   UNL     1      41.731 -15.203   2.475  1.00  0.00     0.192 HD
ENDROOT
BRANCH   2   5
HETATM    5  C   UNL     1      42.181 -12.745   2.848  1.00  0.00     0.227 C 
BRANCH   5   6
HETATM    6  N   UNL     1      42.183 -12.370   1.443  1.00  0.00    -0.349 N 
HETATM    7  C   UNL     1      41.413 -13.034   0.526  1.00  0.00     0.241 C 
HETATM    8  O   UNL     1      40.658 -13.953   0.830  1.00  0.00    -0.269 OA
HETATM    9  H   UNL     1      42.687 -11.534   1.179  1.00  0.00     0.163 HD
BRANCH   7  10
HETATM   10  C   UNL     1      41.523 -12.487  -0.843  1.00  0.00     0.075 C 
HETATM   11  C   UNL     1      42.082 -11.283  -1.036  1.00  0.00     0.020 C 
BRANCH  11  12
HETATM   12  C   UNL     1      42.260 -10.735  -2.385  1.00  0.00    -0.003 A 
HETATM   13  C   UNL     1      42.434  -9.358  -2.624  1.00  0.00     0.078 A 
HETATM   14  C   UNL     1      42.585  -8.910  -3.941  1.00  0.00     0.037 A 
HETATM   15  C   UNL     1      42.565  -9.814  -5.006  1.00  0.00     0.003 A 
HETATM   16  C   UNL     1      42.393 -11.174  -4.768  1.00  0.00     0.001 A 
HETATM   17  C   UNL     1      42.241 -11.634  -3.462  1.00  0.00     0.014 A 
BRANCH  13  18
HETATM   18  O   UNL     1      42.435  -8.544  -1.519  1.00  0.00    -0.355 OA
HETATM   19  C   UNL     1      43.670  -7.936  -1.158  1.00  0.00     0.210 C 
ENDBRANCH  13  18
ENDBRANCH  11  12
ENDBRANCH   7  10
ENDBRANCH   5   6
ENDBRANCH   2   5
BRANCH   1  20
HETATM   20  N   UNL     1      43.457 -16.229   3.008  1.00  0.00    -0.184 NA
HETATM   21  C   UNL     1      42.970 -17.077   3.855  1.00  0.00     0.153 C 
BRANCH  21  22
HETATM   22  C   UNL     1      43.694 -18.297   4.161  1.00  0.00     0.018 A 
HETATM   23  C   UNL     1      44.448 -18.491   5.313  1.00  0.00     0.018 A 
HETATM   24  C   UNL     1      44.714 -17.594   6.468  1.00  0.00     0.069 C 
HETATM   25  N   UNL     1      44.980 -19.755   5.257  1.00  0.00    -0.358 N 
HETATM   26  H   UNL     1      45.572 -20.171   5.962  1.00  0.00     0.166 HD
HETATM   27  C   UNL     1      44.598 -20.393   4.102  1.00  0.00     0.043 A 
HETATM   28  C   UNL     1      43.789 -19.506   3.391  1.00  0.00     0.004 A 
HETATM   29  C   UNL     1      44.907 -21.681   3.643  1.00  0.00     0.030 A 
HETATM   30  C   UNL     1      43.266 -19.935   2.152  1.00  0.00     0.014 A 
HETATM   31  C   UNL     1      43.564 -21.218   1.676  1.00  0.00     0.001 A 
HETATM   32  C   UNL     1      44.373 -22.077   2.413  1.00  0.00     0.002 A 
ENDBRANCH  21  22
ENDBRANCH   1  20
TORSDOF 7
ENDMDL
MODEL 7
REMARK VINA RESULT:      -8.1      5.049      7.872
REMARK  7 active torsions:
REMARK  status: ('A' for Active; 'I' for Inactive)
REMARK    1  A    between atoms: C_7  and  C_8 
REMARK    2  A    between atoms: N_9  and  N_10 
REMARK       I    between atoms: N_10  and  C_11 
REMARK    3  A    between atoms: C_11  and  C_12 
REMARK    4  A    between atoms: C_12  and  N_13 
REMARK       I    between atoms: N_13  and  C_14 
REMARK    5  A    between atoms: C_14  and  C_15 
REMARK    6  A    between atoms: C_16  and  C_17 
REMARK    7  A    between atoms: C_18  and  O_19 
ROOT
HETATM    1  N   UNL     1      41.477 -15.672   3.685  1.00  0.00    -0.246 N 
HETATM    2  C   UNL     1      40.657 -15.067   4.627  1.00  0.00     0.255 C 
HETATM    3  O   UNL     1      40.327 -15.546   5.709  1.00  0.00    -0.270 OA
HETATM    4  H   UNL     1      41.622 -15.212   2.782  1.00  0.00     0.192 HD
ENDROOT
BRANCH   2   5
HETATM    5  C   UNL     1      40.188 -13.679   4.188  1.00  0.00     0.227 C 
BRANCH   5   6
HETATM    6  N   UNL     1      40.410 -13.454   2.769  1.00  0.00    -0.349 N 
HETATM    7  C   UNL     1      39.646 -14.078   1.819  1.00  0.00     0.241 C 
HETATM    8  O   UNL     1      38.718 -14.831   2.099  1.00  0.00    -0.269 OA
HETATM    9  H   UNL     1      41.075 -12.739   2.504  1.00  0.00     0.163 HD
BRANCH   7  10
HETATM   10  C   UNL     1      40.000 -13.697   0.435  1.00  0.00     0.075 C 
HETATM   11  C   UNL     1      41.110 -12.981   0.204  1.00  0.00     0.020 C 
BRANCH  11  12
HETATM   12  C   UNL     1      41.521 -12.635  -1.161  1.00  0.00    -0.003 A 
HETATM   13  C   UNL     1      42.496 -11.654  -1.429  1.00  0.00     0.078 A 
HETATM   14  C   UNL     1      42.827 -11.371  -2.760  1.00  0.00     0.037 A 
HETATM   15  C   UNL     1      42.201 -12.051  -3.808  1.00  0.00     0.003 A 
HETATM   16  C   UNL     1      41.238 -13.020  -3.540  1.00  0.00     0.001 A 
HETATM   17  C   UNL     1      40.899 -13.311  -2.221  1.00  0.00     0.014 A 
BRANCH  13  18
HETATM   18  O   UNL     1      43.054 -11.034  -0.339  1.00  0.00    -0.355 OA
HETATM   19  C   UNL     1      43.135  -9.614  -0.366  1.00  0.00     0.210 C 
ENDBRANCH  13  18
ENDBRANCH  11  12
ENDBRANCH   7  10
ENDBRANCH   5   6
ENDBRANCH   2   5
BRANCH   1  20
HETATM   20  N   UNL     1      41.971 -16.925   3.905  1.00  0.00    -0.184 NA
HETATM   21  C   UNL     1      43.256 -17.000   4.034  1.00  0.00     0.153 C 
BRANCH  21  22
HETATM   22  C   UNL     1      43.890 -18.284   4.269  1.00  0.00     0.018 A 
HETATM   23  C   UNL     1      44.645 -18.589   5.396  1.00  0.00     0.018 A 
HETATM   24  C   UNL     1      44.994 -17.771   6.588  1.00  0.00     0.069 C 
HETATM   25  N   UNL     1      45.080 -19.885   5.271  1.00  0.00    -0.358 N 
HETATM   26  H   UNL     1      45.649 -20.377   5.945  1.00  0.00     0.166 HD
HETATM   27  C   UNL     1      44.634 -20.436   4.094  1.00  0.00     0.043 A 
HETATM   28  C   UNL     1      43.884 -19.458   3.441  1.00  0.00     0.004 A 
HETATM   29  C   UNL     1      44.840 -21.718   3.569  1.00  0.00     0.030 A 
HETATM   30  C   UNL     1      43.312 -19.787   2.193  1.00  0.00     0.014 A 
HETATM   31  C   UNL     1      43.506 -21.063   1.651  1.00  0.00     0.001 A 
HETATM   32  C   UNL     1      44.260 -22.014   2.332  1.00  0.00     0.002 A 
ENDBRANCH  21  22
ENDBRANCH   1  20
TORSDOF 7
ENDMDL
MODEL 8
REMARK VINA RESULT:      -8.1      4.853      7.954
REMARK  7 active torsions:
REMARK  status: ('A' for Active; 'I' for Inactive)
REMARK    1  A    between atoms: C_7  and  C_8 
REMARK    2  A    between atoms: N_9  and  N_10 
REMARK       I    between atoms: N_10  and  C_11 
REMARK    3  A    between atoms: C_11  and  C_12 
REMARK    4  A    between atoms: C_12  and  N_13 
REMARK       I    between atoms: N_13  and  C_14 
REMARK    5  A    between atoms: C_14  and  C_15 
REMARK    6  A    between atoms: C_16  and  C_17 
REMARK    7  A    between atoms: C_18  and  O_19 
ROOT
HETATM    1  N   UNL     1      42.836 -14.753   3.966  1.00  0.00    -0.246 N 
HETATM    2  C   UNL     1      42.966 -13.776   4.944  1.00  0.00     0.255 C 
HETATM    3  O   UNL     1      43.751 -13.801   5.888  1.00  0.00    -0.270 OA
HETATM    4  H   UNL     1      42.092 -14.663   3.268  1.00  0.00     0.192 HD
ENDROOT
BRANCH   2   5
HETATM    5  C   UNL     1      42.014 -12.600   4.725  1.00  0.00     0.227 C 
BRANCH   5   6
HETATM    6  N   UNL     1      42.052 -12.118   3.353  1.00  0.00    -0.349 N 
HETATM    7  C   UNL     1      40.949 -12.175   2.545  1.00  0.00     0.241 C 
HETATM    8  O   UNL     1      39.863 -12.600   2.929  1.00  0.00    -0.269 OA
HETATM    9  H   UNL     1      42.888 -11.638   3.046  1.00  0.00     0.163 HD
BRANCH   7  10
HETATM   10  C   UNL     1      41.174 -11.607   1.199  1.00  0.00     0.075 C 
HETATM   11  C   UNL     1      42.063 -12.180   0.374  1.00  0.00     0.020 C 
BRANCH  11  12
HETATM   12  C   UNL     1      42.270 -11.677  -0.988  1.00  0.00    -0.003 A 
HETATM   13  C   UNL     1      42.142 -12.501  -2.124  1.00  0.00     0.078 A 
HETATM   14  C   UNL     1      42.367 -11.951  -3.392  1.00  0.00     0.037 A 
HETATM   15  C   UNL     1      42.712 -10.604  -3.531  1.00  0.00     0.003 A 
HETATM   16  C   UNL     1      42.838  -9.793  -2.407  1.00  0.00     0.001 A 
HETATM   17  C   UNL     1      42.618 -10.327  -1.140  1.00  0.00     0.014 A 
BRANCH  13  18
HETATM   18  O   UNL     1      41.804 -13.811  -1.892  1.00  0.00    -0.355 OA
HETATM   19  C   UNL     1      41.301 -14.560  -2.992  1.00  0.00     0.210 C 
ENDBRANCH  13  18
ENDBRANCH  11  12
ENDBRANCH   7  10
ENDBRANCH   5   6
ENDBRANCH   2   5
BRANCH   1  20
HETATM   20  N   UNL     1      43.597 -15.884   4.018  1.00  0.00    -0.184 NA
HETATM   21  C   UNL     1      42.976 -16.953   4.397  1.00  0.00     0.153 C 
BRANCH  21  22
HETATM   22  C   UNL     1      43.689 -18.215   4.491  1.00  0.00     0.018 A 
HETATM   23  C   UNL     1      44.503 -18.574   5.559  1.00  0.00     0.018 A 
HETATM   24  C   UNL     1      44.854 -17.848   6.808  1.00  0.00     0.069 C 
HETATM   25  N   UNL     1      45.003 -19.827   5.301  1.00  0.00    -0.358 N 
HETATM   26  H   UNL     1      45.624 -20.343   5.907  1.00  0.00     0.166 HD
HETATM   27  C   UNL     1      44.541 -20.295   4.095  1.00  0.00     0.043 A 
HETATM   28  C   UNL     1      43.714 -19.308   3.560  1.00  0.00     0.004 A 
HETATM   29  C   UNL     1      44.795 -21.512   3.448  1.00  0.00     0.030 A 
HETATM   30  C   UNL     1      43.111 -19.556   2.308  1.00  0.00     0.014 A 
HETATM   31  C   UNL     1      43.353 -20.766   1.645  1.00  0.00     0.001 A 
HETATM   32  C   UNL     1      44.184 -21.729   2.210  1.00  0.00     0.002 A 
ENDBRANCH  21  22
ENDBRANCH   1  20
TORSDOF 7
ENDMDL
MODEL 9
REMARK VINA RESULT:      -8.0      2.266      9.905
REMARK  7 active torsions:
REMARK  status: ('A' for Active; 'I' for Inactive)
REMARK    1  A    between atoms: C_7  and  C_8 
REMARK    2  A    between atoms: N_9  and  N_10 
REMARK       I    between atoms: N_10  and  C_11 
REMARK    3  A    between atoms: C_11  and  C_12 
REMARK    4  A    between atoms: C_12  and  N_13 
REMARK       I    between atoms: N_13  and  C_14 
REMARK    5  A    between atoms: C_14  and  C_15 
REMARK    6  A    between atoms: C_16  and  C_17 
REMARK    7  A    between atoms: C_18  and  O_19 
ROOT
HETATM    1  N   UNL     1      39.648 -11.663   7.331  1.00  0.00    -0.246 N 
HETATM    2  C   UNL     1      40.521 -12.141   6.363  1.00  0.00     0.255 C 
HETATM    3  O   UNL     1      41.733 -11.940   6.323  1.00  0.00    -0.270 OA
HETATM    4  H   UNL     1      38.644 -11.829   7.221  1.00  0.00     0.192 HD
ENDROOT
BRANCH   2   5
HETATM    5  C   UNL     1      39.815 -12.996   5.310  1.00  0.00     0.227 C 
BRANCH   5   6
HETATM    6  N   UNL     1      40.710 -13.978   4.720  1.00  0.00    -0.349 N 
HETATM    7  C   UNL     1      40.856 -15.227   5.262  1.00  0.00     0.241 C 
HETATM    8  O   UNL     1      40.227 -15.604   6.246  1.00  0.00    -0.269 OA
HETATM    9  H   UNL     1      41.140 -13.751   3.833  1.00  0.00     0.163 HD
BRANCH   7  10
HETATM   10  C   UNL     1      41.782 -16.095   4.503  1.00  0.00     0.075 C 
HETATM   11  C   UNL     1      41.891 -17.393   4.821  1.00  0.00     0.020 C 
BRANCH  11  12
HETATM   12  C   UNL     1      42.756 -18.294   4.053  1.00  0.00    -0.003 A 
HETATM   13  C   UNL     1      43.628 -19.211   4.670  1.00  0.00     0.078 A 
HETATM   14  C   UNL     1      44.433 -20.030   3.869  1.00  0.00     0.037 A 
HETATM   15  C   UNL     1      44.372 -19.941   2.475  1.00  0.00     0.003 A 
HETATM   16  C   UNL     1      43.510 -19.034   1.868  1.00  0.00     0.001 A 
HETATM   17  C   UNL     1      42.704 -18.212   2.653  1.00  0.00     0.014 A 
BRANCH  13  18
HETATM   18  O   UNL     1      43.625 -19.226   6.043  1.00  0.00    -0.355 OA
HETATM   19  C   UNL     1      43.848 -20.477   6.682  1.00  0.00     0.210 C 
ENDBRANCH  13  18
ENDBRANCH  11  12
ENDBRANCH   7  10
ENDBRANCH   5   6
ENDBRANCH   2   5
BRANCH   1  20
HETATM   20  N   UNL     1      40.107 -10.865   8.338  1.00  0.00    -0.184 NA
HETATM   21  C   UNL     1      39.652 -11.143   9.516  1.00  0.00     0.153 C 
BRANCH  21  22
HETATM   22  C   UNL     1      40.070 -10.357  10.663  1.00  0.00     0.018 A 
HETATM   23  C   UNL     1      39.242  -9.478  11.351  1.00  0.00     0.018 A 
HETATM   24  C   UNL     1      37.816  -9.114  11.144  1.00  0.00     0.069 C 
HETATM   25  N   UNL     1      39.977  -8.920  12.368  1.00  0.00    -0.358 N 
HETATM   26  H   UNL     1      39.632  -8.244  13.035  1.00  0.00     0.166 HD
HETATM   27  C   UNL     1      41.262  -9.406  12.363  1.00  0.00     0.043 A 
HETATM   28  C   UNL     1      41.354 -10.311  11.305  1.00  0.00     0.004 A 
HETATM   29  C   UNL     1      42.337  -9.112  13.212  1.00  0.00     0.030 A 
HETATM   30  C   UNL     1      42.593 -10.953  11.089  1.00  0.00     0.014 A 
HETATM   31  C   UNL     1      43.679 -10.672  11.927  1.00  0.00     0.001 A 
HETATM   32  C   UNL     1      43.550  -9.764  12.974  1.00  0.00     0.002 A 
ENDBRANCH  21  22
ENDBRANCH   1  20
TORSDOF 7
ENDMDL
MODEL 10
REMARK VINA RESULT:      -8.0      4.951      8.156
REMARK  7 active torsions:
REMARK  status: ('A' for Active; 'I' for Inactive)
REMARK    1  A    between atoms: C_7  and  C_8 
REMARK    2  A    between atoms: N_9  and  N_10 
REMARK       I    between atoms: N_10  and  C_11 
REMARK    3  A    between atoms: C_11  and  C_12 
REMARK    4  A    between atoms: C_12  and  N_13 
REMARK       I    between atoms: N_13  and  C_14 
REMARK    5  A    between atoms: C_14  and  C_15 
REMARK    6  A    between atoms: C_16  and  C_17 
REMARK    7  A    between atoms: C_18  and  O_19 
ROOT
HETATM    1  N   UNL     1      41.458 -15.741   3.921  1.00  0.00    -0.246 N 
HETATM    2  C   UNL     1      40.632 -15.110   4.841  1.00  0.00     0.255 C 
HETATM    3  O   UNL     1      40.310 -15.550   5.942  1.00  0.00    -0.270 OA
HETATM    4  H   UNL     1      41.596 -15.314   3.001  1.00  0.00     0.192 HD
ENDROOT
BRANCH   2   5
HETATM    5  C   UNL     1      40.148 -13.744   4.352  1.00  0.00     0.227 C 
BRANCH   5   6
HETATM    6  N   UNL     1      40.543 -13.489   2.976  1.00  0.00    -0.349 N 
HETATM    7  C   UNL     1      41.782 -12.993   2.669  1.00  0.00     0.241 C 
HETATM    8  O   UNL     1      42.638 -12.765   3.518  1.00  0.00    -0.269 OA
HETATM    9  H   UNL     1      39.916 -13.792   2.242  1.00  0.00     0.163 HD
BRANCH   7  10
HETATM   10  C   UNL     1      42.009 -12.834   1.216  1.00  0.00     0.075 C 
HETATM   11  C   UNL     1      40.982 -12.963   0.363  1.00  0.00     0.020 C 
BRANCH  11  12
HETATM   12  C   UNL     1      41.161 -12.755  -1.078  1.00  0.00    -0.003 A 
HETATM   13  C   UNL     1      40.081 -12.770  -1.982  1.00  0.00     0.078 A 
HETATM   14  C   UNL     1      40.333 -12.575  -3.346  1.00  0.00     0.037 A 
HETATM   15  C   UNL     1      41.636 -12.368  -3.805  1.00  0.00     0.003 A 
HETATM   16  C   UNL     1      42.701 -12.353  -2.909  1.00  0.00     0.001 A 
HETATM   17  C   UNL     1      42.466 -12.546  -1.550  1.00  0.00     0.014 A 
BRANCH  13  18
HETATM   18  O   UNL     1      38.838 -12.986  -1.443  1.00  0.00    -0.355 OA
HETATM   19  C   UNL     1      38.058 -14.038  -1.999  1.00  0.00     0.210 C 
ENDBRANCH  13  18
ENDBRANCH  11  12
ENDBRANCH   7  10
ENDBRANCH   5   6
ENDBRANCH   2   5
BRANCH   1  20
HETATM   20  N   UNL     1      41.965 -16.979   4.187  1.00  0.00    -0.184 NA
HETATM   21  C   UNL     1      43.234 -17.115   3.979  1.00  0.00     0.153 C 
BRANCH  21  22
HETATM   22  C   UNL     1      43.881 -18.391   4.226  1.00  0.00     0.018 A 
HETATM   23  C   UNL     1      44.630 -18.681   5.361  1.00  0.00     0.018 A 
HETATM   24  C   UNL     1      44.961 -17.853   6.551  1.00  0.00     0.069 C 
HETATM   25  N   UNL     1      45.079 -19.973   5.247  1.00  0.00    -0.358 N 
HETATM   26  H   UNL     1      45.649 -20.455   5.928  1.00  0.00     0.166 HD
HETATM   27  C   UNL     1      44.648 -20.536   4.070  1.00  0.00     0.043 A 
HETATM   28  C   UNL     1      43.893 -19.569   3.405  1.00  0.00     0.004 A 
HETATM   29  C   UNL     1      44.871 -21.819   3.554  1.00  0.00     0.030 A 
HETATM   30  C   UNL     1      43.334 -19.911   2.155  1.00  0.00     0.014 A 
HETATM   31  C   UNL     1      43.546 -21.189   1.622  1.00  0.00     0.001 A 
HETATM   32  C   UNL     1      44.305 -22.128   2.314  1.00  0.00     0.002 A 
ENDBRANCH  21  22
ENDBRANCH   1  20
TORSDOF 7
ENDMDL
