MODEL 1
REMARK VINA RESULT:      -8.8      0.000      0.000
REMARK  9 active torsions:
REMARK  status: ('A' for Active; 'I' for Inactive)
REMARK    1  A    between atoms: C_3  and  C_4 
REMARK       I    between atoms: C_4  and  N_5 
REMARK    2  A    between atoms: N_5  and  C_6 
REMARK    3  A    between atoms: C_6  and  C_7 
REMARK    4  A    between atoms: C_14  and  N_15 
REMARK       I    between atoms: N_15  and  C_16 
REMARK    5  A    between atoms: C_16  and  C_17 
REMARK       I    between atoms: C_17  and  N_18 
REMARK    6  A    between atoms: N_18  and  C_19 
REMARK    7  A    between atoms: C_19  and  C_20 
REMARK    8  A    between atoms: C_20  and  C_21 
REMARK    9  A    between atoms: C_24  and  O_25 
ROOT
HETATM    1  N   UNL     1      43.768 -12.055   9.809  1.00  0.00    -0.318 N 
HETATM    2  C   UNL     1      44.885 -11.649   9.110  1.00  0.00     0.313 C 
HETATM    3  O   UNL     1      45.530 -10.616   9.239  1.00  0.00    -0.262 OA
HETATM    4  H   UNL     1      43.568 -13.050   9.741  1.00  0.00     0.169 HD
ENDROOT
BRANCH   1   5
HETATM    5  C   UNL     1      43.077 -11.289  10.768  1.00  0.00     0.051 A 
HETATM    6  C   UNL     1      42.137 -10.280  10.483  1.00  0.00     0.058 A 
HETATM    7  C   UNL     1      41.580  -9.530  11.536  1.00  0.00     0.019 A 
HETATM    8  C   UNL     1      41.939  -9.790  12.859  1.00  0.00     0.001 A 
HETATM    9  C   UNL     1      42.826 -10.823  13.145  1.00  0.00     0.002 A 
HETATM   10  C   UNL     1      43.379 -11.577  12.107  1.00  0.00     0.030 A 
BRANCH   6  11
HETATM   11  C   UNL     1      41.518 -10.128   9.137  1.00  0.00     0.254 C 
HETATM   12  N   UNL     1      40.548 -11.053   8.810  1.00  0.00    -0.353 N 
HETATM   13  H   UNL     1      40.146 -11.618   9.547  1.00  0.00     0.163 HD
HETATM   14  O   UNL     1      41.912  -9.253   8.371  1.00  0.00    -0.268 OA
BRANCH  12  15
HETATM   15  C   UNL     1      39.834 -10.977   7.555  1.00  0.00     0.162 C 
BRANCH  15  16
HETATM   16  C   UNL     1      40.305 -12.019   6.580  1.00  0.00    -0.023 A 
HETATM   17  C   UNL     1      41.631 -12.058   6.163  1.00  0.00     0.125 A 
HETATM   18  N   UNL     1      42.141 -12.995   5.328  1.00  0.00    -0.273 NA
HETATM   19  C   UNL     1      41.291 -13.951   4.899  1.00  0.00     0.116 A 
HETATM   20  C   UNL     1      39.958 -14.015   5.262  1.00  0.00     0.020 A 
HETATM   21  C   UNL     1      39.462 -13.036   6.120  1.00  0.00     0.012 A 
ENDBRANCH  15  16
ENDBRANCH  12  15
ENDBRANCH   6  11
ENDBRANCH   1   5
BRANCH   2  22
HETATM   22  C   UNL     1      45.402 -12.748   8.152  1.00  0.00     0.309 C 
HETATM   23  N   UNL     1      44.437 -13.654   7.777  1.00  0.00    -0.353 N 
HETATM   24  H   UNL     1      43.526 -13.548   8.214  1.00  0.00     0.162 HD
HETATM   25  O   UNL     1      46.564 -12.731   7.774  1.00  0.00    -0.262 OA
BRANCH  23  26
HETATM   26  C   UNL     1      44.729 -14.819   6.967  1.00  0.00     0.128 C 
BRANCH  26  27
HETATM   27  C   UNL     1      43.647 -15.888   7.124  1.00  0.00     0.058 C 
BRANCH  27  28
HETATM   28  C   UNL     1      43.842 -17.045   6.176  1.00  0.00    -0.057 A 
HETATM   29  C   UNL     1      42.973 -17.223   5.089  1.00  0.00     0.010 A 
HETATM   30  C   UNL     1      43.152 -18.289   4.205  1.00  0.00     0.037 A 
HETATM   31  C   UNL     1      44.197 -19.183   4.415  1.00  0.00     0.065 A 
HETATM   32  C   UNL     1      45.058 -19.031   5.493  1.00  0.00     0.037 A 
HETATM   33  C   UNL     1      44.882 -17.963   6.375  1.00  0.00     0.010 A 
BRANCH  31  34
HETATM   34  O   UNL     1      44.412 -20.234   3.573  1.00  0.00    -0.361 OA
HETATM   35  H   UNL     1      44.919 -20.911   4.051  1.00  0.00     0.217 HD
ENDBRANCH  31  34
ENDBRANCH  27  28
ENDBRANCH  26  27
ENDBRANCH  23  26
ENDBRANCH   2  22
TORSDOF 9
ENDMDL
MODEL 2
REMARK VINA RESULT:      -8.7      2.997      8.907
REMARK  9 active torsions:
REMARK  status: ('A' for Active; 'I' for Inactive)
REMARK    1  A    between atoms: C_3  and  C_4 
REMARK       I    between atoms: C_4  and  N_5 
REMARK    2  A    between atoms: N_5  and  C_6 
REMARK    3  A    between atoms: C_6  and  C_7 
REMARK    4  A    between atoms: C_14  and  N_15 
REMARK       I    between atoms: N_15  and  C_16 
REMARK    5  A    between atoms: C_16  and  C_17 
REMARK       I    between atoms: C_17  and  N_18 
REMARK    6  A    between atoms: N_18  and  C_19 
REMARK    7  A    between atoms: C_19  and  C_20 
REMARK    8  A    between atoms: C_20  and  C_21 
REMARK    9  A    between atoms: C_24  and  O_25 
ROOT
HETATM    1  N   UNL     1      42.398 -14.280   6.172  1.00  0.00    -0.318 N 
HETATM    2  C   UNL     1      43.677 -13.772   6.099  1.00  0.00     0.313 C 
HETATM    3  O   UNL     1      44.358 -13.564   5.102  1.00  0.00    -0.262 OA
HETATM    4  H   UNL     1      41.925 -14.103   7.055  1.00  0.00     0.169 HD
ENDROOT
BRANCH   1   5
HETATM    5  C   UNL     1      41.645 -14.765   5.085  1.00  0.00     0.051 A 
HETATM    6  C   UNL     1      41.813 -16.021   4.472  1.00  0.00     0.058 A 
HETATM    7  C   UNL     1      41.048 -16.349   3.336  1.00  0.00     0.019 A 
HETATM    8  C   UNL     1      40.115 -15.447   2.826  1.00  0.00     0.001 A 
HETATM    9  C   UNL     1      39.908 -14.229   3.464  1.00  0.00     0.002 A 
HETATM   10  C   UNL     1      40.658 -13.897   4.594  1.00  0.00     0.030 A 
BRANCH   6  11
HETATM   11  C   UNL     1      42.590 -17.120   5.111  1.00  0.00     0.254 C 
HETATM   12  N   UNL     1      43.599 -17.669   4.347  1.00  0.00    -0.353 N 
HETATM   13  H   UNL     1      43.913 -17.172   3.523  1.00  0.00     0.163 HD
HETATM   14  O   UNL     1      42.286 -17.522   6.229  1.00  0.00    -0.268 OA
BRANCH  12  15
HETATM   15  C   UNL     1      44.460 -18.704   4.876  1.00  0.00     0.162 C 
BRANCH  15  16
HETATM   16  C   UNL     1      44.441 -19.938   4.020  1.00  0.00    -0.023 A 
HETATM   17  C   UNL     1      44.798 -21.176   4.546  1.00  0.00     0.125 A 
HETATM   18  N   UNL     1      44.759 -22.339   3.854  1.00  0.00    -0.273 NA
HETATM   19  C   UNL     1      44.328 -22.270   2.576  1.00  0.00     0.116 A 
HETATM   20  C   UNL     1      43.937 -21.095   1.959  1.00  0.00     0.020 A 
HETATM   21  C   UNL     1      43.990 -19.915   2.697  1.00  0.00     0.012 A 
ENDBRANCH  15  16
ENDBRANCH  12  15
ENDBRANCH   6  11
ENDBRANCH   1   5
BRANCH   2  22
HETATM   22  C   UNL     1      44.197 -13.308   7.479  1.00  0.00     0.309 C 
HETATM   23  N   UNL     1      43.465 -12.282   8.031  1.00  0.00    -0.353 N 
HETATM   24  H   UNL     1      42.720 -11.900   7.455  1.00  0.00     0.162 HD
HETATM   25  O   UNL     1      45.154 -13.870   7.993  1.00  0.00    -0.262 OA
BRANCH  23  26
HETATM   26  C   UNL     1      43.838 -11.630   9.270  1.00  0.00     0.128 C 
BRANCH  26  27
HETATM   27  C   UNL     1      42.816 -10.565   9.666  1.00  0.00     0.058 C 
BRANCH  27  28
HETATM   28  C   UNL     1      42.627 -10.477  11.159  1.00  0.00    -0.057 A 
HETATM   29  C   UNL     1      43.552  -9.780  11.951  1.00  0.00     0.010 A 
HETATM   30  C   UNL     1      43.379  -9.692  13.334  1.00  0.00     0.037 A 
HETATM   31  C   UNL     1      42.283 -10.309  13.926  1.00  0.00     0.065 A 
HETATM   32  C   UNL     1      41.364 -11.015  13.161  1.00  0.00     0.037 A 
HETATM   33  C   UNL     1      41.534 -11.101  11.778  1.00  0.00     0.010 A 
BRANCH  31  34
HETATM   34  O   UNL     1      42.072 -10.243  15.272  1.00  0.00    -0.361 OA
HETATM   35  H   UNL     1      41.116 -10.305  15.436  1.00  0.00     0.217 HD
ENDBRANCH  31  34
ENDBRANCH  27  28
ENDBRANCH  26  27
ENDBRANCH  23  26
ENDBRANCH   2  22
TORSDOF 9
ENDMDL
MODEL 3
REMARK VINA RESULT:      -8.7      4.902      9.526
REMARK  9 active torsions:
REMARK  status: ('A' for Active; 'I' for Inactive)
REMARK    1  A    between atoms: C_3  and  C_4 
REMARK       I    between atoms: C_4  and  N_5 
REMARK    2  A    between atoms: N_5  and  C_6 
REMARK    3  A    between atoms: C_6  and  C_7 
REMARK    4  A    between atoms: C_14  and  N_15 
REMARK       I    between atoms: N_15  and  C_16 
REMARK    5  A    between atoms: C_16  and  C_17 
REMARK       I    between atoms: C_17  and  N_18 
REMARK    6  A    between atoms: N_18  and  C_19 
REMARK    7  A    between atoms: C_19  and  C_20 
REMARK    8  A    between atoms: C_20  and  C_21 
REMARK    9  A    between atoms: C_24  and  O_25 
ROOT
HETATM    1  N   UNL     1      43.755 -18.094   2.416  1.00  0.00    -0.318 N 
HETATM    2  C   UNL     1      42.578 -17.395   2.584  1.00  0.00     0.313 C 
HETATM    3  O   UNL     1      41.557 -17.751   3.159  1.00  0.00    -0.262 OA
HETATM    4  H   UNL     1      44.554 -17.516   2.166  1.00  0.00     0.169 HD
ENDROOT
BRANCH   1   5
HETATM    5  C   UNL     1      43.978 -19.430   2.802  1.00  0.00     0.051 A 
HETATM    6  C   UNL     1      44.432 -19.849   4.067  1.00  0.00     0.058 A 
HETATM    7  C   UNL     1      44.695 -21.213   4.294  1.00  0.00     0.019 A 
HETATM    8  C   UNL     1      44.494 -22.153   3.283  1.00  0.00     0.001 A 
HETATM    9  C   UNL     1      43.993 -21.746   2.050  1.00  0.00     0.002 A 
HETATM   10  C   UNL     1      43.723 -20.396   1.817  1.00  0.00     0.030 A 
BRANCH   6  11
HETATM   11  C   UNL     1      44.417 -18.951   5.255  1.00  0.00     0.254 C 
HETATM   12  N   UNL     1      43.170 -18.576   5.712  1.00  0.00    -0.353 N 
HETATM   13  H   UNL     1      42.359 -19.089   5.391  1.00  0.00     0.163 HD
HETATM   14  O   UNL     1      45.469 -18.546   5.737  1.00  0.00    -0.268 OA
BRANCH  12  15
HETATM   15  C   UNL     1      43.022 -17.752   6.891  1.00  0.00     0.162 C 
BRANCH  15  16
HETATM   16  C   UNL     1      43.083 -16.287   6.561  1.00  0.00    -0.023 A 
HETATM   17  C   UNL     1      42.014 -15.652   5.937  1.00  0.00     0.125 A 
HETATM   18  N   UNL     1      41.973 -14.329   5.653  1.00  0.00    -0.273 NA
HETATM   19  C   UNL     1      43.045 -13.596   6.022  1.00  0.00     0.116 A 
HETATM   20  C   UNL     1      44.155 -14.123   6.659  1.00  0.00     0.020 A 
HETATM   21  C   UNL     1      44.168 -15.488   6.935  1.00  0.00     0.012 A 
ENDBRANCH  15  16
ENDBRANCH  12  15
ENDBRANCH   6  11
ENDBRANCH   1   5
BRANCH   2  22
HETATM   22  C   UNL     1      42.686 -15.942   2.068  1.00  0.00     0.309 C 
HETATM   23  N   UNL     1      41.711 -15.603   1.157  1.00  0.00    -0.353 N 
HETATM   24  H   UNL     1      41.081 -16.349   0.875  1.00  0.00     0.162 HD
HETATM   25  O   UNL     1      43.560 -15.203   2.499  1.00  0.00    -0.262 OA
BRANCH  23  26
HETATM   26  C   UNL     1      41.687 -14.326   0.473  1.00  0.00     0.128 C 
BRANCH  26  27
HETATM   27  C   UNL     1      40.268 -13.959   0.038  1.00  0.00     0.058 C 
BRANCH  27  28
HETATM   28  C   UNL     1      39.922 -14.519  -1.319  1.00  0.00    -0.057 A 
HETATM   29  C   UNL     1      40.812 -15.379  -1.979  1.00  0.00     0.010 A 
HETATM   30  C   UNL     1      40.494 -15.904  -3.233  1.00  0.00     0.037 A 
HETATM   31  C   UNL     1      39.286 -15.561  -3.831  1.00  0.00     0.065 A 
HETATM   32  C   UNL     1      38.398 -14.700  -3.200  1.00  0.00     0.037 A 
HETATM   33  C   UNL     1      38.715 -14.177  -1.944  1.00  0.00     0.010 A 
BRANCH  31  34
HETATM   34  O   UNL     1      38.933 -16.055  -5.052  1.00  0.00    -0.361 OA
HETATM   35  H   UNL     1      39.353 -15.510  -5.737  1.00  0.00     0.217 HD
ENDBRANCH  31  34
ENDBRANCH  27  28
ENDBRANCH  26  27
ENDBRANCH  23  26
ENDBRANCH   2  22
TORSDOF 9
ENDMDL
MODEL 4
REMARK VINA RESULT:      -8.5      1.683      4.417
REMARK  9 active torsions:
REMARK  status: ('A' for Active; 'I' for Inactive)
REMARK    1  A    between atoms: C_3  and  C_4 
REMARK       I    between atoms: C_4  and  N_5 
REMARK    2  A    between atoms: N_5  and  C_6 
REMARK    3  A    between atoms: C_6  and  C_7 
REMARK    4  A    between atoms: C_14  and  N_15 
REMARK       I    between atoms: N_15  and  C_16 
REMARK    5  A    between atoms: C_16  and  C_17 
REMARK       I    between atoms: C_17  and  N_18 
REMARK    6  A    between atoms: N_18  and  C_19 
REMARK    7  A    between atoms: C_19  and  C_20 
REMARK    8  A    between atoms: C_20  and  C_21 
REMARK    9  A    between atoms: C_24  and  O_25 
ROOT
HETATM    1  N   UNL     1      42.247 -11.560   8.162  1.00  0.00    -0.318 N 
HETATM    2  C   UNL     1      41.750 -10.669   7.235  1.00  0.00     0.313 C 
HETATM    3  O   UNL     1      42.043  -9.490   7.079  1.00  0.00    -0.262 OA
HETATM    4  H   UNL     1      42.083 -12.538   7.935  1.00  0.00     0.169 HD
ENDROOT
BRANCH   1   5
HETATM    5  C   UNL     1      43.142 -11.246   9.203  1.00  0.00     0.051 A 
HETATM    6  C   UNL     1      44.390 -11.862   9.419  1.00  0.00     0.058 A 
HETATM    7  C   UNL     1      45.151 -11.511  10.551  1.00  0.00     0.019 A 
HETATM    8  C   UNL     1      44.687 -10.550  11.448  1.00  0.00     0.001 A 
HETATM    9  C   UNL     1      43.480  -9.902  11.205  1.00  0.00     0.002 A 
HETATM   10  C   UNL     1      42.721 -10.238  10.083  1.00  0.00     0.030 A 
BRANCH   6  11
HETATM   11  C   UNL     1      45.058 -12.691   8.378  1.00  0.00     0.254 C 
HETATM   12  N   UNL     1      44.305 -13.719   7.850  1.00  0.00    -0.353 N 
HETATM   13  H   UNL     1      43.306 -13.721   8.005  1.00  0.00     0.163 HD
HETATM   14  O   UNL     1      46.227 -12.476   8.074  1.00  0.00    -0.268 OA
BRANCH  12  15
HETATM   15  C   UNL     1      44.824 -14.559   6.793  1.00  0.00     0.162 C 
BRANCH  15  16
HETATM   16  C   UNL     1      44.426 -15.997   6.976  1.00  0.00    -0.023 A 
HETATM   17  C   UNL     1      43.310 -16.338   7.732  1.00  0.00     0.125 A 
HETATM   18  N   UNL     1      42.860 -17.603   7.902  1.00  0.00    -0.273 NA
HETATM   19  C   UNL     1      43.547 -18.580   7.273  1.00  0.00     0.116 A 
HETATM   20  C   UNL     1      44.662 -18.351   6.486  1.00  0.00     0.020 A 
HETATM   21  C   UNL     1      45.102 -17.039   6.333  1.00  0.00     0.012 A 
ENDBRANCH  15  16
ENDBRANCH  12  15
ENDBRANCH   6  11
ENDBRANCH   1   5
BRANCH   2  22
HETATM   22  C   UNL     1      40.808 -11.354   6.217  1.00  0.00     0.309 C 
HETATM   23  N   UNL     1      40.944 -12.723   6.171  1.00  0.00    -0.353 N 
HETATM   24  H   UNL     1      41.681 -13.121   6.747  1.00  0.00     0.162 HD
HETATM   25  O   UNL     1      40.013 -10.685   5.573  1.00  0.00    -0.262 OA
BRANCH  23  26
HETATM   26  C   UNL     1      40.232 -13.550   5.219  1.00  0.00     0.128 C 
BRANCH  26  27
HETATM   27  C   UNL     1      40.337 -15.031   5.584  1.00  0.00     0.058 C 
BRANCH  27  28
HETATM   28  C   UNL     1      41.342 -15.762   4.730  1.00  0.00    -0.057 A 
HETATM   29  C   UNL     1      42.333 -15.052   4.037  1.00  0.00     0.010 A 
HETATM   30  C   UNL     1      43.269 -15.724   3.249  1.00  0.00     0.037 A 
HETATM   31  C   UNL     1      43.207 -17.110   3.148  1.00  0.00     0.065 A 
HETATM   32  C   UNL     1      42.225 -17.830   3.814  1.00  0.00     0.037 A 
HETATM   33  C   UNL     1      41.291 -17.158   4.606  1.00  0.00     0.010 A 
BRANCH  31  34
HETATM   34  O   UNL     1      44.105 -17.808   2.394  1.00  0.00    -0.361 OA
HETATM   35  H   UNL     1      43.618 -18.454   1.857  1.00  0.00     0.217 HD
ENDBRANCH  31  34
ENDBRANCH  27  28
ENDBRANCH  26  27
ENDBRANCH  23  26
ENDBRANCH   2  22
TORSDOF 9
ENDMDL
MODEL 5
REMARK VINA RESULT:      -8.5      5.445      9.011
REMARK  9 active torsions:
REMARK  status: ('A' for Active; 'I' for Inactive)
REMARK    1  A    between atoms: C_3  and  C_4 
REMARK       I    between atoms: C_4  and  N_5 
REMARK    2  A    between atoms: N_5  and  C_6 
REMARK    3  A    between atoms: C_6  and  C_7 
REMARK    4  A    between atoms: C_14  and  N_15 
REMARK       I    between atoms: N_15  and  C_16 
REMARK    5  A    between atoms: C_16  and  C_17 
REMARK       I    between atoms: C_17  and  N_18 
REMARK    6  A    between atoms: N_18  and  C_19 
REMARK    7  A    between atoms: C_19  and  C_20 
REMARK    8  A    between atoms: C_20  and  C_21 
REMARK    9  A    between atoms: C_24  and  O_25 
ROOT
HETATM    1  N   UNL     1      42.723 -14.054   3.680  1.00  0.00    -0.318 N 
HETATM    2  C   UNL     1      41.438 -13.568   3.565  1.00  0.00     0.313 C 
HETATM    3  O   UNL     1      40.550 -13.559   4.409  1.00  0.00    -0.262 OA
HETATM    4  H   UNL     1      43.367 -13.708   2.972  1.00  0.00     0.169 HD
ENDROOT
BRANCH   1   5
HETATM    5  C   UNL     1      43.243 -14.744   4.792  1.00  0.00     0.051 A 
HETATM    6  C   UNL     1      43.195 -16.138   4.982  1.00  0.00     0.058 A 
HETATM    7  C   UNL     1      43.679 -16.693   6.182  1.00  0.00     0.019 A 
HETATM    8  C   UNL     1      44.220 -15.875   7.175  1.00  0.00     0.001 A 
HETATM    9  C   UNL     1      44.318 -14.504   6.964  1.00  0.00     0.002 A 
HETATM   10  C   UNL     1      43.847 -13.945   5.775  1.00  0.00     0.030 A 
BRANCH   6  11
HETATM   11  C   UNL     1      42.879 -17.081   3.874  1.00  0.00     0.254 C 
HETATM   12  N   UNL     1      43.960 -17.712   3.292  1.00  0.00    -0.353 N 
HETATM   13  H   UNL     1      44.850 -17.695   3.771  1.00  0.00     0.163 HD
HETATM   14  O   UNL     1      41.722 -17.222   3.493  1.00  0.00    -0.268 OA
BRANCH  12  15
HETATM   15  C   UNL     1      43.778 -18.692   2.244  1.00  0.00     0.162 C 
BRANCH  15  16
HETATM   16  C   UNL     1      44.072 -20.085   2.724  1.00  0.00    -0.023 A 
HETATM   17  C   UNL     1      43.992 -21.170   1.857  1.00  0.00     0.125 A 
HETATM   18  N   UNL     1      44.289 -22.445   2.201  1.00  0.00    -0.273 NA
HETATM   19  C   UNL     1      44.702 -22.650   3.469  1.00  0.00     0.116 A 
HETATM   20  C   UNL     1      44.830 -21.642   4.409  1.00  0.00     0.020 A 
HETATM   21  C   UNL     1      44.515 -20.342   4.025  1.00  0.00     0.012 A 
ENDBRANCH  15  16
ENDBRANCH  12  15
ENDBRANCH   6  11
ENDBRANCH   1   5
BRANCH   2  22
HETATM   22  C   UNL     1      41.209 -12.842   2.219  1.00  0.00     0.309 C 
HETATM   23  N   UNL     1      40.904 -13.688   1.178  1.00  0.00    -0.353 N 
HETATM   24  H   UNL     1      40.929 -14.683   1.385  1.00  0.00     0.162 HD
HETATM   25  O   UNL     1      41.273 -11.622   2.164  1.00  0.00    -0.262 OA
BRANCH  23  26
HETATM   26  C   UNL     1      40.750 -13.228  -0.187  1.00  0.00     0.128 C 
BRANCH  26  27
HETATM   27  C   UNL     1      39.308 -13.392  -0.668  1.00  0.00     0.058 C 
BRANCH  27  28
HETATM   28  C   UNL     1      39.207 -14.269  -1.890  1.00  0.00    -0.057 A 
HETATM   29  C   UNL     1      40.291 -15.071  -2.279  1.00  0.00     0.010 A 
HETATM   30  C   UNL     1      40.201 -15.888  -3.407  1.00  0.00     0.037 A 
HETATM   31  C   UNL     1      39.026 -15.897  -4.152  1.00  0.00     0.065 A 
HETATM   32  C   UNL     1      37.948 -15.100  -3.791  1.00  0.00     0.037 A 
HETATM   33  C   UNL     1      38.036 -14.285  -2.661  1.00  0.00     0.010 A 
BRANCH  31  34
HETATM   34  O   UNL     1      38.892 -16.685  -5.257  1.00  0.00    -0.361 OA
HETATM   35  H   UNL     1      39.013 -17.611  -4.990  1.00  0.00     0.217 HD
ENDBRANCH  31  34
ENDBRANCH  27  28
ENDBRANCH  26  27
ENDBRANCH  23  26
ENDBRANCH   2  22
TORSDOF 9
ENDMDL
MODEL 6
REMARK VINA RESULT:      -8.5      2.052      7.795
REMARK  9 active torsions:
REMARK  status: ('A' for Active; 'I' for Inactive)
REMARK    1  A    between atoms: C_3  and  C_4 
REMARK       I    between atoms: C_4  and  N_5 
REMARK    2  A    between atoms: N_5  and  C_6 
REMARK    3  A    between atoms: C_6  and  C_7 
REMARK    4  A    between atoms: C_14  and  N_15 
REMARK       I    between atoms: N_15  and  C_16 
REMARK    5  A    between atoms: C_16  and  C_17 
REMARK       I    between atoms: C_17  and  N_18 
REMARK    6  A    between atoms: N_18  and  C_19 
REMARK    7  A    between atoms: C_19  and  C_20 
REMARK    8  A    between atoms: C_20  and  C_21 
REMARK    9  A    between atoms: C_24  and  O_25 
ROOT
HETATM    1  N   UNL     1      44.091 -14.531   7.526  1.00  0.00    -0.318 N 
HETATM    2  C   UNL     1      45.062 -13.554   7.574  1.00  0.00     0.313 C 
HETATM    3  O   UNL     1      45.913 -13.284   6.735  1.00  0.00    -0.262 OA
HETATM    4  H   UNL     1      43.327 -14.396   8.184  1.00  0.00     0.169 HD
ENDROOT
BRANCH   1   5
HETATM    5  C   UNL     1      43.952 -15.500   6.514  1.00  0.00     0.051 A 
HETATM    6  C   UNL     1      43.320 -15.297   5.272  1.00  0.00     0.058 A 
HETATM    7  C   UNL     1      43.174 -16.378   4.381  1.00  0.00     0.019 A 
HETATM    8  C   UNL     1      43.664 -17.641   4.712  1.00  0.00     0.001 A 
HETATM    9  C   UNL     1      44.337 -17.829   5.915  1.00  0.00     0.002 A 
HETATM   10  C   UNL     1      44.493 -16.762   6.802  1.00  0.00     0.030 A 
BRANCH   6  11
HETATM   11  C   UNL     1      43.013 -13.937   4.749  1.00  0.00     0.254 C 
HETATM   12  N   UNL     1      41.859 -13.352   5.230  1.00  0.00    -0.353 N 
HETATM   13  H   UNL     1      41.420 -13.744   6.052  1.00  0.00     0.163 HD
HETATM   14  O   UNL     1      43.736 -13.423   3.902  1.00  0.00    -0.268 OA
BRANCH  12  15
HETATM   15  C   UNL     1      41.482 -12.011   4.840  1.00  0.00     0.162 C 
BRANCH  15  16
HETATM   16  C   UNL     1      40.881 -11.244   5.983  1.00  0.00    -0.023 A 
HETATM   17  C   UNL     1      39.754 -11.720   6.646  1.00  0.00     0.125 A 
HETATM   18  N   UNL     1      39.184 -11.114   7.714  1.00  0.00    -0.273 NA
HETATM   19  C   UNL     1      39.775  -9.984   8.157  1.00  0.00     0.116 A 
HETATM   20  C   UNL     1      40.906  -9.432   7.581  1.00  0.00     0.020 A 
HETATM   21  C   UNL     1      41.467 -10.077   6.482  1.00  0.00     0.012 A 
ENDBRANCH  15  16
ENDBRANCH  12  15
ENDBRANCH   6  11
ENDBRANCH   1   5
BRANCH   2  22
HETATM   22  C   UNL     1      44.909 -12.643   8.814  1.00  0.00     0.309 C 
HETATM   23  N   UNL     1      43.808 -11.819   8.764  1.00  0.00    -0.353 N 
HETATM   24  H   UNL     1      43.265 -11.846   7.905  1.00  0.00     0.162 HD
HETATM   25  O   UNL     1      45.708 -12.725   9.736  1.00  0.00    -0.262 OA
BRANCH  23  26
HETATM   26  C   UNL     1      43.532 -10.816   9.773  1.00  0.00     0.128 C 
BRANCH  26  27
HETATM   27  C   UNL     1      42.357 -11.231  10.658  1.00  0.00     0.058 C 
BRANCH  27  28
HETATM   28  C   UNL     1      42.434 -10.623  12.036  1.00  0.00    -0.057 A 
HETATM   29  C   UNL     1      41.413 -10.853  12.970  1.00  0.00     0.010 A 
HETATM   30  C   UNL     1      41.482 -10.296  14.249  1.00  0.00     0.037 A 
HETATM   31  C   UNL     1      42.572  -9.501  14.590  1.00  0.00     0.065 A 
HETATM   32  C   UNL     1      43.585  -9.252  13.675  1.00  0.00     0.037 A 
HETATM   33  C   UNL     1      43.518  -9.811  12.397  1.00  0.00     0.010 A 
BRANCH  31  34
HETATM   34  O   UNL     1      42.683  -8.943  15.830  1.00  0.00    -0.361 OA
HETATM   35  H   UNL     1      41.931  -8.343  15.964  1.00  0.00     0.217 HD
ENDBRANCH  31  34
ENDBRANCH  27  28
ENDBRANCH  26  27
ENDBRANCH  23  26
ENDBRANCH   2  22
TORSDOF 9
ENDMDL
MODEL 7
REMARK VINA RESULT:      -8.3      4.923      9.388
REMARK  9 active torsions:
REMARK  status: ('A' for Active; 'I' for Inactive)
REMARK    1  A    between atoms: C_3  and  C_4 
REMARK       I    between atoms: C_4  and  N_5 
REMARK    2  A    between atoms: N_5  and  C_6 
REMARK    3  A    between atoms: C_6  and  C_7 
REMARK    4  A    between atoms: C_14  and  N_15 
REMARK       I    between atoms: N_15  and  C_16 
REMARK    5  A    between atoms: C_16  and  C_17 
REMARK       I    between atoms: C_17  and  N_18 
REMARK    6  A    between atoms: N_18  and  C_19 
REMARK    7  A    between atoms: C_19  and  C_20 
REMARK    8  A    between atoms: C_20  and  C_21 
REMARK    9  A    between atoms: C_24  and  O_25 
ROOT
HETATM    1  N   UNL     1      44.159 -18.769   2.699  1.00  0.00    -0.318 N 
HETATM    2  C   UNL     1      43.024 -17.990   2.780  1.00  0.00     0.313 C 
HETATM    3  O   UNL     1      42.022 -18.173   3.459  1.00  0.00    -0.262 OA
HETATM    4  H   UNL     1      44.967 -18.294   2.305  1.00  0.00     0.169 HD
ENDROOT
BRANCH   1   5
HETATM    5  C   UNL     1      44.344 -20.016   3.328  1.00  0.00     0.051 A 
HETATM    6  C   UNL     1      44.667 -20.205   4.685  1.00  0.00     0.058 A 
HETATM    7  C   UNL     1      44.908 -21.505   5.168  1.00  0.00     0.019 A 
HETATM    8  C   UNL     1      44.813 -22.607   4.317  1.00  0.00     0.001 A 
HETATM    9  C   UNL     1      44.440 -22.425   2.989  1.00  0.00     0.002 A 
HETATM   10  C   UNL     1      44.193 -21.140   2.503  1.00  0.00     0.030 A 
BRANCH   6  11
HETATM   11  C   UNL     1      44.528 -19.118   5.694  1.00  0.00     0.254 C 
HETATM   12  N   UNL     1      43.261 -18.928   6.207  1.00  0.00    -0.353 N 
HETATM   13  H   UNL     1      42.566 -19.649   6.066  1.00  0.00     0.163 HD
HETATM   14  O   UNL     1      45.494 -18.420   5.986  1.00  0.00    -0.268 OA
BRANCH  12  15
HETATM   15  C   UNL     1      43.010 -17.941   7.234  1.00  0.00     0.162 C 
BRANCH  15  16
HETATM   16  C   UNL     1      42.393 -16.693   6.670  1.00  0.00    -0.023 A 
HETATM   17  C   UNL     1      43.188 -15.623   6.270  1.00  0.00     0.125 A 
HETATM   18  N   UNL     1      42.711 -14.487   5.708  1.00  0.00    -0.273 NA
HETATM   19  C   UNL     1      41.376 -14.418   5.519  1.00  0.00     0.116 A 
HETATM   20  C   UNL     1      40.497 -15.428   5.868  1.00  0.00     0.020 A 
HETATM   21  C   UNL     1      41.017 -16.582   6.446  1.00  0.00     0.012 A 
ENDBRANCH  15  16
ENDBRANCH  12  15
ENDBRANCH   6  11
ENDBRANCH   1   5
BRANCH   2  22
HETATM   22  C   UNL     1      43.168 -16.671   1.985  1.00  0.00     0.309 C 
HETATM   23  N   UNL     1      42.130 -15.789   2.182  1.00  0.00    -0.353 N 
HETATM   24  H   UNL     1      41.364 -16.120   2.762  1.00  0.00     0.162 HD
HETATM   25  O   UNL     1      44.157 -16.479   1.292  1.00  0.00    -0.262 OA
BRANCH  23  26
HETATM   26  C   UNL     1      42.015 -14.539   1.459  1.00  0.00     0.128 C 
BRANCH  26  27
HETATM   27  C   UNL     1      40.990 -14.645   0.330  1.00  0.00     0.058 C 
BRANCH  27  28
HETATM   28  C   UNL     1      41.434 -13.923  -0.917  1.00  0.00    -0.057 A 
HETATM   29  C   UNL     1      42.173 -12.734  -0.823  1.00  0.00     0.010 A 
HETATM   30  C   UNL     1      42.591 -12.065  -1.975  1.00  0.00     0.037 A 
HETATM   31  C   UNL     1      42.261 -12.582  -3.224  1.00  0.00     0.065 A 
HETATM   32  C   UNL     1      41.519 -13.750  -3.337  1.00  0.00     0.037 A 
HETATM   33  C   UNL     1      41.104 -14.422  -2.185  1.00  0.00     0.010 A 
BRANCH  31  34
HETATM   34  O   UNL     1      42.654 -11.965  -4.374  1.00  0.00    -0.361 OA
HETATM   35  H   UNL     1      42.034 -12.210  -5.081  1.00  0.00     0.217 HD
ENDBRANCH  31  34
ENDBRANCH  27  28
ENDBRANCH  26  27
ENDBRANCH  23  26
ENDBRANCH   2  22
TORSDOF 9
ENDMDL
MODEL 8
REMARK VINA RESULT:      -8.2      5.008      7.166
REMARK  9 active torsions:
REMARK  status: ('A' for Active; 'I' for Inactive)
REMARK    1  A    between atoms: C_3  and  C_4 
REMARK       I    between atoms: C_4  and  N_5 
REMARK    2  A    between atoms: N_5  and  C_6 
REMARK    3  A    between atoms: C_6  and  C_7 
REMARK    4  A    between atoms: C_14  and  N_15 
REMARK       I    between atoms: N_15  and  C_16 
REMARK    5  A    between atoms: C_16  and  C_17 
REMARK       I    between atoms: C_17  and  N_18 
REMARK    6  A    between atoms: N_18  and  C_19 
REMARK    7  A    between atoms: C_19  and  C_20 
REMARK    8  A    between atoms: C_20  and  C_21 
REMARK    9  A    between atoms: C_24  and  O_25 
ROOT
HETATM    1  N   UNL     1      40.340 -15.488   4.893  1.00  0.00    -0.318 N 
HETATM    2  C   UNL     1      41.650 -15.871   4.699  1.00  0.00     0.313 C 
HETATM    3  O   UNL     1      42.576 -15.212   4.241  1.00  0.00    -0.262 OA
HETATM    4  H   UNL     1      39.821 -16.081   5.537  1.00  0.00     0.169 HD
ENDROOT
BRANCH   1   5
HETATM    5  C   UNL     1      39.777 -14.260   4.498  1.00  0.00     0.051 A 
HETATM    6  C   UNL     1      39.586 -13.841   3.167  1.00  0.00     0.058 A 
HETATM    7  C   UNL     1      39.088 -12.549   2.910  1.00  0.00     0.019 A 
HETATM    8  C   UNL     1      38.768 -11.690   3.960  1.00  0.00     0.001 A 
HETATM    9  C   UNL     1      38.905 -12.123   5.275  1.00  0.00     0.002 A 
HETATM   10  C   UNL     1      39.392 -13.404   5.541  1.00  0.00     0.030 A 
BRANCH   6  11
HETATM   11  C   UNL     1      39.655 -14.786   2.019  1.00  0.00     0.254 C 
HETATM   12  N   UNL     1      40.853 -14.820   1.336  1.00  0.00    -0.353 N 
HETATM   13  H   UNL     1      41.670 -14.405   1.764  1.00  0.00     0.163 HD
HETATM   14  O   UNL     1      38.667 -15.439   1.695  1.00  0.00    -0.268 OA
BRANCH  12  15
HETATM   15  C   UNL     1      41.062 -15.738   0.237  1.00  0.00     0.162 C 
BRANCH  15  16
HETATM   16  C   UNL     1      41.279 -15.014  -1.062  1.00  0.00    -0.023 A 
HETATM   17  C   UNL     1      40.946 -15.609  -2.274  1.00  0.00     0.125 A 
HETATM   18  N   UNL     1      41.064 -15.004  -3.479  1.00  0.00    -0.273 NA
HETATM   19  C   UNL     1      41.523 -13.735  -3.478  1.00  0.00     0.116 A 
HETATM   20  C   UNL     1      41.870 -13.044  -2.330  1.00  0.00     0.020 A 
HETATM   21  C   UNL     1      41.740 -13.694  -1.106  1.00  0.00     0.012 A 
ENDBRANCH  15  16
ENDBRANCH  12  15
ENDBRANCH   6  11
ENDBRANCH   1   5
BRANCH   2  22
HETATM   22  C   UNL     1      41.937 -17.276   5.277  1.00  0.00     0.309 C 
HETATM   23  N   UNL     1      43.216 -17.424   5.764  1.00  0.00    -0.353 N 
HETATM   24  H   UNL     1      43.842 -16.635   5.631  1.00  0.00     0.162 HD
HETATM   25  O   UNL     1      41.052 -18.120   5.302  1.00  0.00    -0.262 OA
BRANCH  23  26
HETATM   26  C   UNL     1      43.726 -18.687   6.257  1.00  0.00     0.128 C 
BRANCH  26  27
HETATM   27  C   UNL     1      44.960 -19.132   5.472  1.00  0.00     0.058 C 
BRANCH  27  28
HETATM   28  C   UNL     1      44.607 -20.009   4.297  1.00  0.00    -0.057 A 
HETATM   29  C   UNL     1      44.007 -19.457   3.156  1.00  0.00     0.010 A 
HETATM   30  C   UNL     1      43.683 -20.264   2.063  1.00  0.00     0.037 A 
HETATM   31  C   UNL     1      43.952 -21.627   2.118  1.00  0.00     0.065 A 
HETATM   32  C   UNL     1      44.532 -22.194   3.244  1.00  0.00     0.037 A 
HETATM   33  C   UNL     1      44.860 -21.387   4.335  1.00  0.00     0.010 A 
BRANCH  31  34
HETATM   34  O   UNL     1      43.658 -22.451   1.071  1.00  0.00    -0.361 OA
HETATM   35  H   UNL     1      43.539 -23.352   1.414  1.00  0.00     0.217 HD
ENDBRANCH  31  34
ENDBRANCH  27  28
ENDBRANCH  26  27
ENDBRANCH  23  26
ENDBRANCH   2  22
TORSDOF 9
ENDMDL
MODEL 9
REMARK VINA RESULT:      -8.0      5.291      8.972
REMARK  9 active torsions:
REMARK  status: ('A' for Active; 'I' for Inactive)
REMARK    1  A    between atoms: C_3  and  C_4 
REMARK       I    between atoms: C_4  and  N_5 
REMARK    2  A    between atoms: N_5  and  C_6 
REMARK    3  A    between atoms: C_6  and  C_7 
REMARK    4  A    between atoms: C_14  and  N_15 
REMARK       I    between atoms: N_15  and  C_16 
REMARK    5  A    between atoms: C_16  and  C_17 
REMARK       I    between atoms: C_17  and  N_18 
REMARK    6  A    between atoms: N_18  and  C_19 
REMARK    7  A    between atoms: C_19  and  C_20 
REMARK    8  A    between atoms: C_20  and  C_21 
REMARK    9  A    between atoms: C_24  and  O_25 
ROOT
HETATM    1  N   UNL     1      42.244 -15.469   3.860  1.00  0.00    -0.318 N 
HETATM    2  C   UNL     1      42.571 -15.912   2.596  1.00  0.00     0.313 C 
HETATM    3  O   UNL     1      43.652 -16.320   2.189  1.00  0.00    -0.262 OA
HETATM    4  H   UNL     1      41.245 -15.450   4.052  1.00  0.00     0.169 HD
ENDROOT
BRANCH   1   5
HETATM    5  C   UNL     1      43.144 -15.304   4.930  1.00  0.00     0.051 A 
HETATM    6  C   UNL     1      43.456 -16.284   5.892  1.00  0.00     0.058 A 
HETATM    7  C   UNL     1      44.312 -15.959   6.962  1.00  0.00     0.019 A 
HETATM    8  C   UNL     1      44.863 -14.683   7.068  1.00  0.00     0.001 A 
HETATM    9  C   UNL     1      44.599 -13.731   6.088  1.00  0.00     0.002 A 
HETATM   10  C   UNL     1      43.757 -14.045   5.019  1.00  0.00     0.030 A 
BRANCH   6  11
HETATM   11  C   UNL     1      43.120 -17.722   5.700  1.00  0.00     0.254 C 
HETATM   12  N   UNL     1      44.187 -18.596   5.700  1.00  0.00    -0.353 N 
HETATM   13  H   UNL     1      45.080 -18.276   6.051  1.00  0.00     0.163 HD
HETATM   14  O   UNL     1      41.958 -18.064   5.503  1.00  0.00    -0.268 OA
BRANCH  12  15
HETATM   15  C   UNL     1      43.985 -20.024   5.578  1.00  0.00     0.162 C 
BRANCH  15  16
HETATM   16  C   UNL     1      44.114 -20.487   4.155  1.00  0.00    -0.023 A 
HETATM   17  C   UNL     1      44.497 -21.792   3.862  1.00  0.00     0.125 A 
HETATM   18  N   UNL     1      44.587 -22.298   2.610  1.00  0.00    -0.273 NA
HETATM   19  C   UNL     1      44.264 -21.467   1.596  1.00  0.00     0.116 A 
HETATM   20  C   UNL     1      43.858 -20.157   1.775  1.00  0.00     0.020 A 
HETATM   21  C   UNL     1      43.778 -19.665   3.075  1.00  0.00     0.012 A 
ENDBRANCH  15  16
ENDBRANCH  12  15
ENDBRANCH   6  11
ENDBRANCH   1   5
BRANCH   2  22
HETATM   22  C   UNL     1      41.334 -15.997   1.672  1.00  0.00     0.309 C 
HETATM   23  N   UNL     1      40.644 -14.812   1.560  1.00  0.00    -0.353 N 
HETATM   24  H   UNL     1      40.972 -14.044   2.139  1.00  0.00     0.162 HD
HETATM   25  O   UNL     1      41.073 -17.043   1.094  1.00  0.00    -0.262 OA
BRANCH  23  26
HETATM   26  C   UNL     1      39.400 -14.695   0.826  1.00  0.00     0.128 C 
BRANCH  26  27
HETATM   27  C   UNL     1      39.558 -13.780  -0.389  1.00  0.00     0.058 C 
BRANCH  27  28
HETATM   28  C   UNL     1      39.380 -14.520  -1.691  1.00  0.00    -0.057 A 
HETATM   29  C   UNL     1      38.179 -14.412  -2.408  1.00  0.00     0.010 A 
HETATM   30  C   UNL     1      38.010 -15.091  -3.617  1.00  0.00     0.037 A 
HETATM   31  C   UNL     1      39.043 -15.885  -4.104  1.00  0.00     0.065 A 
HETATM   32  C   UNL     1      40.234 -16.014  -3.402  1.00  0.00     0.037 A 
HETATM   33  C   UNL     1      40.404 -15.333  -2.195  1.00  0.00     0.010 A 
BRANCH  31  34
HETATM   34  O   UNL     1      38.924 -16.560  -5.283  1.00  0.00    -0.361 OA
HETATM   35  H   UNL     1      39.158 -17.490  -5.129  1.00  0.00     0.217 HD
ENDBRANCH  31  34
ENDBRANCH  27  28
ENDBRANCH  26  27
ENDBRANCH  23  26
ENDBRANCH   2  22
TORSDOF 9
ENDMDL
MODEL 10
REMARK VINA RESULT:      -8.0      2.760      7.809
REMARK  9 active torsions:
REMARK  status: ('A' for Active; 'I' for Inactive)
REMARK    1  A    between atoms: C_3  and  C_4 
REMARK       I    between atoms: C_4  and  N_5 
REMARK    2  A    between atoms: N_5  and  C_6 
REMARK    3  A    between atoms: C_6  and  C_7 
REMARK    4  A    between atoms: C_14  and  N_15 
REMARK       I    between atoms: N_15  and  C_16 
REMARK    5  A    between atoms: C_16  and  C_17 
REMARK       I    between atoms: C_17  and  N_18 
REMARK    6  A    between atoms: N_18  and  C_19 
REMARK    7  A    between atoms: C_19  and  C_20 
REMARK    8  A    between atoms: C_20  and  C_21 
REMARK    9  A    between atoms: C_24  and  O_25 
ROOT
HETATM    1  N   UNL     1      43.917 -14.912   7.557  1.00  0.00    -0.318 N 
HETATM    2  C   UNL     1      44.835 -13.893   7.414  1.00  0.00     0.313 C 
HETATM    3  O   UNL     1      45.611 -13.692   6.488  1.00  0.00    -0.262 OA
HETATM    4  H   UNL     1      43.193 -14.732   8.248  1.00  0.00     0.169 HD
ENDROOT
BRANCH   1   5
HETATM    5  C   UNL     1      43.763 -16.006   6.683  1.00  0.00     0.051 A 
HETATM    6  C   UNL     1      42.720 -16.164   5.750  1.00  0.00     0.058 A 
HETATM    7  C   UNL     1      42.637 -17.348   4.994  1.00  0.00     0.019 A 
HETATM    8  C   UNL     1      43.587 -18.357   5.150  1.00  0.00     0.001 A 
HETATM    9  C   UNL     1      44.648 -18.179   6.031  1.00  0.00     0.002 A 
HETATM   10  C   UNL     1      44.743 -17.005   6.781  1.00  0.00     0.030 A 
BRANCH   6  11
HETATM   11  C   UNL     1      41.837 -15.034   5.347  1.00  0.00     0.254 C 
HETATM   12  N   UNL     1      40.834 -15.343   4.451  1.00  0.00    -0.353 N 
HETATM   13  H   UNL     1      40.599 -16.315   4.298  1.00  0.00     0.163 HD
HETATM   14  O   UNL     1      42.053 -13.901   5.765  1.00  0.00    -0.268 OA
BRANCH  12  15
HETATM   15  C   UNL     1      39.877 -14.344   4.027  1.00  0.00     0.162 C 
BRANCH  15  16
HETATM   16  C   UNL     1      39.807 -14.238   2.530  1.00  0.00    -0.023 A 
HETATM   17  C   UNL     1      40.659 -14.984   1.721  1.00  0.00     0.125 A 
HETATM   18  N   UNL     1      40.624 -14.981   0.368  1.00  0.00    -0.273 NA
HETATM   19  C   UNL     1      39.682 -14.207  -0.212  1.00  0.00     0.116 A 
HETATM   20  C   UNL     1      38.777 -13.436   0.496  1.00  0.00     0.020 A 
HETATM   21  C   UNL     1      38.840 -13.459   1.887  1.00  0.00     0.012 A 
ENDBRANCH  15  16
ENDBRANCH  12  15
ENDBRANCH   6  11
ENDBRANCH   1   5
BRANCH   2  22
HETATM   22  C   UNL     1      44.716 -12.843   8.543  1.00  0.00     0.309 C 
HETATM   23  N   UNL     1      43.660 -11.976   8.383  1.00  0.00    -0.353 N 
HETATM   24  H   UNL     1      43.124 -12.072   7.525  1.00  0.00     0.162 HD
HETATM   25  O   UNL     1      45.501 -12.861   9.480  1.00  0.00    -0.262 OA
BRANCH  23  26
HETATM   26  C   UNL     1      43.425 -10.854   9.270  1.00  0.00     0.128 C 
BRANCH  26  27
HETATM   27  C   UNL     1      42.043 -10.939   9.916  1.00  0.00     0.058 C 
BRANCH  27  28
HETATM   28  C   UNL     1      42.090 -10.697  11.404  1.00  0.00    -0.057 A 
HETATM   29  C   UNL     1      43.223 -10.115  11.992  1.00  0.00     0.010 A 
HETATM   30  C   UNL     1      43.269  -9.884  13.368  1.00  0.00     0.037 A 
HETATM   31  C   UNL     1      42.182 -10.243  14.158  1.00  0.00     0.065 A 
HETATM   32  C   UNL     1      41.058 -10.833  13.597  1.00  0.00     0.037 A 
HETATM   33  C   UNL     1      41.009 -11.060  12.220  1.00  0.00     0.010 A 
BRANCH  31  34
HETATM   34  O   UNL     1      42.183 -10.030  15.505  1.00  0.00    -0.361 OA
HETATM   35  H   UNL     1      42.175  -9.072  15.665  1.00  0.00     0.217 HD
ENDBRANCH  31  34
ENDBRANCH  27  28
ENDBRANCH  26  27
ENDBRANCH  23  26
ENDBRANCH   2  22
TORSDOF 9
ENDMDL
