MODEL 1
REMARK VINA RESULT:      -8.9      0.000      0.000
REMARK  8 active torsions:
REMARK  status: ('A' for Active; 'I' for Inactive)
REMARK    1  A    between atoms: O_2  and  C_3 
REMARK    2  A    between atoms: C_3  and  C_4 
REMARK    3  A    between atoms: N_7  and  C_8 
REMARK    4  A    between atoms: N_10  and  C_12 
REMARK    5  A    between atoms: C_22  and  C_23 
REMARK       I    between atoms: C_23  and  N_24 
REMARK    6  A    between atoms: N_24  and  C_25 
REMARK    7  A    between atoms: C_25  and  C_26 
REMARK    8  A    between atoms: C_26  and  C_27 
ROOT
HETATM    1  C   UNL     1      40.845 -11.770   6.079  1.00  0.00     0.134 C 
HETATM    2  C   UNL     1      40.112 -12.964   5.490  1.00  0.00     0.263 C 
HETATM    3  N   UNL     1      41.049 -13.470   4.401  1.00  0.00    -0.051 N 
HETATM    4  H   UNL     1      40.978 -14.509   4.403  1.00  0.00     0.281 HD
HETATM    5  C   UNL     1      42.476 -13.192   4.974  1.00  0.00     0.281 C 
HETATM    6  C   UNL     1      42.279 -12.263   6.172  1.00  0.00     0.072 C 
ENDROOT
BRANCH   5   7
HETATM    7  C   UNL     1      43.100 -14.531   5.403  1.00  0.00     0.248 C 
HETATM    8  N   UNL     1      42.756 -15.012   6.640  1.00  0.00    -0.359 N 
HETATM    9  H   UNL     1      42.277 -14.430   7.317  1.00  0.00     0.162 HD
HETATM   10  O   UNL     1      43.851 -15.108   4.614  1.00  0.00    -0.271 OA
BRANCH   8  11
HETATM   11  C   UNL     1      43.295 -16.283   7.113  1.00  0.00     0.127 C 
BRANCH  11  12
HETATM   12  C   UNL     1      42.464 -17.478   6.647  1.00  0.00     0.060 C 
BRANCH  12  13
HETATM   13  C   UNL     1      43.270 -18.453   5.855  1.00  0.00    -0.029 A 
HETATM   14  C   UNL     1      43.214 -18.663   4.439  1.00  0.00    -0.002 A 
HETATM   15  C   UNL     1      44.128 -19.671   4.130  1.00  0.00     0.042 A 
HETATM   16  C   UNL     1      42.467 -18.090   3.389  1.00  0.00     0.014 A 
HETATM   17  C   UNL     1      44.331 -20.137   2.827  1.00  0.00     0.030 A 
HETATM   18  N   UNL     1      44.724 -20.054   5.308  1.00  0.00    -0.365 N 
HETATM   19  C   UNL     1      43.577 -19.555   1.805  1.00  0.00     0.002 A 
HETATM   20  C   UNL     1      42.658 -18.545   2.078  1.00  0.00     0.001 A 
HETATM   21  H   UNL     1      45.437 -20.767   5.383  1.00  0.00     0.165 HD
HETATM   22  C   UNL     1      44.214 -19.330   6.354  1.00  0.00     0.096 A 
ENDBRANCH  12  13
ENDBRANCH  11  12
ENDBRANCH   8  11
ENDBRANCH   5   7
BRANCH   3  23
HETATM   23  C   UNL     1      40.786 -12.974   2.984  1.00  0.00     0.197 C 
HETATM   24  C   UNL     1      41.943 -13.338   2.011  1.00  0.00     0.017 C 
HETATM   25  C   UNL     1      42.045 -14.860   1.786  1.00  0.00     0.011 C 
HETATM   26  C   UNL     1      41.656 -12.668   0.649  1.00  0.00     0.011 C 
HETATM   27  C   UNL     1      40.727 -15.402   1.215  1.00  0.00    -0.013 C 
HETATM   28  C   UNL     1      39.583 -15.087   2.192  1.00  0.00     0.011 C 
HETATM   29  C   UNL     1      40.445 -14.719  -0.134  1.00  0.00     0.009 C 
HETATM   30  C   UNL     1      39.469 -13.565   2.405  1.00  0.00     0.017 C 
HETATM   31  C   UNL     1      39.194 -12.898   1.040  1.00  0.00     0.011 C 
HETATM   32  C   UNL     1      40.338 -13.198   0.061  1.00  0.00    -0.013 C 
ENDBRANCH   3  23
BRANCH   1  33
HETATM   33  N   UNL     1      40.319 -11.327   7.344  1.00  0.00    -0.276 N 
HETATM   34  N   UNL     1      39.014 -11.458   7.612  1.00  0.00     0.005 NA
HETATM   35  N   UNL     1      38.821 -11.043   8.856  1.00  0.00    -0.152 NA
HETATM   36  C   UNL     1      40.033 -10.655   9.378  1.00  0.00     0.166 A 
HETATM   37  C   UNL     1      41.002 -10.828   8.406  1.00  0.00     0.147 A 
BRANCH  36  38
HETATM   38  C   UNL     1      40.232 -10.165  10.733  1.00  0.00     0.314 C 
HETATM   39  O   UNL     1      39.777  -9.095  11.122  1.00  0.00    -0.257 OA
BRANCH  38  40
HETATM   40  O   UNL     1      40.979 -11.013  11.494  1.00  0.00    -0.321 OA
HETATM   41  C   UNL     1      40.270 -11.601  12.584  1.00  0.00     0.213 C 
ENDBRANCH  38  40
ENDBRANCH  36  38
ENDBRANCH   1  33
TORSDOF 8
ENDMDL
MODEL 2
REMARK VINA RESULT:      -8.8      3.637      7.379
REMARK  8 active torsions:
REMARK  status: ('A' for Active; 'I' for Inactive)
REMARK    1  A    between atoms: O_2  and  C_3 
REMARK    2  A    between atoms: C_3  and  C_4 
REMARK    3  A    between atoms: N_7  and  C_8 
REMARK    4  A    between atoms: N_10  and  C_12 
REMARK    5  A    between atoms: C_22  and  C_23 
REMARK       I    between atoms: C_23  and  N_24 
REMARK    6  A    between atoms: N_24  and  C_25 
REMARK    7  A    between atoms: C_25  and  C_26 
REMARK    8  A    between atoms: C_26  and  C_27 
ROOT
HETATM    1  C   UNL     1      41.726 -17.333   1.130  1.00  0.00     0.134 C 
HETATM    2  C   UNL     1      42.270 -16.048   0.527  1.00  0.00     0.263 C 
HETATM    3  N   UNL     1      41.054 -15.134   0.452  1.00  0.00    -0.051 N 
HETATM    4  H   UNL     1      41.390 -14.171   0.664  1.00  0.00     0.281 HD
HETATM    5  C   UNL     1      40.214 -15.522   1.711  1.00  0.00     0.281 C 
HETATM    6  C   UNL     1      40.809 -16.830   2.232  1.00  0.00     0.072 C 
ENDROOT
BRANCH   5   7
HETATM    7  C   UNL     1      40.342 -14.396   2.751  1.00  0.00     0.248 C 
HETATM    8  N   UNL     1      41.597 -14.140   3.241  1.00  0.00    -0.359 N 
HETATM    9  H   UNL     1      42.367 -14.780   3.081  1.00  0.00     0.162 HD
HETATM   10  O   UNL     1      39.328 -13.775   3.072  1.00  0.00    -0.271 OA
BRANCH   8  11
HETATM   11  C   UNL     1      41.804 -13.078   4.220  1.00  0.00     0.127 C 
BRANCH  11  12
HETATM   12  C   UNL     1      41.676 -13.580   5.659  1.00  0.00     0.060 C 
BRANCH  12  13
HETATM   13  C   UNL     1      42.850 -14.400   6.078  1.00  0.00    -0.029 A 
HETATM   14  C   UNL     1      42.985 -15.823   5.970  1.00  0.00    -0.002 A 
HETATM   15  C   UNL     1      44.233 -16.165   6.488  1.00  0.00     0.042 A 
HETATM   16  C   UNL     1      42.156 -16.855   5.481  1.00  0.00     0.014 A 
HETATM   17  C   UNL     1      44.696 -17.484   6.546  1.00  0.00     0.030 A 
HETATM   18  N   UNL     1      44.841 -14.998   6.888  1.00  0.00    -0.365 N 
HETATM   19  C   UNL     1      43.856 -18.487   6.057  1.00  0.00     0.002 A 
HETATM   20  C   UNL     1      42.604 -18.181   5.531  1.00  0.00     0.001 A 
HETATM   21  H   UNL     1      45.764 -14.944   7.297  1.00  0.00     0.165 HD
HETATM   22  C   UNL     1      44.016 -13.930   6.648  1.00  0.00     0.096 A 
ENDBRANCH  12  13
ENDBRANCH  11  12
ENDBRANCH   8  11
ENDBRANCH   5   7
BRANCH   3  23
HETATM   23  C   UNL     1      40.302 -15.099  -0.873  1.00  0.00     0.197 C 
HETATM   24  C   UNL     1      39.207 -13.994  -0.896  1.00  0.00     0.017 C 
HETATM   25  C   UNL     1      39.819 -12.580  -0.857  1.00  0.00     0.011 C 
HETATM   26  C   UNL     1      38.407 -14.137  -2.211  1.00  0.00     0.011 C 
HETATM   27  C   UNL     1      40.757 -12.374  -2.054  1.00  0.00    -0.013 C 
HETATM   28  C   UNL     1      41.871 -13.432  -2.015  1.00  0.00     0.011 C 
HETATM   29  C   UNL     1      39.953 -12.530  -3.356  1.00  0.00     0.009 C 
HETATM   30  C   UNL     1      41.261 -14.848  -2.071  1.00  0.00     0.017 C 
HETATM   31  C   UNL     1      40.454 -14.982  -3.379  1.00  0.00     0.011 C 
HETATM   32  C   UNL     1      39.331 -13.934  -3.422  1.00  0.00    -0.013 C 
ENDBRANCH   3  23
BRANCH   1  33
HETATM   33  N   UNL     1      42.743 -18.231   1.610  1.00  0.00    -0.276 N 
HETATM   34  N   UNL     1      43.916 -17.747   2.041  1.00  0.00     0.005 NA
HETATM   35  N   UNL     1      44.626 -18.773   2.489  1.00  0.00    -0.152 NA
HETATM   36  C   UNL     1      43.878 -19.918   2.344  1.00  0.00     0.166 A 
HETATM   37  C   UNL     1      42.666 -19.576   1.771  1.00  0.00     0.147 A 
BRANCH  36  38
HETATM   38  C   UNL     1      44.309 -21.246   2.750  1.00  0.00     0.314 C 
HETATM   39  O   UNL     1      44.237 -22.219   2.007  1.00  0.00    -0.257 OA
BRANCH  38  40
HETATM   40  O   UNL     1      44.778 -21.280   4.029  1.00  0.00    -0.321 OA
HETATM   41  C   UNL     1      44.740 -22.572   4.633  1.00  0.00     0.213 C 
ENDBRANCH  38  40
ENDBRANCH  36  38
ENDBRANCH   1  33
TORSDOF 8
ENDMDL
MODEL 3
REMARK VINA RESULT:      -8.6      3.056      9.346
REMARK  8 active torsions:
REMARK  status: ('A' for Active; 'I' for Inactive)
REMARK    1  A    between atoms: O_2  and  C_3 
REMARK    2  A    between atoms: C_3  and  C_4 
REMARK    3  A    between atoms: N_7  and  C_8 
REMARK    4  A    between atoms: N_10  and  C_12 
REMARK    5  A    between atoms: C_22  and  C_23 
REMARK       I    between atoms: C_23  and  N_24 
REMARK    6  A    between atoms: N_24  and  C_25 
REMARK    7  A    between atoms: C_25  and  C_26 
REMARK    8  A    between atoms: C_26  and  C_27 
ROOT
HETATM    1  C   UNL     1      41.889 -14.694   1.810  1.00  0.00     0.134 C 
HETATM    2  C   UNL     1      41.256 -15.600   2.854  1.00  0.00     0.263 C 
HETATM    3  N   UNL     1      41.927 -15.186   4.157  1.00  0.00    -0.051 N 
HETATM    4  H   UNL     1      41.201 -15.248   4.901  1.00  0.00     0.281 HD
HETATM    5  C   UNL     1      42.160 -13.651   3.988  1.00  0.00     0.281 C 
HETATM    6  C   UNL     1      41.925 -13.345   2.509  1.00  0.00     0.072 C 
ENDROOT
BRANCH   5   7
HETATM    7  C   UNL     1      41.154 -12.903   4.880  1.00  0.00     0.248 C 
HETATM    8  N   UNL     1      41.627 -12.392   6.061  1.00  0.00    -0.359 N 
HETATM    9  H   UNL     1      42.535 -12.658   6.425  1.00  0.00     0.162 HD
HETATM   10  O   UNL     1      39.994 -12.783   4.484  1.00  0.00    -0.271 OA
BRANCH   8  11
HETATM   11  C   UNL     1      40.739 -11.657   6.956  1.00  0.00     0.127 C 
BRANCH  11  12
HETATM   12  C   UNL     1      41.495 -10.671   7.847  1.00  0.00     0.060 C 
BRANCH  12  13
HETATM   13  C   UNL     1      41.114 -10.802   9.284  1.00  0.00    -0.029 A 
HETATM   14  C   UNL     1      41.974 -10.631  10.418  1.00  0.00    -0.002 A 
HETATM   15  C   UNL     1      41.207 -10.856  11.560  1.00  0.00     0.042 A 
HETATM   16  C   UNL     1      43.338 -10.308  10.578  1.00  0.00     0.014 A 
HETATM   17  C   UNL     1      41.732 -10.777  12.855  1.00  0.00     0.030 A 
HETATM   18  N   UNL     1      39.929 -11.143  11.143  1.00  0.00    -0.365 N 
HETATM   19  C   UNL     1      43.086 -10.457  12.987  1.00  0.00     0.002 A 
HETATM   20  C   UNL     1      43.880 -10.225  11.867  1.00  0.00     0.001 A 
HETATM   21  H   UNL     1      39.155 -11.342  11.763  1.00  0.00     0.165 HD
HETATM   22  C   UNL     1      39.862 -11.116   9.774  1.00  0.00     0.096 A 
ENDBRANCH  12  13
ENDBRANCH  11  12
ENDBRANCH   8  11
ENDBRANCH   5   7
BRANCH   3  23
HETATM   23  C   UNL     1      43.135 -16.005   4.596  1.00  0.00     0.197 C 
HETATM   24  C   UNL     1      43.437 -15.837   6.113  1.00  0.00     0.017 C 
HETATM   25  C   UNL     1      42.323 -16.445   6.988  1.00  0.00     0.011 C 
HETATM   26  C   UNL     1      44.755 -16.579   6.426  1.00  0.00     0.011 C 
HETATM   27  C   UNL     1      42.158 -17.939   6.678  1.00  0.00    -0.013 C 
HETATM   28  C   UNL     1      41.815 -18.113   5.190  1.00  0.00     0.011 C 
HETATM   29  C   UNL     1      43.480 -18.665   6.982  1.00  0.00     0.009 C 
HETATM   30  C   UNL     1      42.935 -17.521   4.312  1.00  0.00     0.017 C 
HETATM   31  C   UNL     1      44.253 -18.256   4.637  1.00  0.00     0.011 C 
HETATM   32  C   UNL     1      44.610 -18.078   6.121  1.00  0.00    -0.013 C 
ENDBRANCH   3  23
BRANCH   1  33
HETATM   33  N   UNL     1      41.181 -14.660   0.558  1.00  0.00    -0.276 N 
HETATM   34  N   UNL     1      39.978 -14.075   0.482  1.00  0.00     0.005 NA
HETATM   35  N   UNL     1      39.595 -14.123  -0.787  1.00  0.00    -0.152 NA
HETATM   36  C   UNL     1      40.583 -14.740  -1.518  1.00  0.00     0.166 A 
HETATM   37  C   UNL     1      41.605 -15.095  -0.656  1.00  0.00     0.147 A 
BRANCH  36  38
HETATM   38  C   UNL     1      40.539 -14.953  -2.956  1.00  0.00     0.314 C 
HETATM   39  O   UNL     1      41.533 -15.250  -3.610  1.00  0.00    -0.257 OA
BRANCH  38  40
HETATM   40  O   UNL     1      39.292 -14.774  -3.476  1.00  0.00    -0.321 OA
HETATM   41  C   UNL     1      38.738 -15.940  -4.084  1.00  0.00     0.213 C 
ENDBRANCH  38  40
ENDBRANCH  36  38
ENDBRANCH   1  33
TORSDOF 8
ENDMDL
MODEL 4
REMARK VINA RESULT:      -8.5      3.449      5.003
REMARK  8 active torsions:
REMARK  status: ('A' for Active; 'I' for Inactive)
REMARK    1  A    between atoms: O_2  and  C_3 
REMARK    2  A    between atoms: C_3  and  C_4 
REMARK    3  A    between atoms: N_7  and  C_8 
REMARK    4  A    between atoms: N_10  and  C_12 
REMARK    5  A    between atoms: C_22  and  C_23 
REMARK       I    between atoms: C_23  and  N_24 
REMARK    6  A    between atoms: N_24  and  C_25 
REMARK    7  A    between atoms: C_25  and  C_26 
REMARK    8  A    between atoms: C_26  and  C_27 
ROOT
HETATM    1  C   UNL     1      42.908 -13.385   4.754  1.00  0.00     0.134 C 
HETATM    2  C   UNL     1      41.401 -13.366   4.548  1.00  0.00     0.263 C 
HETATM    3  N   UNL     1      41.223 -12.684   3.198  1.00  0.00    -0.051 N 
HETATM    4  H   UNL     1      40.424 -13.157   2.727  1.00  0.00     0.281 HD
HETATM    5  C   UNL     1      42.468 -13.147   2.376  1.00  0.00     0.281 C 
HETATM    6  C   UNL     1      43.433 -13.773   3.382  1.00  0.00     0.072 C 
ENDROOT
BRANCH   5   7
HETATM    7  C   UNL     1      42.008 -14.175   1.328  1.00  0.00     0.248 C 
HETATM    8  N   UNL     1      42.353 -15.484   1.545  1.00  0.00    -0.359 N 
HETATM    9  H   UNL     1      43.038 -15.739   2.247  1.00  0.00     0.162 HD
HETATM   10  O   UNL     1      41.343 -13.779   0.369  1.00  0.00    -0.271 OA
BRANCH   8  11
HETATM   11  C   UNL     1      41.942 -16.521   0.605  1.00  0.00     0.127 C 
BRANCH  11  12
HETATM   12  C   UNL     1      41.521 -17.812   1.308  1.00  0.00     0.060 C 
BRANCH  12  13
HETATM   13  C   UNL     1      42.521 -18.252   2.326  1.00  0.00    -0.029 A 
HETATM   14  C   UNL     1      43.176 -19.525   2.389  1.00  0.00    -0.002 A 
HETATM   15  C   UNL     1      44.017 -19.506   3.502  1.00  0.00     0.042 A 
HETATM   16  C   UNL     1      43.129 -20.696   1.604  1.00  0.00     0.014 A 
HETATM   17  C   UNL     1      44.812 -20.596   3.871  1.00  0.00     0.030 A 
HETATM   18  N   UNL     1      43.889 -18.268   4.087  1.00  0.00    -0.365 N 
HETATM   19  C   UNL     1      44.746 -21.745   3.078  1.00  0.00     0.002 A 
HETATM   20  C   UNL     1      43.918 -21.797   1.960  1.00  0.00     0.001 A 
HETATM   21  H   UNL     1      44.391 -17.971   4.913  1.00  0.00     0.165 HD
HETATM   22  C   UNL     1      42.988 -17.507   3.389  1.00  0.00     0.096 A 
ENDBRANCH  12  13
ENDBRANCH  11  12
ENDBRANCH   8  11
ENDBRANCH   5   7
BRANCH   3  23
HETATM   23  C   UNL     1      40.950 -11.185   3.217  1.00  0.00     0.197 C 
HETATM   24  C   UNL     1      40.457 -10.661   1.838  1.00  0.00     0.017 C 
HETATM   25  C   UNL     1      39.067 -11.219   1.477  1.00  0.00     0.011 C 
HETATM   26  C   UNL     1      40.354  -9.122   1.917  1.00  0.00     0.011 C 
HETATM   27  C   UNL     1      38.042 -10.828   2.551  1.00  0.00    -0.013 C 
HETATM   28  C   UNL     1      38.496 -11.380   3.911  1.00  0.00     0.011 C 
HETATM   29  C   UNL     1      37.956  -9.294   2.629  1.00  0.00     0.009 C 
HETATM   30  C   UNL     1      39.879 -10.811   4.282  1.00  0.00     0.017 C 
HETATM   31  C   UNL     1      39.774  -9.272   4.348  1.00  0.00     0.011 C 
HETATM   32  C   UNL     1      39.331  -8.710   2.989  1.00  0.00    -0.013 C 
ENDBRANCH   3  23
BRANCH   1  33
HETATM   33  N   UNL     1      43.345 -14.274   5.797  1.00  0.00    -0.276 N 
HETATM   34  N   UNL     1      44.291 -13.883   6.660  1.00  0.00     0.005 NA
HETATM   35  N   UNL     1      44.445 -14.857   7.547  1.00  0.00    -0.152 NA
HETATM   36  C   UNL     1      43.570 -15.871   7.236  1.00  0.00     0.166 A 
HETATM   37  C   UNL     1      42.863 -15.505   6.105  1.00  0.00     0.147 A 
BRANCH  36  38
HETATM   38  C   UNL     1      43.423 -17.101   7.998  1.00  0.00     0.314 C 
HETATM   39  O   UNL     1      43.576 -17.147   9.214  1.00  0.00    -0.257 OA
BRANCH  38  40
HETATM   40  O   UNL     1      43.117 -18.173   7.214  1.00  0.00    -0.321 OA
HETATM   41  C   UNL     1      43.833 -19.363   7.542  1.00  0.00     0.213 C 
ENDBRANCH  38  40
ENDBRANCH  36  38
ENDBRANCH   1  33
TORSDOF 8
ENDMDL
MODEL 5
REMARK VINA RESULT:      -8.3      2.747      3.959
REMARK  8 active torsions:
REMARK  status: ('A' for Active; 'I' for Inactive)
REMARK    1  A    between atoms: O_2  and  C_3 
REMARK    2  A    between atoms: C_3  and  C_4 
REMARK    3  A    between atoms: N_7  and  C_8 
REMARK    4  A    between atoms: N_10  and  C_12 
REMARK    5  A    between atoms: C_22  and  C_23 
REMARK       I    between atoms: C_23  and  N_24 
REMARK    6  A    between atoms: N_24  and  C_25 
REMARK    7  A    between atoms: C_25  and  C_26 
REMARK    8  A    between atoms: C_26  and  C_27 
ROOT
HETATM    1  C   UNL     1      42.889 -13.526   4.354  1.00  0.00     0.134 C 
HETATM    2  C   UNL     1      41.477 -14.088   4.334  1.00  0.00     0.263 C 
HETATM    3  N   UNL     1      41.121 -14.136   2.853  1.00  0.00    -0.051 N 
HETATM    4  H   UNL     1      40.551 -14.995   2.710  1.00  0.00     0.281 HD
HETATM    5  C   UNL     1      42.477 -14.467   2.151  1.00  0.00     0.281 C 
HETATM    6  C   UNL     1      43.563 -14.260   3.207  1.00  0.00     0.072 C 
ENDROOT
BRANCH   5   7
HETATM    7  C   UNL     1      42.435 -15.928   1.671  1.00  0.00     0.248 C 
HETATM    8  N   UNL     1      43.601 -16.644   1.752  1.00  0.00    -0.359 N 
HETATM    9  H   UNL     1      44.489 -16.188   1.931  1.00  0.00     0.162 HD
HETATM   10  O   UNL     1      41.365 -16.380   1.262  1.00  0.00    -0.271 OA
BRANCH   8  11
HETATM   11  C   UNL     1      43.640 -18.040   1.329  1.00  0.00     0.127 C 
BRANCH  11  12
HETATM   12  C   UNL     1      42.841 -18.953   2.261  1.00  0.00     0.060 C 
BRANCH  12  13
HETATM   13  C   UNL     1      43.436 -19.025   3.628  1.00  0.00    -0.029 A 
HETATM   14  C   UNL     1      42.925 -18.413   4.818  1.00  0.00    -0.002 A 
HETATM   15  C   UNL     1      43.797 -18.731   5.858  1.00  0.00     0.042 A 
HETATM   16  C   UNL     1      41.799 -17.613   5.108  1.00  0.00     0.014 A 
HETATM   17  C   UNL     1      43.605 -18.289   7.172  1.00  0.00     0.030 A 
HETATM   18  N   UNL     1      44.796 -19.513   5.327  1.00  0.00    -0.365 N 
HETATM   19  C   UNL     1      42.484 -17.497   7.433  1.00  0.00     0.002 A 
HETATM   20  C   UNL     1      41.592 -17.163   6.417  1.00  0.00     0.001 A 
HETATM   21  H   UNL     1      45.566 -19.897   5.858  1.00  0.00     0.165 HD
HETATM   22  C   UNL     1      44.590 -19.694   3.984  1.00  0.00     0.096 A 
ENDBRANCH  12  13
ENDBRANCH  11  12
ENDBRANCH   8  11
ENDBRANCH   5   7
BRANCH   3  23
HETATM   23  C   UNL     1      40.348 -12.947   2.295  1.00  0.00     0.197 C 
HETATM   24  C   UNL     1      40.755 -12.619   0.830  1.00  0.00     0.017 C 
HETATM   25  C   UNL     1      40.338 -13.738  -0.144  1.00  0.00     0.011 C 
HETATM   26  C   UNL     1      40.033 -11.319   0.410  1.00  0.00     0.011 C 
HETATM   27  C   UNL     1      38.819 -13.952  -0.088  1.00  0.00    -0.013 C 
HETATM   28  C   UNL     1      38.411 -14.323   1.347  1.00  0.00     0.011 C 
HETATM   29  C   UNL     1      38.111 -12.649  -0.497  1.00  0.00     0.009 C 
HETATM   30  C   UNL     1      38.813 -13.197   2.321  1.00  0.00     0.017 C 
HETATM   31  C   UNL     1      38.100 -11.898   1.890  1.00  0.00     0.011 C 
HETATM   32  C   UNL     1      38.509 -11.515   0.461  1.00  0.00    -0.013 C 
ENDBRANCH   3  23
BRANCH   1  33
HETATM   33  N   UNL     1      43.570 -13.699   5.610  1.00  0.00    -0.276 N 
HETATM   34  N   UNL     1      44.173 -14.862   5.893  1.00  0.00     0.005 NA
HETATM   35  N   UNL     1      44.775 -14.720   7.066  1.00  0.00    -0.152 NA
HETATM   36  C   UNL     1      44.551 -13.441   7.518  1.00  0.00     0.166 A 
HETATM   37  C   UNL     1      43.769 -12.780   6.588  1.00  0.00     0.147 A 
BRANCH  36  38
HETATM   38  C   UNL     1      45.077 -12.899   8.762  1.00  0.00     0.314 C 
HETATM   39  O   UNL     1      46.080 -12.194   8.803  1.00  0.00    -0.257 OA
BRANCH  38  40
HETATM   40  O   UNL     1      44.345 -13.271   9.849  1.00  0.00    -0.321 OA
HETATM   41  C   UNL     1      44.062 -12.207  10.757  1.00  0.00     0.213 C 
ENDBRANCH  38  40
ENDBRANCH  36  38
ENDBRANCH   1  33
TORSDOF 8
ENDMDL
MODEL 6
REMARK VINA RESULT:      -8.3      1.677      2.133
REMARK  8 active torsions:
REMARK  status: ('A' for Active; 'I' for Inactive)
REMARK    1  A    between atoms: O_2  and  C_3 
REMARK    2  A    between atoms: C_3  and  C_4 
REMARK    3  A    between atoms: N_7  and  C_8 
REMARK    4  A    between atoms: N_10  and  C_12 
REMARK    5  A    between atoms: C_22  and  C_23 
REMARK       I    between atoms: C_23  and  N_24 
REMARK    6  A    between atoms: N_24  and  C_25 
REMARK    7  A    between atoms: C_25  and  C_26 
REMARK    8  A    between atoms: C_26  and  C_27 
ROOT
HETATM    1  C   UNL     1      42.016 -12.631   5.799  1.00  0.00     0.134 C 
HETATM    2  C   UNL     1      40.683 -13.308   5.523  1.00  0.00     0.263 C 
HETATM    3  N   UNL     1      41.042 -14.462   4.595  1.00  0.00    -0.051 N 
HETATM    4  H   UNL     1      40.423 -15.258   4.855  1.00  0.00     0.281 HD
HETATM    5  C   UNL     1      42.456 -14.912   5.084  1.00  0.00     0.281 C 
HETATM    6  C   UNL     1      42.956 -13.806   6.013  1.00  0.00     0.072 C 
ENDROOT
BRANCH   5   7
HETATM    7  C   UNL     1      42.312 -16.248   5.833  1.00  0.00     0.248 C 
HETATM    8  N   UNL     1      43.310 -17.171   5.658  1.00  0.00    -0.359 N 
HETATM    9  H   UNL     1      44.004 -17.066   4.926  1.00  0.00     0.162 HD
HETATM   10  O   UNL     1      41.330 -16.411   6.559  1.00  0.00    -0.271 OA
BRANCH   8  11
HETATM   11  C   UNL     1      43.254 -18.458   6.345  1.00  0.00     0.127 C 
BRANCH  11  12
HETATM   12  C   UNL     1      44.599 -19.184   6.332  1.00  0.00     0.060 C 
BRANCH  12  13
HETATM   13  C   UNL     1      44.581 -20.391   5.454  1.00  0.00    -0.029 A 
HETATM   14  C   UNL     1      44.333 -20.421   4.043  1.00  0.00    -0.002 A 
HETATM   15  C   UNL     1      44.403 -21.753   3.635  1.00  0.00     0.042 A 
HETATM   16  C   UNL     1      44.051 -19.437   3.072  1.00  0.00     0.014 A 
HETATM   17  C   UNL     1      44.204 -22.153   2.309  1.00  0.00     0.030 A 
HETATM   18  N   UNL     1      44.692 -22.505   4.750  1.00  0.00    -0.365 N 
HETATM   19  C   UNL     1      43.925 -21.159   1.367  1.00  0.00     0.002 A 
HETATM   20  C   UNL     1      43.849 -19.819   1.740  1.00  0.00     0.001 A 
HETATM   21  H   UNL     1      44.809 -23.509   4.748  1.00  0.00     0.165 HD
HETATM   22  C   UNL     1      44.799 -21.695   5.851  1.00  0.00     0.096 A 
ENDBRANCH  12  13
ENDBRANCH  11  12
ENDBRANCH   8  11
ENDBRANCH   5   7
BRANCH   3  23
HETATM   23  C   UNL     1      40.898 -14.210   3.099  1.00  0.00     0.197 C 
HETATM   24  C   UNL     1      42.253 -14.346   2.348  1.00  0.00     0.017 C 
HETATM   25  C   UNL     1      42.772 -15.798   2.363  1.00  0.00     0.011 C 
HETATM   26  C   UNL     1      42.032 -13.929   0.877  1.00  0.00     0.011 C 
HETATM   27  C   UNL     1      41.746 -16.736   1.710  1.00  0.00    -0.013 C 
HETATM   28  C   UNL     1      40.416 -16.643   2.474  1.00  0.00     0.011 C 
HETATM   29  C   UNL     1      41.526 -16.303   0.251  1.00  0.00     0.009 C 
HETATM   30  C   UNL     1      39.886 -15.195   2.446  1.00  0.00     0.017 C 
HETATM   31  C   UNL     1      39.679 -14.777   0.974  1.00  0.00     0.011 C 
HETATM   32  C   UNL     1      41.007 -14.857   0.206  1.00  0.00    -0.013 C 
ENDBRANCH   3  23
BRANCH   1  33
HETATM   33  N   UNL     1      41.990 -11.720   6.913  1.00  0.00    -0.276 N 
HETATM   34  N   UNL     1      43.099 -11.510   7.634  1.00  0.00     0.005 NA
HETATM   35  N   UNL     1      42.813 -10.583   8.538  1.00  0.00    -0.152 NA
HETATM   36  C   UNL     1      41.503 -10.200   8.370  1.00  0.00     0.166 A 
HETATM   37  C   UNL     1      40.965 -10.935   7.328  1.00  0.00     0.147 A 
BRANCH  36  38
HETATM   38  C   UNL     1      40.831  -9.180   9.159  1.00  0.00     0.314 C 
HETATM   39  O   UNL     1      40.034  -8.386   8.670  1.00  0.00    -0.257 OA
BRANCH  38  40
HETATM   40  O   UNL     1      41.195  -9.204  10.471  1.00  0.00    -0.321 OA
HETATM   41  C   UNL     1      40.178  -9.678  11.353  1.00  0.00     0.213 C 
ENDBRANCH  38  40
ENDBRANCH  36  38
ENDBRANCH   1  33
TORSDOF 8
ENDMDL
MODEL 7
REMARK VINA RESULT:      -8.3      2.761      4.224
REMARK  8 active torsions:
REMARK  status: ('A' for Active; 'I' for Inactive)
REMARK    1  A    between atoms: O_2  and  C_3 
REMARK    2  A    between atoms: C_3  and  C_4 
REMARK    3  A    between atoms: N_7  and  C_8 
REMARK    4  A    between atoms: N_10  and  C_12 
REMARK    5  A    between atoms: C_22  and  C_23 
REMARK       I    between atoms: C_23  and  N_24 
REMARK    6  A    between atoms: N_24  and  C_25 
REMARK    7  A    between atoms: C_25  and  C_26 
REMARK    8  A    between atoms: C_26  and  C_27 
ROOT
HETATM    1  C   UNL     1      41.012 -11.582   2.808  1.00  0.00     0.134 C 
HETATM    2  C   UNL     1      40.095 -11.538   1.597  1.00  0.00     0.263 C 
HETATM    3  N   UNL     1      41.001 -11.925   0.435  1.00  0.00    -0.051 N 
HETATM    4  H   UNL     1      40.425 -12.499  -0.216  1.00  0.00     0.281 HD
HETATM    5  C   UNL     1      41.995 -12.955   1.061  1.00  0.00     0.281 C 
HETATM    6  C   UNL     1      41.822 -12.846   2.576  1.00  0.00     0.072 C 
ENDROOT
BRANCH   5   7
HETATM    7  C   UNL     1      41.625 -14.360   0.556  1.00  0.00     0.248 C 
HETATM    8  N   UNL     1      42.368 -15.409   1.033  1.00  0.00    -0.359 N 
HETATM    9  H   UNL     1      43.236 -15.256   1.534  1.00  0.00     0.162 HD
HETATM   10  O   UNL     1      40.680 -14.473  -0.226  1.00  0.00    -0.271 OA
BRANCH   8  11
HETATM   11  C   UNL     1      42.071 -16.775   0.612  1.00  0.00     0.127 C 
BRANCH  11  12
HETATM   12  C   UNL     1      41.249 -17.539   1.652  1.00  0.00     0.060 C 
BRANCH  12  13
HETATM   13  C   UNL     1      42.029 -17.821   2.892  1.00  0.00    -0.029 A 
HETATM   14  C   UNL     1      43.039 -18.823   3.061  1.00  0.00    -0.002 A 
HETATM   15  C   UNL     1      43.494 -18.740   4.376  1.00  0.00     0.042 A 
HETATM   16  C   UNL     1      43.607 -19.799   2.215  1.00  0.00     0.014 A 
HETATM   17  C   UNL     1      44.486 -19.582   4.891  1.00  0.00     0.030 A 
HETATM   18  N   UNL     1      42.798 -17.721   4.984  1.00  0.00    -0.365 N 
HETATM   19  C   UNL     1      45.031 -20.541   4.034  1.00  0.00     0.002 A 
HETATM   20  C   UNL     1      44.601 -20.651   2.714  1.00  0.00     0.001 A 
HETATM   21  H   UNL     1      42.929 -17.432   5.944  1.00  0.00     0.165 HD
HETATM   22  C   UNL     1      41.912 -17.163   4.101  1.00  0.00     0.096 A 
ENDBRANCH  12  13
ENDBRANCH  11  12
ENDBRANCH   8  11
ENDBRANCH   5   7
BRANCH   3  23
HETATM   23  C   UNL     1      41.626 -10.783  -0.357  1.00  0.00     0.197 C 
HETATM   24  C   UNL     1      42.965 -11.201  -1.030  1.00  0.00     0.017 C 
HETATM   25  C   UNL     1      42.746 -12.253  -2.135  1.00  0.00     0.011 C 
HETATM   26  C   UNL     1      43.590  -9.945  -1.677  1.00  0.00     0.011 C 
HETATM   27  C   UNL     1      41.799 -11.704  -3.212  1.00  0.00    -0.013 C 
HETATM   28  C   UNL     1      40.456 -11.330  -2.564  1.00  0.00     0.011 C 
HETATM   29  C   UNL     1      42.427 -10.448  -3.840  1.00  0.00     0.009 C 
HETATM   30  C   UNL     1      40.671 -10.266  -1.470  1.00  0.00     0.017 C 
HETATM   31  C   UNL     1      41.308  -9.018  -2.118  1.00  0.00     0.011 C 
HETATM   32  C   UNL     1      42.656  -9.380  -2.759  1.00  0.00    -0.013 C 
ENDBRANCH   3  23
BRANCH   1  33
HETATM   33  N   UNL     1      40.318 -11.582   4.069  1.00  0.00    -0.276 N 
HETATM   34  N   UNL     1      39.080 -12.086   4.153  1.00  0.00     0.005 NA
HETATM   35  N   UNL     1      38.714 -12.027   5.426  1.00  0.00    -0.152 NA
HETATM   36  C   UNL     1      39.749 -11.485   6.152  1.00  0.00     0.166 A 
HETATM   37  C   UNL     1      40.783 -11.189   5.281  1.00  0.00     0.147 A 
BRANCH  36  38
HETATM   38  C   UNL     1      39.735 -11.285   7.592  1.00  0.00     0.314 C 
HETATM   39  O   UNL     1      39.094 -12.003   8.352  1.00  0.00    -0.257 OA
BRANCH  38  40
HETATM   40  O   UNL     1      40.491 -10.221   7.983  1.00  0.00    -0.321 OA
HETATM   41  C   UNL     1      41.323 -10.477   9.114  1.00  0.00     0.213 C 
ENDBRANCH  38  40
ENDBRANCH  36  38
ENDBRANCH   1  33
TORSDOF 8
ENDMDL
MODEL 8
REMARK VINA RESULT:      -8.1      3.402      5.414
REMARK  8 active torsions:
REMARK  status: ('A' for Active; 'I' for Inactive)
REMARK    1  A    between atoms: O_2  and  C_3 
REMARK    2  A    between atoms: C_3  and  C_4 
REMARK    3  A    between atoms: N_7  and  C_8 
REMARK    4  A    between atoms: N_10  and  C_12 
REMARK    5  A    between atoms: C_22  and  C_23 
REMARK       I    between atoms: C_23  and  N_24 
REMARK    6  A    between atoms: N_24  and  C_25 
REMARK    7  A    between atoms: C_25  and  C_26 
REMARK    8  A    between atoms: C_26  and  C_27 
ROOT
HETATM    1  C   UNL     1      41.440 -13.292   4.888  1.00  0.00     0.134 C 
HETATM    2  C   UNL     1      40.133 -13.274   4.111  1.00  0.00     0.263 C 
HETATM    3  N   UNL     1      40.300 -12.115   3.137  1.00  0.00    -0.051 N 
HETATM    4  H   UNL     1      39.835 -12.400   2.250  1.00  0.00     0.281 HD
HETATM    5  C   UNL     1      41.822 -12.138   2.784  1.00  0.00     0.281 C 
HETATM    6  C   UNL     1      42.481 -13.065   3.805  1.00  0.00     0.072 C 
ENDROOT
BRANCH   5   7
HETATM    7  C   UNL     1      41.984 -12.679   1.352  1.00  0.00     0.248 C 
HETATM    8  N   UNL     1      41.268 -13.802   1.026  1.00  0.00    -0.359 N 
HETATM    9  H   UNL     1      40.813 -14.362   1.737  1.00  0.00     0.162 HD
HETATM   10  O   UNL     1      42.722 -12.071   0.576  1.00  0.00    -0.271 OA
BRANCH   8  11
HETATM   11  C   UNL     1      41.357 -14.368  -0.316  1.00  0.00     0.127 C 
BRANCH  11  12
HETATM   12  C   UNL     1      41.109 -15.877  -0.330  1.00  0.00     0.060 C 
BRANCH  12  13
HETATM   13  C   UNL     1      41.161 -16.470   1.039  1.00  0.00    -0.029 A 
HETATM   14  C   UNL     1      42.221 -17.261   1.591  1.00  0.00    -0.002 A 
HETATM   15  C   UNL     1      41.848 -17.611   2.888  1.00  0.00     0.042 A 
HETATM   16  C   UNL     1      43.465 -17.716   1.105  1.00  0.00     0.014 A 
HETATM   17  C   UNL     1      42.652 -18.393   3.725  1.00  0.00     0.030 A 
HETATM   18  N   UNL     1      40.615 -17.048   3.123  1.00  0.00    -0.365 N 
HETATM   19  C   UNL     1      43.878 -18.833   3.219  1.00  0.00     0.002 A 
HETATM   20  C   UNL     1      44.282 -18.501   1.928  1.00  0.00     0.001 A 
HETATM   21  H   UNL     1      40.104 -17.132   3.991  1.00  0.00     0.165 HD
HETATM   22  C   UNL     1      40.191 -16.361   2.015  1.00  0.00     0.096 A 
ENDBRANCH  12  13
ENDBRANCH  11  12
ENDBRANCH   8  11
ENDBRANCH   5   7
BRANCH   3  23
HETATM   23  C   UNL     1      39.730 -10.769   3.567  1.00  0.00     0.197 C 
HETATM   24  C   UNL     1      40.246  -9.602   2.677  1.00  0.00     0.017 C 
HETATM   25  C   UNL     1      39.718  -9.708   1.232  1.00  0.00     0.011 C 
HETATM   26  C   UNL     1      39.736  -8.275   3.280  1.00  0.00     0.011 C 
HETATM   27  C   UNL     1      38.183  -9.696   1.225  1.00  0.00    -0.013 C 
HETATM   28  C   UNL     1      37.663 -10.873   2.066  1.00  0.00     0.011 C 
HETATM   29  C   UNL     1      37.687  -8.376   1.839  1.00  0.00     0.009 C 
HETATM   30  C   UNL     1      38.176 -10.761   3.515  1.00  0.00     0.017 C 
HETATM   31  C   UNL     1      37.675  -9.427   4.110  1.00  0.00     0.011 C 
HETATM   32  C   UNL     1      38.200  -8.244   3.282  1.00  0.00    -0.013 C 
ENDBRANCH   3  23
BRANCH   1  33
HETATM   33  N   UNL     1      41.660 -14.502   5.635  1.00  0.00    -0.276 N 
HETATM   34  N   UNL     1      40.726 -15.463   5.647  1.00  0.00     0.005 NA
HETATM   35  N   UNL     1      41.215 -16.480   6.343  1.00  0.00    -0.152 NA
HETATM   36  C   UNL     1      42.482 -16.152   6.763  1.00  0.00     0.166 A 
HETATM   37  C   UNL     1      42.772 -14.875   6.317  1.00  0.00     0.147 A 
BRANCH  36  38
HETATM   38  C   UNL     1      43.353 -17.028   7.532  1.00  0.00     0.314 C 
HETATM   39  O   UNL     1      43.523 -16.895   8.739  1.00  0.00    -0.257 OA
BRANCH  38  40
HETATM   40  O   UNL     1      43.951 -17.981   6.764  1.00  0.00    -0.321 OA
HETATM   41  C   UNL     1      43.714 -19.319   7.201  1.00  0.00     0.213 C 
ENDBRANCH  38  40
ENDBRANCH  36  38
ENDBRANCH   1  33
TORSDOF 8
ENDMDL
MODEL 9
REMARK VINA RESULT:      -8.1      2.885      6.464
REMARK  8 active torsions:
REMARK  status: ('A' for Active; 'I' for Inactive)
REMARK    1  A    between atoms: O_2  and  C_3 
REMARK    2  A    between atoms: C_3  and  C_4 
REMARK    3  A    between atoms: N_7  and  C_8 
REMARK    4  A    between atoms: N_10  and  C_12 
REMARK    5  A    between atoms: C_22  and  C_23 
REMARK       I    between atoms: C_23  and  N_24 
REMARK    6  A    between atoms: N_24  and  C_25 
REMARK    7  A    between atoms: C_25  and  C_26 
REMARK    8  A    between atoms: C_26  and  C_27 
ROOT
HETATM    1  C   UNL     1      42.440 -13.865   5.667  1.00  0.00     0.134 C 
HETATM    2  C   UNL     1      41.089 -13.203   5.882  1.00  0.00     0.263 C 
HETATM    3  N   UNL     1      41.179 -11.912   5.078  1.00  0.00    -0.051 N 
HETATM    4  H   UNL     1      40.236 -11.751   4.666  1.00  0.00     0.281 HD
HETATM    5  C   UNL     1      42.063 -12.296   3.849  1.00  0.00     0.281 C 
HETATM    6  C   UNL     1      42.691 -13.649   4.184  1.00  0.00     0.072 C 
ENDROOT
BRANCH   5   7
HETATM    7  C   UNL     1      41.160 -12.391   2.607  1.00  0.00     0.248 C 
HETATM    8  N   UNL     1      41.586 -13.202   1.587  1.00  0.00    -0.359 N 
HETATM    9  H   UNL     1      42.532 -13.565   1.562  1.00  0.00     0.162 HD
HETATM   10  O   UNL     1      40.103 -11.758   2.600  1.00  0.00    -0.271 OA
BRANCH   8  11
HETATM   11  C   UNL     1      40.778 -13.356   0.381  1.00  0.00     0.127 C 
BRANCH  11  12
HETATM   12  C   UNL     1      40.233 -14.776   0.223  1.00  0.00     0.060 C 
BRANCH  12  13
HETATM   13  C   UNL     1      40.600 -15.654   1.373  1.00  0.00    -0.029 A 
HETATM   14  C   UNL     1      41.731 -16.529   1.457  1.00  0.00    -0.002 A 
HETATM   15  C   UNL     1      41.678 -17.161   2.699  1.00  0.00     0.042 A 
HETATM   16  C   UNL     1      42.795 -16.847   0.587  1.00  0.00     0.014 A 
HETATM   17  C   UNL     1      42.633 -18.094   3.117  1.00  0.00     0.030 A 
HETATM   18  N   UNL     1      40.566 -16.683   3.352  1.00  0.00    -0.365 N 
HETATM   19  C   UNL     1      43.676 -18.393   2.237  1.00  0.00     0.002 A 
HETATM   20  C   UNL     1      43.760 -17.779   0.990  1.00  0.00     0.001 A 
HETATM   21  H   UNL     1      40.284 -16.964   4.281  1.00  0.00     0.165 HD
HETATM   22  C   UNL     1      39.908 -15.777   2.562  1.00  0.00     0.096 A 
ENDBRANCH  12  13
ENDBRANCH  11  12
ENDBRANCH   8  11
ENDBRANCH   5   7
BRANCH   3  23
HETATM   23  C   UNL     1      41.592 -10.658   5.838  1.00  0.00     0.197 C 
HETATM   24  C   UNL     1      41.130  -9.358   5.119  1.00  0.00     0.017 C 
HETATM   25  C   UNL     1      39.594  -9.220   5.118  1.00  0.00     0.011 C 
HETATM   26  C   UNL     1      41.721  -8.151   5.880  1.00  0.00     0.011 C 
HETATM   27  C   UNL     1      39.060  -9.208   6.557  1.00  0.00    -0.013 C 
HETATM   28  C   UNL     1      39.473 -10.510   7.262  1.00  0.00     0.011 C 
HETATM   29  C   UNL     1      39.665  -8.010   7.308  1.00  0.00     0.009 C 
HETATM   30  C   UNL     1      41.009 -10.642   7.280  1.00  0.00     0.017 C 
HETATM   31  C   UNL     1      41.596  -9.427   8.030  1.00  0.00     0.011 C 
HETATM   32  C   UNL     1      41.198  -8.122   7.325  1.00  0.00    -0.013 C 
ENDBRANCH   3  23
BRANCH   1  33
HETATM   33  N   UNL     1      42.481 -15.251   6.049  1.00  0.00    -0.276 N 
HETATM   34  N   UNL     1      41.342 -15.944   6.184  1.00  0.00     0.005 NA
HETATM   35  N   UNL     1      41.673 -17.197   6.466  1.00  0.00    -0.152 NA
HETATM   36  C   UNL     1      43.044 -17.289   6.497  1.00  0.00     0.166 A 
HETATM   37  C   UNL     1      43.571 -16.037   6.236  1.00  0.00     0.147 A 
BRANCH  36  38
HETATM   38  C   UNL     1      43.786 -18.515   6.748  1.00  0.00     0.314 C 
HETATM   39  O   UNL     1      43.595 -19.211   7.739  1.00  0.00    -0.257 OA
BRANCH  38  40
HETATM   40  O   UNL     1      44.705 -18.781   5.778  1.00  0.00    -0.321 OA
HETATM   41  C   UNL     1      44.721 -20.140   5.342  1.00  0.00     0.213 C 
ENDBRANCH  38  40
ENDBRANCH  36  38
ENDBRANCH   1  33
TORSDOF 8
ENDMDL
MODEL 10
REMARK VINA RESULT:      -8.0      1.484      2.127
REMARK  8 active torsions:
REMARK  status: ('A' for Active; 'I' for Inactive)
REMARK    1  A    between atoms: O_2  and  C_3 
REMARK    2  A    between atoms: C_3  and  C_4 
REMARK    3  A    between atoms: N_7  and  C_8 
REMARK    4  A    between atoms: N_10  and  C_12 
REMARK    5  A    between atoms: C_22  and  C_23 
REMARK       I    between atoms: C_23  and  N_24 
REMARK    6  A    between atoms: N_24  and  C_25 
REMARK    7  A    between atoms: C_25  and  C_26 
REMARK    8  A    between atoms: C_26  and  C_27 
ROOT
HETATM    1  C   UNL     1      40.297 -11.854   5.378  1.00  0.00     0.134 C 
HETATM    2  C   UNL     1      39.589 -13.157   5.041  1.00  0.00     0.263 C 
HETATM    3  N   UNL     1      40.414 -13.739   3.900  1.00  0.00    -0.051 N 
HETATM    4  H   UNL     1      40.424 -14.771   4.035  1.00  0.00     0.281 HD
HETATM    5  C   UNL     1      41.877 -13.304   4.234  1.00  0.00     0.281 C 
HETATM    6  C   UNL     1      41.765 -12.243   5.329  1.00  0.00     0.072 C 
ENDROOT
BRANCH   5   7
HETATM    7  C   UNL     1      42.653 -14.537   4.727  1.00  0.00     0.248 C 
HETATM    8  N   UNL     1      42.098 -15.765   4.475  1.00  0.00    -0.359 N 
HETATM    9  H   UNL     1      41.139 -15.855   4.161  1.00  0.00     0.162 HD
HETATM   10  O   UNL     1      43.731 -14.362   5.296  1.00  0.00    -0.271 OA
BRANCH   8  11
HETATM   11  C   UNL     1      42.780 -16.983   4.898  1.00  0.00     0.127 C 
BRANCH  11  12
HETATM   12  C   UNL     1      44.055 -17.247   4.095  1.00  0.00     0.060 C 
BRANCH  12  13
HETATM   13  C   UNL     1      43.963 -18.497   3.284  1.00  0.00    -0.029 A 
HETATM   14  C   UNL     1      44.253 -19.828   3.727  1.00  0.00    -0.002 A 
HETATM   15  C   UNL     1      44.044 -20.682   2.644  1.00  0.00     0.042 A 
HETATM   16  C   UNL     1      44.678 -20.388   4.950  1.00  0.00     0.014 A 
HETATM   17  C   UNL     1      44.239 -22.066   2.719  1.00  0.00     0.030 A 
HETATM   18  N   UNL     1      43.634 -19.905   1.586  1.00  0.00    -0.365 N 
HETATM   19  C   UNL     1      44.662 -22.595   3.941  1.00  0.00     0.002 A 
HETATM   20  C   UNL     1      44.878 -21.771   5.043  1.00  0.00     0.001 A 
HETATM   21  H   UNL     1      43.403 -20.263   0.669  1.00  0.00     0.165 HD
HETATM   22  C   UNL     1      43.585 -18.587   1.960  1.00  0.00     0.096 A 
ENDBRANCH  12  13
ENDBRANCH  11  12
ENDBRANCH   8  11
ENDBRANCH   5   7
BRANCH   3  23
HETATM   23  C   UNL     1      39.932 -13.444   2.485  1.00  0.00     0.197 C 
HETATM   24  C   UNL     1      41.108 -13.124   1.519  1.00  0.00     0.017 C 
HETATM   25  C   UNL     1      42.007 -14.354   1.284  1.00  0.00     0.011 C 
HETATM   26  C   UNL     1      40.512 -12.695   0.160  1.00  0.00     0.011 C 
HETATM   27  C   UNL     1      41.183 -15.509   0.697  1.00  0.00    -0.013 C 
HETATM   28  C   UNL     1      40.044 -15.864   1.665  1.00  0.00     0.011 C 
HETATM   29  C   UNL     1      40.585 -15.067  -0.650  1.00  0.00     0.009 C 
HETATM   30  C   UNL     1      39.135 -14.640   1.889  1.00  0.00     0.017 C 
HETATM   31  C   UNL     1      38.551 -14.207   0.527  1.00  0.00     0.011 C 
HETATM   32  C   UNL     1      39.683 -13.840  -0.445  1.00  0.00    -0.013 C 
ENDBRANCH   3  23
BRANCH   1  33
HETATM   33  N   UNL     1      39.907 -11.287   6.642  1.00  0.00    -0.276 N 
HETATM   34  N   UNL     1      39.152 -11.995   7.492  1.00  0.00     0.005 NA
HETATM   35  N   UNL     1      39.008 -11.269   8.592  1.00  0.00    -0.152 NA
HETATM   36  C   UNL     1      39.695 -10.090   8.429  1.00  0.00     0.166 A 
HETATM   37  C   UNL     1      40.271 -10.091   7.171  1.00  0.00     0.147 A 
BRANCH  36  38
HETATM   38  C   UNL     1      39.795  -9.043   9.434  1.00  0.00     0.314 C 
HETATM   39  O   UNL     1      39.232  -7.960   9.318  1.00  0.00    -0.257 OA
BRANCH  38  40
HETATM   40  O   UNL     1      40.581  -9.400  10.488  1.00  0.00    -0.321 OA
HETATM   41  C   UNL     1      41.190  -8.299  11.164  1.00  0.00     0.213 C 
ENDBRANCH  38  40
ENDBRANCH  36  38
ENDBRANCH   1  33
TORSDOF 8
ENDMDL
