MODEL 1
REMARK VINA RESULT:      -8.4      0.000      0.000
REMARK  6 active torsions:
REMARK  status: ('A' for Active; 'I' for Inactive)
REMARK    1  A    between atoms: C_2  and  S_3 
REMARK    2  A    between atoms: C_2  and  C_11 
REMARK    3  A    between atoms: S_3  and  C_4 
REMARK    4  A    between atoms: C_4  and  C_5 
REMARK       I    between atoms: C_11  and  N_12 
REMARK    5  A    between atoms: N_12  and  C_13 
REMARK    6  A    between atoms: C_15  and  C_16 
ROOT
HETATM    1  C   UNL     1      41.389 -16.258   4.052  1.00  0.00     0.235 C 
HETATM    2  N   UNL     1      40.536 -16.570   3.003  1.00  0.00    -0.326 N 
HETATM    3  O   UNL     1      41.964 -15.183   4.204  1.00  0.00    -0.272 OA
HETATM    4  H   UNL     1      40.276 -17.549   2.935  1.00  0.00     0.169 HD
ENDROOT
BRANCH   2   5
HETATM    5  C   UNL     1      40.103 -15.725   1.959  1.00  0.00     0.035 A 
HETATM    6  C   UNL     1      40.751 -15.617   0.724  1.00  0.00     0.042 A 
HETATM    7  C   UNL     1      40.279 -14.745  -0.272  1.00  0.00    -0.021 A 
HETATM    8  C   UNL     1      39.147 -13.965  -0.007  1.00  0.00     0.012 A 
HETATM    9  C   UNL     1      38.496 -14.061   1.223  1.00  0.00     0.003 A 
HETATM   10  C   UNL     1      38.973 -14.937   2.201  1.00  0.00     0.029 A 
BRANCH   7  11
HETATM   11  C   UNL     1      40.954 -14.641  -1.556  1.00  0.00     0.010 A 
HETATM   12  C   UNL     1      40.979 -15.517  -2.667  1.00  0.00     0.152 A 
HETATM   13  N   UNL     1      41.737 -15.064  -3.669  1.00  0.00    -0.187 NA
HETATM   14  N   UNL     1      42.201 -13.893  -3.206  1.00  0.00    -0.289 N 
HETATM   15  H   UNL     1      42.814 -13.347  -3.801  1.00  0.00     0.188 HD
HETATM   16  C   UNL     1      41.765 -13.596  -1.946  1.00  0.00     0.123 A 
ENDBRANCH   7  11
ENDBRANCH   2   5
BRANCH   1  17
HETATM   17  C   UNL     1      41.481 -17.376   5.110  1.00  0.00     0.135 C 
HETATM   18  C   UNL     1      40.738 -16.976   6.382  1.00  0.00     0.031 C 
BRANCH  17  19
HETATM   19  S   UNL     1      43.247 -17.786   5.445  1.00  0.00    -0.150 SA
BRANCH  19  20
HETATM   20  C   UNL     1      43.857 -17.954   3.738  1.00  0.00     0.113 C 
BRANCH  20  21
HETATM   21  C   UNL     1      44.026 -19.399   3.339  1.00  0.00    -0.049 A 
HETATM   22  C   UNL     1      44.655 -20.305   4.206  1.00  0.00     0.008 A 
HETATM   23  C   UNL     1      44.795 -21.647   3.851  1.00  0.00     0.001 A 
HETATM   24  C   UNL     1      44.312 -22.098   2.625  1.00  0.00     0.000 A 
HETATM   25  C   UNL     1      43.696 -21.205   1.749  1.00  0.00     0.001 A 
HETATM   26  C   UNL     1      43.556 -19.861   2.102  1.00  0.00     0.008 A 
ENDBRANCH  20  21
ENDBRANCH  19  20
ENDBRANCH  17  19
ENDBRANCH   1  17
TORSDOF 6
ENDMDL
MODEL 2
REMARK VINA RESULT:      -8.2      3.369      6.548
REMARK  6 active torsions:
REMARK  status: ('A' for Active; 'I' for Inactive)
REMARK    1  A    between atoms: C_2  and  S_3 
REMARK    2  A    between atoms: C_2  and  C_11 
REMARK    3  A    between atoms: S_3  and  C_4 
REMARK    4  A    between atoms: C_4  and  C_5 
REMARK       I    between atoms: C_11  and  N_12 
REMARK    5  A    between atoms: N_12  and  C_13 
REMARK    6  A    between atoms: C_15  and  C_16 
ROOT
HETATM    1  C   UNL     1      41.670 -15.244   5.689  1.00  0.00     0.235 C 
HETATM    2  N   UNL     1      42.890 -15.574   5.114  1.00  0.00    -0.326 N 
HETATM    3  O   UNL     1      40.967 -16.005   6.349  1.00  0.00    -0.272 OA
HETATM    4  H   UNL     1      43.261 -14.886   4.466  1.00  0.00     0.169 HD
ENDROOT
BRANCH   2   5
HETATM    5  C   UNL     1      43.595 -16.792   5.221  1.00  0.00     0.035 A 
HETATM    6  C   UNL     1      43.515 -17.824   4.280  1.00  0.00     0.042 A 
HETATM    7  C   UNL     1      44.231 -19.021   4.451  1.00  0.00    -0.021 A 
HETATM    8  C   UNL     1      45.026 -19.177   5.592  1.00  0.00     0.012 A 
HETATM    9  C   UNL     1      45.110 -18.156   6.539  1.00  0.00     0.003 A 
HETATM   10  C   UNL     1      44.397 -16.969   6.353  1.00  0.00     0.029 A 
BRANCH   7  11
HETATM   11  C   UNL     1      44.147 -20.090   3.467  1.00  0.00     0.010 A 
HETATM   12  C   UNL     1      44.638 -21.416   3.492  1.00  0.00     0.152 A 
HETATM   13  N   UNL     1      44.363 -22.092   2.372  1.00  0.00    -0.187 NA
HETATM   14  N   UNL     1      43.694 -21.201   1.624  1.00  0.00    -0.289 N 
HETATM   15  H   UNL     1      43.372 -21.487   0.706  1.00  0.00     0.188 HD
HETATM   16  C   UNL     1      43.542 -19.988   2.232  1.00  0.00     0.123 A 
ENDBRANCH   7  11
ENDBRANCH   2   5
BRANCH   1  17
HETATM   17  C   UNL     1      41.302 -13.757   5.514  1.00  0.00     0.135 C 
HETATM   18  C   UNL     1      39.789 -13.587   5.401  1.00  0.00     0.031 C 
BRANCH  17  19
HETATM   19  S   UNL     1      42.183 -13.054   4.055  1.00  0.00    -0.150 SA
BRANCH  19  20
HETATM   20  C   UNL     1      40.961 -13.409   2.753  1.00  0.00     0.113 C 
BRANCH  20  21
HETATM   21  C   UNL     1      41.120 -14.800   2.193  1.00  0.00    -0.049 A 
HETATM   22  C   UNL     1      40.116 -15.761   2.385  1.00  0.00     0.008 A 
HETATM   23  C   UNL     1      40.248 -17.043   1.851  1.00  0.00     0.001 A 
HETATM   24  C   UNL     1      41.388 -17.381   1.125  1.00  0.00     0.000 A 
HETATM   25  C   UNL     1      42.398 -16.440   0.938  1.00  0.00     0.001 A 
HETATM   26  C   UNL     1      42.268 -15.156   1.471  1.00  0.00     0.008 A 
ENDBRANCH  20  21
ENDBRANCH  19  20
ENDBRANCH  17  19
ENDBRANCH   1  17
TORSDOF 6
ENDMDL
MODEL 3
REMARK VINA RESULT:      -8.2      5.856      8.682
REMARK  6 active torsions:
REMARK  status: ('A' for Active; 'I' for Inactive)
REMARK    1  A    between atoms: C_2  and  S_3 
REMARK    2  A    between atoms: C_2  and  C_11 
REMARK    3  A    between atoms: S_3  and  C_4 
REMARK    4  A    between atoms: C_4  and  C_5 
REMARK       I    between atoms: C_11  and  N_12 
REMARK    5  A    between atoms: N_12  and  C_13 
REMARK    6  A    between atoms: C_15  and  C_16 
ROOT
HETATM    1  C   UNL     1      43.975 -15.733   7.011  1.00  0.00     0.235 C 
HETATM    2  N   UNL     1      44.547 -14.522   6.644  1.00  0.00    -0.326 N 
HETATM    3  O   UNL     1      43.892 -16.160   8.160  1.00  0.00    -0.272 OA
HETATM    4  H   UNL     1      44.684 -14.395   5.646  1.00  0.00     0.169 HD
ENDROOT
BRANCH   2   5
HETATM    5  C   UNL     1      45.074 -13.523   7.490  1.00  0.00     0.035 A 
HETATM    6  C   UNL     1      44.410 -13.024   8.614  1.00  0.00     0.042 A 
HETATM    7  C   UNL     1      44.983 -12.016   9.410  1.00  0.00    -0.021 A 
HETATM    8  C   UNL     1      46.235 -11.503   9.053  1.00  0.00     0.012 A 
HETATM    9  C   UNL     1      46.904 -11.990   7.930  1.00  0.00     0.003 A 
HETATM   10  C   UNL     1      46.325 -12.996   7.152  1.00  0.00     0.029 A 
BRANCH   7  11
HETATM   11  C   UNL     1      44.289 -11.504  10.582  1.00  0.00     0.010 A 
HETATM   12  C   UNL     1      43.901 -10.189  10.931  1.00  0.00     0.152 A 
HETATM   13  N   UNL     1      43.287 -10.126  12.116  1.00  0.00    -0.187 NA
HETATM   14  N   UNL     1      43.278 -11.403  12.532  1.00  0.00    -0.289 N 
HETATM   15  H   UNL     1      42.855 -11.615  13.429  1.00  0.00     0.188 HD
HETATM   16  C   UNL     1      43.868 -12.264  11.653  1.00  0.00     0.123 A 
ENDBRANCH   7  11
ENDBRANCH   2   5
BRANCH   1  17
HETATM   17  C   UNL     1      43.332 -16.482   5.826  1.00  0.00     0.135 C 
HETATM   18  C   UNL     1      41.971 -15.882   5.484  1.00  0.00     0.031 C 
BRANCH  17  19
HETATM   19  S   UNL     1      43.215 -18.282   6.205  1.00  0.00    -0.150 SA
BRANCH  19  20
HETATM   20  C   UNL     1      44.720 -18.875   5.370  1.00  0.00     0.113 C 
BRANCH  20  21
HETATM   21  C   UNL     1      44.401 -19.684   4.138  1.00  0.00    -0.049 A 
HETATM   22  C   UNL     1      44.786 -21.031   4.055  1.00  0.00     0.008 A 
HETATM   23  C   UNL     1      44.474 -21.790   2.927  1.00  0.00     0.001 A 
HETATM   24  C   UNL     1      43.778 -21.212   1.868  1.00  0.00     0.000 A 
HETATM   25  C   UNL     1      43.400 -19.872   1.933  1.00  0.00     0.001 A 
HETATM   26  C   UNL     1      43.712 -19.110   3.061  1.00  0.00     0.008 A 
ENDBRANCH  20  21
ENDBRANCH  19  20
ENDBRANCH  17  19
ENDBRANCH   1  17
TORSDOF 6
ENDMDL
MODEL 4
REMARK VINA RESULT:      -7.8      2.503      3.443
REMARK  6 active torsions:
REMARK  status: ('A' for Active; 'I' for Inactive)
REMARK    1  A    between atoms: C_2  and  S_3 
REMARK    2  A    between atoms: C_2  and  C_11 
REMARK    3  A    between atoms: S_3  and  C_4 
REMARK    4  A    between atoms: C_4  and  C_5 
REMARK       I    between atoms: C_11  and  N_12 
REMARK    5  A    between atoms: N_12  and  C_13 
REMARK    6  A    between atoms: C_15  and  C_16 
ROOT
HETATM    1  C   UNL     1      41.984 -17.212   5.340  1.00  0.00     0.235 C 
HETATM    2  N   UNL     1      42.422 -16.254   4.436  1.00  0.00    -0.326 N 
HETATM    3  O   UNL     1      40.980 -17.907   5.208  1.00  0.00    -0.272 OA
HETATM    4  H   UNL     1      43.172 -15.656   4.771  1.00  0.00     0.169 HD
ENDROOT
BRANCH   2   5
HETATM    5  C   UNL     1      41.866 -15.932   3.180  1.00  0.00     0.035 A 
HETATM    6  C   UNL     1      40.770 -15.080   3.009  1.00  0.00     0.042 A 
HETATM    7  C   UNL     1      40.251 -14.810   1.731  1.00  0.00    -0.021 A 
HETATM    8  C   UNL     1      40.842 -15.419   0.618  1.00  0.00     0.012 A 
HETATM    9  C   UNL     1      41.932 -16.274   0.778  1.00  0.00     0.003 A 
HETATM   10  C   UNL     1      42.441 -16.529   2.054  1.00  0.00     0.029 A 
BRANCH   7  11
HETATM   11  C   UNL     1      39.113 -13.919   1.558  1.00  0.00     0.010 A 
HETATM   12  C   UNL     1      38.893 -12.596   2.006  1.00  0.00     0.152 A 
HETATM   13  N   UNL     1      37.697 -12.118   1.648  1.00  0.00    -0.187 NA
HETATM   14  N   UNL     1      37.146 -13.135   0.967  1.00  0.00    -0.289 N 
HETATM   15  H   UNL     1      36.215 -13.011   0.585  1.00  0.00     0.188 HD
HETATM   16  C   UNL     1      37.950 -14.235   0.888  1.00  0.00     0.123 A 
ENDBRANCH   7  11
ENDBRANCH   2   5
BRANCH   1  17
HETATM   17  C   UNL     1      42.955 -17.418   6.521  1.00  0.00     0.135 C 
HETATM   18  C   UNL     1      44.124 -16.440   6.433  1.00  0.00     0.031 C 
BRANCH  17  19
HETATM   19  S   UNL     1      43.527 -19.169   6.572  1.00  0.00    -0.150 SA
BRANCH  19  20
HETATM   20  C   UNL     1      44.806 -19.117   5.277  1.00  0.00     0.113 C 
BRANCH  20  21
HETATM   21  C   UNL     1      44.475 -20.027   4.121  1.00  0.00    -0.049 A 
HETATM   22  C   UNL     1      43.823 -19.521   2.986  1.00  0.00     0.008 A 
HETATM   23  C   UNL     1      43.533 -20.354   1.904  1.00  0.00     0.001 A 
HETATM   24  C   UNL     1      43.887 -21.700   1.946  1.00  0.00     0.000 A 
HETATM   25  C   UNL     1      44.524 -22.217   3.073  1.00  0.00     0.001 A 
HETATM   26  C   UNL     1      44.814 -21.386   4.157  1.00  0.00     0.008 A 
ENDBRANCH  20  21
ENDBRANCH  19  20
ENDBRANCH  17  19
ENDBRANCH   1  17
TORSDOF 6
ENDMDL
MODEL 5
REMARK VINA RESULT:      -7.8      2.995      7.428
REMARK  6 active torsions:
REMARK  status: ('A' for Active; 'I' for Inactive)
REMARK    1  A    between atoms: C_2  and  S_3 
REMARK    2  A    between atoms: C_2  and  C_11 
REMARK    3  A    between atoms: S_3  and  C_4 
REMARK    4  A    between atoms: C_4  and  C_5 
REMARK       I    between atoms: C_11  and  N_12 
REMARK    5  A    between atoms: N_12  and  C_13 
REMARK    6  A    between atoms: C_15  and  C_16 
ROOT
HETATM    1  C   UNL     1      41.059 -16.561   1.341  1.00  0.00     0.235 C 
HETATM    2  N   UNL     1      42.407 -16.880   1.427  1.00  0.00    -0.326 N 
HETATM    3  O   UNL     1      40.148 -17.164   1.904  1.00  0.00    -0.272 OA
HETATM    4  H   UNL     1      43.009 -16.388   0.774  1.00  0.00     0.169 HD
ENDROOT
BRANCH   2   5
HETATM    5  C   UNL     1      43.008 -17.889   2.209  1.00  0.00     0.035 A 
HETATM    6  C   UNL     1      43.228 -17.780   3.586  1.00  0.00     0.042 A 
HETATM    7  C   UNL     1      43.846 -18.816   4.308  1.00  0.00    -0.021 A 
HETATM    8  C   UNL     1      44.257 -19.966   3.623  1.00  0.00     0.012 A 
HETATM    9  C   UNL     1      44.048 -20.082   2.249  1.00  0.00     0.003 A 
HETATM   10  C   UNL     1      43.426 -19.047   1.546  1.00  0.00     0.029 A 
BRANCH   7  11
HETATM   11  C   UNL     1      44.068 -18.700   5.741  1.00  0.00     0.010 A 
HETATM   12  C   UNL     1      45.127 -18.114   6.473  1.00  0.00     0.152 A 
HETATM   13  N   UNL     1      44.968 -18.225   7.796  1.00  0.00    -0.187 NA
HETATM   14  N   UNL     1      43.803 -18.882   7.916  1.00  0.00    -0.289 N 
HETATM   15  H   UNL     1      43.461 -19.090   8.848  1.00  0.00     0.188 HD
HETATM   16  C   UNL     1      43.228 -19.192   6.718  1.00  0.00     0.123 A 
ENDBRANCH   7  11
ENDBRANCH   2   5
BRANCH   1  17
HETATM   17  C   UNL     1      40.792 -15.273   0.535  1.00  0.00     0.135 C 
HETATM   18  C   UNL     1      41.174 -15.467  -0.931  1.00  0.00     0.031 C 
BRANCH  17  19
HETATM   19  S   UNL     1      41.688 -13.853   1.296  1.00  0.00    -0.150 SA
BRANCH  19  20
HETATM   20  C   UNL     1      40.797 -13.736   2.880  1.00  0.00     0.113 C 
BRANCH  20  21
HETATM   21  C   UNL     1      41.638 -14.215   4.036  1.00  0.00    -0.049 A 
HETATM   22  C   UNL     1      42.968 -13.788   4.171  1.00  0.00     0.008 A 
HETATM   23  C   UNL     1      43.744 -14.211   5.251  1.00  0.00     0.001 A 
HETATM   24  C   UNL     1      43.201 -15.068   6.205  1.00  0.00     0.000 A 
HETATM   25  C   UNL     1      41.885 -15.509   6.077  1.00  0.00     0.001 A 
HETATM   26  C   UNL     1      41.107 -15.088   4.996  1.00  0.00     0.008 A 
ENDBRANCH  20  21
ENDBRANCH  19  20
ENDBRANCH  17  19
ENDBRANCH   1  17
TORSDOF 6
ENDMDL
MODEL 6
REMARK VINA RESULT:      -7.7      3.659      6.938
REMARK  6 active torsions:
REMARK  status: ('A' for Active; 'I' for Inactive)
REMARK    1  A    between atoms: C_2  and  S_3 
REMARK    2  A    between atoms: C_2  and  C_11 
REMARK    3  A    between atoms: S_3  and  C_4 
REMARK    4  A    between atoms: C_4  and  C_5 
REMARK       I    between atoms: C_11  and  N_12 
REMARK    5  A    between atoms: N_12  and  C_13 
REMARK    6  A    between atoms: C_15  and  C_16 
ROOT
HETATM    1  C   UNL     1      41.545 -15.107   5.037  1.00  0.00     0.235 C 
HETATM    2  N   UNL     1      42.841 -15.503   5.339  1.00  0.00    -0.326 N 
HETATM    3  O   UNL     1      40.527 -15.742   5.302  1.00  0.00    -0.272 OA
HETATM    4  H   UNL     1      43.573 -14.948   4.907  1.00  0.00     0.169 HD
ENDROOT
BRANCH   2   5
HETATM    5  C   UNL     1      43.250 -16.649   6.053  1.00  0.00     0.035 A 
HETATM    6  C   UNL     1      43.588 -17.864   5.449  1.00  0.00     0.042 A 
HETATM    7  C   UNL     1      43.974 -18.976   6.218  1.00  0.00    -0.021 A 
HETATM    8  C   UNL     1      44.006 -18.856   7.612  1.00  0.00     0.012 A 
HETATM    9  C   UNL     1      43.665 -17.651   8.225  1.00  0.00     0.003 A 
HETATM   10  C   UNL     1      43.289 -16.552   7.448  1.00  0.00     0.029 A 
BRANCH   7  11
HETATM   11  C   UNL     1      44.330 -20.236   5.584  1.00  0.00     0.010 A 
HETATM   12  C   UNL     1      44.312 -21.562   6.077  1.00  0.00     0.152 A 
HETATM   13  N   UNL     1      44.731 -22.457   5.177  1.00  0.00    -0.187 NA
HETATM   14  N   UNL     1      45.019 -21.707   4.101  1.00  0.00    -0.289 N 
HETATM   15  H   UNL     1      45.364 -22.171   3.268  1.00  0.00     0.188 HD
HETATM   16  C   UNL     1      44.800 -20.373   4.295  1.00  0.00     0.123 A 
ENDBRANCH   7  11
ENDBRANCH   2   5
BRANCH   1  17
HETATM   17  C   UNL     1      41.474 -13.699   4.411  1.00  0.00     0.135 C 
HETATM   18  C   UNL     1      40.099 -13.452   3.794  1.00  0.00     0.031 C 
BRANCH  17  19
HETATM   19  S   UNL     1      42.828 -13.485   3.179  1.00  0.00    -0.150 SA
BRANCH  19  20
HETATM   20  C   UNL     1      42.090 -14.346   1.754  1.00  0.00     0.113 C 
BRANCH  20  21
HETATM   21  C   UNL     1      42.437 -15.814   1.740  1.00  0.00    -0.049 A 
HETATM   22  C   UNL     1      43.776 -16.226   1.819  1.00  0.00     0.008 A 
HETATM   23  C   UNL     1      44.101 -17.583   1.828  1.00  0.00     0.001 A 
HETATM   24  C   UNL     1      43.094 -18.542   1.754  1.00  0.00     0.000 A 
HETATM   25  C   UNL     1      41.761 -18.145   1.663  1.00  0.00     0.001 A 
HETATM   26  C   UNL     1      41.433 -16.788   1.653  1.00  0.00     0.008 A 
ENDBRANCH  20  21
ENDBRANCH  19  20
ENDBRANCH  17  19
ENDBRANCH   1  17
TORSDOF 6
ENDMDL
MODEL 7
REMARK VINA RESULT:      -7.7      3.259      6.765
REMARK  6 active torsions:
REMARK  status: ('A' for Active; 'I' for Inactive)
REMARK    1  A    between atoms: C_2  and  S_3 
REMARK    2  A    between atoms: C_2  and  C_11 
REMARK    3  A    between atoms: S_3  and  C_4 
REMARK    4  A    between atoms: C_4  and  C_5 
REMARK       I    between atoms: C_11  and  N_12 
REMARK    5  A    between atoms: N_12  and  C_13 
REMARK    6  A    between atoms: C_15  and  C_16 
ROOT
HETATM    1  C   UNL     1      40.727 -14.443   3.221  1.00  0.00     0.235 C 
HETATM    2  N   UNL     1      42.105 -14.555   3.342  1.00  0.00    -0.326 N 
HETATM    3  O   UNL     1      39.913 -14.691   4.107  1.00  0.00    -0.272 OA
HETATM    4  H   UNL     1      42.623 -14.474   2.472  1.00  0.00     0.169 HD
ENDROOT
BRANCH   2   5
HETATM    5  C   UNL     1      42.847 -14.898   4.493  1.00  0.00     0.035 A 
HETATM    6  C   UNL     1      42.903 -16.189   5.027  1.00  0.00     0.042 A 
HETATM    7  C   UNL     1      43.649 -16.466   6.186  1.00  0.00    -0.021 A 
HETATM    8  C   UNL     1      44.333 -15.419   6.815  1.00  0.00     0.012 A 
HETATM    9  C   UNL     1      44.280 -14.127   6.293  1.00  0.00     0.003 A 
HETATM   10  C   UNL     1      43.539 -13.868   5.137  1.00  0.00     0.029 A 
BRANCH   7  11
HETATM   11  C   UNL     1      43.708 -17.812   6.735  1.00  0.00     0.010 A 
HETATM   12  C   UNL     1      43.727 -19.075   6.098  1.00  0.00     0.152 A 
HETATM   13  N   UNL     1      43.772 -20.092   6.963  1.00  0.00    -0.187 NA
HETATM   14  N   UNL     1      43.784 -19.484   8.160  1.00  0.00    -0.289 N 
HETATM   15  H   UNL     1      43.817 -20.061   8.994  1.00  0.00     0.188 HD
HETATM   16  C   UNL     1      43.743 -18.122   8.078  1.00  0.00     0.123 A 
ENDBRANCH   7  11
ENDBRANCH   2   5
BRANCH   1  17
HETATM   17  C   UNL     1      40.285 -13.859   1.864  1.00  0.00     0.135 C 
HETATM   18  C   UNL     1      38.887 -14.349   1.496  1.00  0.00     0.031 C 
BRANCH  17  19
HETATM   19  S   UNL     1      41.523 -14.275   0.563  1.00  0.00    -0.150 SA
BRANCH  19  20
HETATM   20  C   UNL     1      41.097 -16.022   0.275  1.00  0.00     0.113 C 
BRANCH  20  21
HETATM   21  C   UNL     1      42.050 -16.957   0.975  1.00  0.00    -0.049 A 
HETATM   22  C   UNL     1      43.431 -16.709   0.953  1.00  0.00     0.008 A 
HETATM   23  C   UNL     1      44.316 -17.559   1.618  1.00  0.00     0.001 A 
HETATM   24  C   UNL     1      43.832 -18.670   2.305  1.00  0.00     0.000 A 
HETATM   25  C   UNL     1      42.464 -18.934   2.323  1.00  0.00     0.001 A 
HETATM   26  C   UNL     1      41.576 -18.085   1.659  1.00  0.00     0.008 A 
ENDBRANCH  20  21
ENDBRANCH  19  20
ENDBRANCH  17  19
ENDBRANCH   1  17
TORSDOF 6
ENDMDL
MODEL 8
REMARK VINA RESULT:      -7.6      1.583      2.045
REMARK  6 active torsions:
REMARK  status: ('A' for Active; 'I' for Inactive)
REMARK    1  A    between atoms: C_2  and  S_3 
REMARK    2  A    between atoms: C_2  and  C_11 
REMARK    3  A    between atoms: S_3  and  C_4 
REMARK    4  A    between atoms: C_4  and  C_5 
REMARK       I    between atoms: C_11  and  N_12 
REMARK    5  A    between atoms: N_12  and  C_13 
REMARK    6  A    between atoms: C_15  and  C_16 
ROOT
HETATM    1  C   UNL     1      40.873 -17.049   2.196  1.00  0.00     0.235 C 
HETATM    2  N   UNL     1      40.427 -15.735   2.257  1.00  0.00    -0.326 N 
HETATM    3  O   UNL     1      40.637 -17.837   1.284  1.00  0.00    -0.272 OA
HETATM    4  H   UNL     1      40.568 -15.273   3.149  1.00  0.00     0.169 HD
ENDROOT
BRANCH   2   5
HETATM    5  C   UNL     1      39.692 -15.026   1.283  1.00  0.00     0.035 A 
HETATM    6  C   UNL     1      40.235 -14.563   0.081  1.00  0.00     0.042 A 
HETATM    7  C   UNL     1      39.454 -13.848  -0.844  1.00  0.00    -0.021 A 
HETATM    8  C   UNL     1      38.112 -13.590  -0.538  1.00  0.00     0.012 A 
HETATM    9  C   UNL     1      37.562 -14.043   0.661  1.00  0.00     0.003 A 
HETATM   10  C   UNL     1      38.349 -14.757   1.567  1.00  0.00     0.029 A 
BRANCH   7  11
HETATM   11  C   UNL     1      40.022 -13.374  -2.096  1.00  0.00     0.010 A 
HETATM   12  C   UNL     1      41.296 -13.581  -2.675  1.00  0.00     0.152 A 
HETATM   13  N   UNL     1      41.441 -12.956  -3.848  1.00  0.00    -0.187 NA
HETATM   14  N   UNL     1      40.259 -12.346  -4.025  1.00  0.00    -0.289 N 
HETATM   15  H   UNL     1      40.122 -11.794  -4.865  1.00  0.00     0.188 HD
HETATM   16  C   UNL     1      39.378 -12.561  -3.004  1.00  0.00     0.123 A 
ENDBRANCH   7  11
ENDBRANCH   2   5
BRANCH   1  17
HETATM   17  C   UNL     1      41.812 -17.423   3.360  1.00  0.00     0.135 C 
HETATM   18  C   UNL     1      41.443 -16.645   4.621  1.00  0.00     0.031 C 
BRANCH  17  19
HETATM   19  S   UNL     1      43.568 -17.146   2.871  1.00  0.00    -0.150 SA
BRANCH  19  20
HETATM   20  C   UNL     1      43.833 -18.612   1.824  1.00  0.00     0.113 C 
BRANCH  20  21
HETATM   21  C   UNL     1      44.139 -19.841   2.641  1.00  0.00    -0.049 A 
HETATM   22  C   UNL     1      44.047 -21.117   2.064  1.00  0.00     0.008 A 
HETATM   23  C   UNL     1      44.350 -22.257   2.810  1.00  0.00     0.001 A 
HETATM   24  C   UNL     1      44.743 -22.136   4.140  1.00  0.00     0.000 A 
HETATM   25  C   UNL     1      44.827 -20.875   4.729  1.00  0.00     0.001 A 
HETATM   26  C   UNL     1      44.524 -19.733   3.985  1.00  0.00     0.008 A 
ENDBRANCH  20  21
ENDBRANCH  19  20
ENDBRANCH  17  19
ENDBRANCH   1  17
TORSDOF 6
ENDMDL
MODEL 9
REMARK VINA RESULT:      -7.6      2.126      3.050
REMARK  6 active torsions:
REMARK  status: ('A' for Active; 'I' for Inactive)
REMARK    1  A    between atoms: C_2  and  S_3 
REMARK    2  A    between atoms: C_2  and  C_11 
REMARK    3  A    between atoms: S_3  and  C_4 
REMARK    4  A    between atoms: C_4  and  C_5 
REMARK       I    between atoms: C_11  and  N_12 
REMARK    5  A    between atoms: N_12  and  C_13 
REMARK    6  A    between atoms: C_15  and  C_16 
ROOT
HETATM    1  C   UNL     1      41.100 -14.600   2.355  1.00  0.00     0.235 C 
HETATM    2  N   UNL     1      41.938 -14.244   1.308  1.00  0.00    -0.326 N 
HETATM    3  O   UNL     1      39.872 -14.553   2.331  1.00  0.00    -0.272 OA
HETATM    4  H   UNL     1      42.923 -14.183   1.546  1.00  0.00     0.169 HD
ENDROOT
BRANCH   2   5
HETATM    5  C   UNL     1      41.572 -13.833   0.009  1.00  0.00     0.035 A 
HETATM    6  C   UNL     1      40.793 -14.602  -0.861  1.00  0.00     0.042 A 
HETATM    7  C   UNL     1      40.474 -14.143  -2.151  1.00  0.00    -0.021 A 
HETATM    8  C   UNL     1      40.960 -12.898  -2.565  1.00  0.00     0.012 A 
HETATM    9  C   UNL     1      41.742 -12.124  -1.707  1.00  0.00     0.003 A 
HETATM   10  C   UNL     1      42.046 -12.591  -0.426  1.00  0.00     0.029 A 
BRANCH   7  11
HETATM   11  C   UNL     1      39.659 -14.946  -3.050  1.00  0.00     0.010 A 
HETATM   12  C   UNL     1      38.403 -14.686  -3.647  1.00  0.00     0.152 A 
HETATM   13  N   UNL     1      37.973 -15.694  -4.413  1.00  0.00    -0.187 NA
HETATM   14  N   UNL     1      38.954 -16.604  -4.310  1.00  0.00    -0.289 N 
HETATM   15  H   UNL     1      38.855 -17.479  -4.815  1.00  0.00     0.188 HD
HETATM   16  C   UNL     1      39.982 -16.207  -3.504  1.00  0.00     0.123 A 
ENDBRANCH   7  11
ENDBRANCH   2   5
BRANCH   1  17
HETATM   17  C   UNL     1      41.858 -15.181   3.566  1.00  0.00     0.135 C 
HETATM   18  C   UNL     1      43.366 -15.038   3.376  1.00  0.00     0.031 C 
BRANCH  17  19
HETATM   19  S   UNL     1      41.364 -16.936   3.839  1.00  0.00    -0.150 SA
BRANCH  19  20
HETATM   20  C   UNL     1      42.095 -17.699   2.356  1.00  0.00     0.113 C 
BRANCH  20  21
HETATM   21  C   UNL     1      42.997 -18.857   2.704  1.00  0.00    -0.049 A 
HETATM   22  C   UNL     1      43.102 -19.957   1.840  1.00  0.00     0.008 A 
HETATM   23  C   UNL     1      43.952 -21.022   2.146  1.00  0.00     0.001 A 
HETATM   24  C   UNL     1      44.700 -21.000   3.321  1.00  0.00     0.000 A 
HETATM   25  C   UNL     1      44.595 -19.918   4.193  1.00  0.00     0.001 A 
HETATM   26  C   UNL     1      43.745 -18.853   3.889  1.00  0.00     0.008 A 
ENDBRANCH  20  21
ENDBRANCH  19  20
ENDBRANCH  17  19
ENDBRANCH   1  17
TORSDOF 6
ENDMDL
MODEL 10
REMARK VINA RESULT:      -7.4      2.973      7.680
REMARK  6 active torsions:
REMARK  status: ('A' for Active; 'I' for Inactive)
REMARK    1  A    between atoms: C_2  and  S_3 
REMARK    2  A    between atoms: C_2  and  C_11 
REMARK    3  A    between atoms: S_3  and  C_4 
REMARK    4  A    between atoms: C_4  and  C_5 
REMARK       I    between atoms: C_11  and  N_12 
REMARK    5  A    between atoms: N_12  and  C_13 
REMARK    6  A    between atoms: C_15  and  C_16 
ROOT
HETATM    1  C   UNL     1      41.682 -15.642   4.183  1.00  0.00     0.235 C 
HETATM    2  N   UNL     1      42.969 -16.111   3.954  1.00  0.00    -0.326 N 
HETATM    3  O   UNL     1      40.864 -16.155   4.942  1.00  0.00    -0.272 OA
HETATM    4  H   UNL     1      43.456 -15.672   3.179  1.00  0.00     0.169 HD
ENDROOT
BRANCH   2   5
HETATM    5  C   UNL     1      43.616 -17.200   4.577  1.00  0.00     0.035 A 
HETATM    6  C   UNL     1      43.747 -18.464   3.994  1.00  0.00     0.042 A 
HETATM    7  C   UNL     1      44.390 -19.515   4.672  1.00  0.00    -0.021 A 
HETATM    8  C   UNL     1      44.893 -19.282   5.957  1.00  0.00     0.012 A 
HETATM    9  C   UNL     1      44.763 -18.026   6.549  1.00  0.00     0.003 A 
HETATM   10  C   UNL     1      44.127 -16.990   5.861  1.00  0.00     0.029 A 
BRANCH   7  11
HETATM   11  C   UNL     1      44.527 -20.827   4.059  1.00  0.00     0.010 A 
HETATM   12  C   UNL     1      44.422 -21.238   2.710  1.00  0.00     0.152 A 
HETATM   13  N   UNL     1      44.605 -22.553   2.552  1.00  0.00    -0.187 NA
HETATM   14  N   UNL     1      44.830 -22.990   3.801  1.00  0.00    -0.289 N 
HETATM   15  H   UNL     1      45.000 -23.980   3.942  1.00  0.00     0.188 HD
HETATM   16  C   UNL     1      44.790 -21.998   4.738  1.00  0.00     0.123 A 
ENDBRANCH   7  11
ENDBRANCH   2   5
BRANCH   1  17
HETATM   17  C   UNL     1      41.386 -14.313   3.459  1.00  0.00     0.135 C 
HETATM   18  C   UNL     1      40.548 -13.393   4.344  1.00  0.00     0.031 C 
BRANCH  17  19
HETATM   19  S   UNL     1      40.568 -14.642   1.841  1.00  0.00    -0.150 SA
BRANCH  19  20
HETATM   20  C   UNL     1      41.537 -13.532   0.771  1.00  0.00     0.113 C 
BRANCH  20  21
HETATM   21  C   UNL     1      41.505 -13.971  -0.672  1.00  0.00    -0.049 A 
HETATM   22  C   UNL     1      40.967 -15.218  -1.022  1.00  0.00     0.008 A 
HETATM   23  C   UNL     1      40.916 -15.620  -2.358  1.00  0.00     0.001 A 
HETATM   24  C   UNL     1      41.406 -14.782  -3.357  1.00  0.00     0.000 A 
HETATM   25  C   UNL     1      41.954 -13.545  -3.020  1.00  0.00     0.001 A 
HETATM   26  C   UNL     1      42.007 -13.142  -1.685  1.00  0.00     0.008 A 
ENDBRANCH  20  21
ENDBRANCH  19  20
ENDBRANCH  17  19
ENDBRANCH   1  17
TORSDOF 6
ENDMDL
