MODEL 1
REMARK VINA RESULT:      -9.0      0.000      0.000
REMARK  5 active torsions:
REMARK  status: ('A' for Active; 'I' for Inactive)
REMARK    1  A    between atoms: C_4  and  N_5 
REMARK       I    between atoms: N_5  and  C_6 
REMARK    2  A    between atoms: C_6  and  C_7 
REMARK    3  A    between atoms: N_9  and  C_10 
REMARK    4  A    between atoms: C_10  and  C_11 
REMARK    5  A    between atoms: C_14  and  O_15 
ROOT
HETATM    1  C   UNL     1      41.537 -15.423   0.979  1.00  0.00     0.105 C 
HETATM    2  C   UNL     1      41.307 -15.508  -0.521  1.00  0.00     0.140 C 
HETATM    3  N   UNL     1      40.736 -14.214  -0.813  1.00  0.00    -0.347 N 
HETATM    4  C   UNL     1      40.093 -13.674   0.286  1.00  0.00     0.221 C 
HETATM    5  O   UNL     1      39.429 -12.652   0.319  1.00  0.00    -0.273 OA
HETATM    6  C   UNL     1      40.355 -14.581   1.463  1.00  0.00     0.118 C 
ENDROOT
BRANCH   1   7
HETATM    7  C   UNL     1      41.622 -16.769   1.668  1.00  0.00     0.228 C 
HETATM    8  N   UNL     1      42.926 -17.083   1.992  1.00  0.00    -0.325 N 
HETATM    9  H   UNL     1      43.669 -16.435   1.732  1.00  0.00     0.169 HD
HETATM   10  O   UNL     1      40.636 -17.473   1.850  1.00  0.00    -0.273 OA
BRANCH   8  11
HETATM   11  C   UNL     1      43.445 -18.264   2.575  1.00  0.00     0.065 A 
HETATM   12  C   UNL     1      43.620 -19.463   1.876  1.00  0.00     0.038 A 
HETATM   13  C   UNL     1      44.158 -20.584   2.518  1.00  0.00    -0.059 A 
HETATM   14  C   UNL     1      44.316 -21.881   1.780  1.00  0.00     0.048 C 
HETATM   15  C   UNL     1      44.494 -20.497   3.873  1.00  0.00     0.020 A 
HETATM   16  C   UNL     1      44.319 -19.297   4.580  1.00  0.00    -0.005 A 
HETATM   17  C   UNL     1      43.788 -18.162   3.934  1.00  0.00     0.093 A 
HETATM   18  C   UNL     1      44.664 -19.186   5.934  1.00  0.00     0.015 A 
HETATM   19  N   UNL     1      43.609 -16.986   4.586  1.00  0.00    -0.258 NA
HETATM   20  C   UNL     1      43.954 -16.921   5.890  1.00  0.00     0.117 A 
HETATM   21  C   UNL     1      44.480 -17.981   6.601  1.00  0.00     0.020 A 
ENDBRANCH   8  11
ENDBRANCH   1   7
BRANCH   3  22
HETATM   22  C   UNL     1      40.727 -13.626  -2.136  1.00  0.00     0.164 C 
BRANCH  22  23
HETATM   23  C   UNL     1      39.457 -13.867  -2.910  1.00  0.00    -0.040 A 
HETATM   24  C   UNL     1      39.188 -15.126  -3.463  1.00  0.00     0.011 A 
HETATM   25  C   UNL     1      37.967 -15.375  -4.093  1.00  0.00     0.037 A 
HETATM   26  C   UNL     1      36.991 -14.381  -4.165  1.00  0.00     0.068 A 
HETATM   27  C   UNL     1      37.268 -13.111  -3.658  1.00  0.00     0.037 A 
HETATM   28  C   UNL     1      38.494 -12.857  -3.034  1.00  0.00     0.011 A 
BRANCH  26  29
HETATM   29  O   UNL     1      35.819 -14.752  -4.765  1.00  0.00    -0.356 OA
HETATM   30  C   UNL     1      34.901 -13.695  -5.024  1.00  0.00     0.210 C 
ENDBRANCH  26  29
ENDBRANCH  22  23
ENDBRANCH   3  22
TORSDOF 5
ENDMDL
MODEL 2
REMARK VINA RESULT:      -8.8      2.716      4.783
REMARK  5 active torsions:
REMARK  status: ('A' for Active; 'I' for Inactive)
REMARK    1  A    between atoms: C_4  and  N_5 
REMARK       I    between atoms: N_5  and  C_6 
REMARK    2  A    between atoms: C_6  and  C_7 
REMARK    3  A    between atoms: N_9  and  C_10 
REMARK    4  A    between atoms: C_10  and  C_11 
REMARK    5  A    between atoms: C_14  and  O_15 
ROOT
HETATM    1  C   UNL     1      40.695 -16.279   1.533  1.00  0.00     0.105 C 
HETATM    2  C   UNL     1      40.652 -14.767   1.386  1.00  0.00     0.140 C 
HETATM    3  N   UNL     1      40.536 -14.605  -0.044  1.00  0.00    -0.347 N 
HETATM    4  C   UNL     1      41.073 -15.679  -0.730  1.00  0.00     0.221 C 
HETATM    5  O   UNL     1      41.219 -15.781  -1.936  1.00  0.00    -0.273 OA
HETATM    6  C   UNL     1      41.460 -16.726   0.285  1.00  0.00     0.118 C 
ENDROOT
BRANCH   1   7
HETATM    7  C   UNL     1      41.337 -16.756   2.819  1.00  0.00     0.228 C 
HETATM    8  N   UNL     1      42.473 -17.497   2.566  1.00  0.00    -0.325 N 
HETATM    9  H   UNL     1      42.745 -17.669   1.599  1.00  0.00     0.169 HD
HETATM   10  O   UNL     1      40.846 -16.526   3.918  1.00  0.00    -0.273 OA
BRANCH   8  11
HETATM   11  C   UNL     1      43.320 -18.177   3.475  1.00  0.00     0.065 A 
HETATM   12  C   UNL     1      43.799 -17.612   4.661  1.00  0.00     0.038 A 
HETATM   13  C   UNL     1      44.616 -18.355   5.519  1.00  0.00    -0.059 A 
HETATM   14  C   UNL     1      45.160 -17.741   6.776  1.00  0.00     0.048 C 
HETATM   15  C   UNL     1      44.969 -19.661   5.163  1.00  0.00     0.020 A 
HETATM   16  C   UNL     1      44.492 -20.234   3.972  1.00  0.00    -0.005 A 
HETATM   17  C   UNL     1      43.658 -19.492   3.111  1.00  0.00     0.093 A 
HETATM   18  C   UNL     1      44.821 -21.546   3.605  1.00  0.00     0.015 A 
HETATM   19  N   UNL     1      43.177 -20.014   1.956  1.00  0.00    -0.258 NA
HETATM   20  C   UNL     1      43.518 -21.283   1.639  1.00  0.00     0.117 A 
HETATM   21  C   UNL     1      44.328 -22.080   2.421  1.00  0.00     0.020 A 
ENDBRANCH   8  11
ENDBRANCH   1   7
BRANCH   3  22
HETATM   22  C   UNL     1      40.038 -13.400  -0.673  1.00  0.00     0.164 C 
BRANCH  22  23
HETATM   23  C   UNL     1      41.090 -12.348  -0.912  1.00  0.00    -0.040 A 
HETATM   24  C   UNL     1      41.483 -11.486   0.120  1.00  0.00     0.011 A 
HETATM   25  C   UNL     1      42.529 -10.581  -0.075  1.00  0.00     0.037 A 
HETATM   26  C   UNL     1      43.207 -10.534  -1.293  1.00  0.00     0.068 A 
HETATM   27  C   UNL     1      42.793 -11.356  -2.341  1.00  0.00     0.037 A 
HETATM   28  C   UNL     1      41.741 -12.259  -2.150  1.00  0.00     0.011 A 
BRANCH  26  29
HETATM   29  O   UNL     1      44.242  -9.640  -1.354  1.00  0.00    -0.356 OA
HETATM   30  C   UNL     1      43.865  -8.267  -1.382  1.00  0.00     0.210 C 
ENDBRANCH  26  29
ENDBRANCH  22  23
ENDBRANCH   3  22
TORSDOF 5
ENDMDL
MODEL 3
REMARK VINA RESULT:      -8.7      2.199      3.800
REMARK  5 active torsions:
REMARK  status: ('A' for Active; 'I' for Inactive)
REMARK    1  A    between atoms: C_4  and  N_5 
REMARK       I    between atoms: N_5  and  C_6 
REMARK    2  A    between atoms: C_6  and  C_7 
REMARK    3  A    between atoms: N_9  and  C_10 
REMARK    4  A    between atoms: C_10  and  C_11 
REMARK    5  A    between atoms: C_14  and  O_15 
ROOT
HETATM    1  C   UNL     1      41.342 -15.611   0.680  1.00  0.00     0.105 C 
HETATM    2  C   UNL     1      41.351 -15.647  -0.840  1.00  0.00     0.140 C 
HETATM    3  N   UNL     1      40.654 -14.428  -1.175  1.00  0.00    -0.347 N 
HETATM    4  C   UNL     1      39.785 -14.038  -0.173  1.00  0.00     0.221 C 
HETATM    5  O   UNL     1      38.986 -13.118  -0.210  1.00  0.00    -0.273 OA
HETATM    6  C   UNL     1      39.994 -14.962   1.002  1.00  0.00     0.118 C 
ENDROOT
BRANCH   1   7
HETATM    7  C   UNL     1      41.512 -16.968   1.330  1.00  0.00     0.228 C 
HETATM    8  N   UNL     1      42.774 -17.107   1.872  1.00  0.00    -0.325 N 
HETATM    9  H   UNL     1      43.443 -16.345   1.768  1.00  0.00     0.169 HD
HETATM   10  O   UNL     1      40.629 -17.816   1.312  1.00  0.00    -0.273 OA
BRANCH   8  11
HETATM   11  C   UNL     1      43.359 -18.233   2.501  1.00  0.00     0.065 A 
HETATM   12  C   UNL     1      43.587 -19.452   1.855  1.00  0.00     0.038 A 
HETATM   13  C   UNL     1      44.189 -20.513   2.540  1.00  0.00    -0.059 A 
HETATM   14  C   UNL     1      44.405 -21.834   1.860  1.00  0.00     0.048 C 
HETATM   15  C   UNL     1      44.536 -20.347   3.884  1.00  0.00     0.020 A 
HETATM   16  C   UNL     1      44.308 -19.125   4.539  1.00  0.00    -0.005 A 
HETATM   17  C   UNL     1      43.713 -18.050   3.849  1.00  0.00     0.093 A 
HETATM   18  C   UNL     1      44.663 -18.935   5.881  1.00  0.00     0.015 A 
HETATM   19  N   UNL     1      43.481 -16.856   4.448  1.00  0.00    -0.258 NA
HETATM   20  C   UNL     1      43.838 -16.713   5.744  1.00  0.00     0.117 A 
HETATM   21  C   UNL     1      44.426 -17.711   6.495  1.00  0.00     0.020 A 
ENDBRANCH   8  11
ENDBRANCH   1   7
BRANCH   3  22
HETATM   22  C   UNL     1      40.759 -13.777  -2.465  1.00  0.00     0.164 C 
BRANCH  22  23
HETATM   23  C   UNL     1      41.558 -12.500  -2.448  1.00  0.00    -0.040 A 
HETATM   24  C   UNL     1      41.331 -11.506  -3.409  1.00  0.00     0.011 A 
HETATM   25  C   UNL     1      42.001 -10.282  -3.332  1.00  0.00     0.037 A 
HETATM   26  C   UNL     1      42.892 -10.027  -2.290  1.00  0.00     0.068 A 
HETATM   27  C   UNL     1      43.159 -11.027  -1.355  1.00  0.00     0.037 A 
HETATM   28  C   UNL     1      42.494 -12.256  -1.434  1.00  0.00     0.011 A 
BRANCH  26  29
HETATM   29  O   UNL     1      43.455  -8.780  -2.292  1.00  0.00    -0.356 OA
HETATM   30  C   UNL     1      44.070  -8.382  -1.071  1.00  0.00     0.210 C 
ENDBRANCH  26  29
ENDBRANCH  22  23
ENDBRANCH   3  22
TORSDOF 5
ENDMDL
MODEL 4
REMARK VINA RESULT:      -8.7      3.101      5.351
REMARK  5 active torsions:
REMARK  status: ('A' for Active; 'I' for Inactive)
REMARK    1  A    between atoms: C_4  and  N_5 
REMARK       I    between atoms: N_5  and  C_6 
REMARK    2  A    between atoms: C_6  and  C_7 
REMARK    3  A    between atoms: N_9  and  C_10 
REMARK    4  A    between atoms: C_10  and  C_11 
REMARK    5  A    between atoms: C_14  and  O_15 
ROOT
HETATM    1  C   UNL     1      40.934 -15.778   1.066  1.00  0.00     0.105 C 
HETATM    2  C   UNL     1      41.580 -14.737   1.966  1.00  0.00     0.140 C 
HETATM    3  N   UNL     1      41.564 -13.561   1.128  1.00  0.00    -0.347 N 
HETATM    4  C   UNL     1      41.567 -13.886  -0.216  1.00  0.00     0.221 C 
HETATM    5  O   UNL     1      41.664 -13.117  -1.157  1.00  0.00    -0.273 OA
HETATM    6  C   UNL     1      41.429 -15.384  -0.328  1.00  0.00     0.118 C 
ENDROOT
BRANCH   1   7
HETATM    7  C   UNL     1      41.278 -17.207   1.430  1.00  0.00     0.228 C 
HETATM    8  N   UNL     1      42.451 -17.271   2.154  1.00  0.00    -0.325 N 
HETATM    9  H   UNL     1      42.962 -16.409   2.341  1.00  0.00     0.169 HD
HETATM   10  O   UNL     1      40.593 -18.156   1.067  1.00  0.00    -0.273 OA
BRANCH   8  11
HETATM   11  C   UNL     1      43.153 -18.407   2.624  1.00  0.00     0.065 A 
HETATM   12  C   UNL     1      43.334 -19.573   1.874  1.00  0.00     0.038 A 
HETATM   13  C   UNL     1      44.058 -20.648   2.402  1.00  0.00    -0.059 A 
HETATM   14  C   UNL     1      44.226 -21.914   1.612  1.00  0.00     0.048 C 
HETATM   15  C   UNL     1      44.575 -20.550   3.698  1.00  0.00     0.020 A 
HETATM   16  C   UNL     1      44.395 -19.383   4.456  1.00  0.00    -0.005 A 
HETATM   17  C   UNL     1      43.676 -18.293   3.924  1.00  0.00     0.093 A 
HETATM   18  C   UNL     1      44.918 -19.260   5.751  1.00  0.00     0.015 A 
HETATM   19  N   UNL     1      43.486 -17.149   4.627  1.00  0.00    -0.258 NA
HETATM   20  C   UNL     1      44.007 -17.071   5.871  1.00  0.00     0.117 A 
HETATM   21  C   UNL     1      44.723 -18.088   6.470  1.00  0.00     0.020 A 
ENDBRANCH   8  11
ENDBRANCH   1   7
BRANCH   3  22
HETATM   22  C   UNL     1      41.671 -12.213   1.643  1.00  0.00     0.164 C 
BRANCH  22  23
HETATM   23  C   UNL     1      40.982 -12.002   2.967  1.00  0.00    -0.040 A 
HETATM   24  C   UNL     1      39.586 -11.915   3.037  1.00  0.00     0.011 A 
HETATM   25  C   UNL     1      38.945 -11.821   4.275  1.00  0.00     0.037 A 
HETATM   26  C   UNL     1      39.684 -11.829   5.458  1.00  0.00     0.068 A 
HETATM   27  C   UNL     1      41.077 -11.868   5.395  1.00  0.00     0.037 A 
HETATM   28  C   UNL     1      41.721 -11.955   4.157  1.00  0.00     0.011 A 
BRANCH  26  29
HETATM   29  O   UNL     1      38.947 -11.776   6.610  1.00  0.00    -0.356 OA
HETATM   30  C   UNL     1      39.643 -11.314   7.763  1.00  0.00     0.210 C 
ENDBRANCH  26  29
ENDBRANCH  22  23
ENDBRANCH   3  22
TORSDOF 5
ENDMDL
MODEL 5
REMARK VINA RESULT:      -8.5      3.042      8.943
REMARK  5 active torsions:
REMARK  status: ('A' for Active; 'I' for Inactive)
REMARK    1  A    between atoms: C_4  and  N_5 
REMARK       I    between atoms: N_5  and  C_6 
REMARK    2  A    between atoms: C_6  and  C_7 
REMARK    3  A    between atoms: N_9  and  C_10 
REMARK    4  A    between atoms: C_10  and  C_11 
REMARK    5  A    between atoms: C_14  and  O_15 
ROOT
HETATM    1  C   UNL     1      41.343 -13.500   3.472  1.00  0.00     0.105 C 
HETATM    2  C   UNL     1      41.209 -15.005   3.306  1.00  0.00     0.140 C 
HETATM    3  N   UNL     1      41.994 -15.502   4.411  1.00  0.00    -0.347 N 
HETATM    4  C   UNL     1      42.974 -14.604   4.792  1.00  0.00     0.221 C 
HETATM    5  O   UNL     1      43.855 -14.784   5.616  1.00  0.00    -0.273 OA
HETATM    6  C   UNL     1      42.769 -13.336   4.000  1.00  0.00     0.118 C 
ENDROOT
BRANCH   1   7
HETATM    7  C   UNL     1      41.092 -12.715   2.201  1.00  0.00     0.228 C 
HETATM    8  N   UNL     1      41.984 -13.068   1.210  1.00  0.00    -0.325 N 
HETATM    9  H   UNL     1      42.702 -13.762   1.417  1.00  0.00     0.169 HD
HETATM   10  O   UNL     1      40.224 -11.853   2.127  1.00  0.00    -0.273 OA
BRANCH   8  11
HETATM   11  C   UNL     1      42.136 -12.531  -0.091  1.00  0.00     0.065 A 
HETATM   12  C   UNL     1      42.634 -11.250  -0.348  1.00  0.00     0.038 A 
HETATM   13  C   UNL     1      42.775 -10.797  -1.665  1.00  0.00    -0.059 A 
HETATM   14  C   UNL     1      43.277  -9.410  -1.943  1.00  0.00     0.048 C 
HETATM   15  C   UNL     1      42.387 -11.632  -2.718  1.00  0.00     0.020 A 
HETATM   16  C   UNL     1      41.885 -12.919  -2.465  1.00  0.00    -0.005 A 
HETATM   17  C   UNL     1      41.753 -13.383  -1.141  1.00  0.00     0.093 A 
HETATM   18  C   UNL     1      41.506 -13.776  -3.508  1.00  0.00     0.015 A 
HETATM   19  N   UNL     1      41.276 -14.622  -0.861  1.00  0.00    -0.258 NA
HETATM   20  C   UNL     1      40.922 -15.417  -1.895  1.00  0.00     0.117 A 
HETATM   21  C   UNL     1      41.017 -15.044  -3.220  1.00  0.00     0.020 A 
ENDBRANCH   8  11
ENDBRANCH   1   7
BRANCH   3  22
HETATM   22  C   UNL     1      41.851 -16.836   4.955  1.00  0.00     0.164 C 
BRANCH  22  23
HETATM   23  C   UNL     1      42.699 -17.876   4.270  1.00  0.00    -0.040 A 
HETATM   24  C   UNL     1      43.631 -18.628   4.997  1.00  0.00     0.011 A 
HETATM   25  C   UNL     1      44.343 -19.659   4.381  1.00  0.00     0.037 A 
HETATM   26  C   UNL     1      44.124 -19.967   3.038  1.00  0.00     0.068 A 
HETATM   27  C   UNL     1      43.232 -19.195   2.294  1.00  0.00     0.037 A 
HETATM   28  C   UNL     1      42.523 -18.157   2.908  1.00  0.00     0.011 A 
BRANCH  26  29
HETATM   29  O   UNL     1      44.845 -21.025   2.554  1.00  0.00    -0.356 OA
HETATM   30  C   UNL     1      44.148 -21.883   1.657  1.00  0.00     0.210 C 
ENDBRANCH  26  29
ENDBRANCH  22  23
ENDBRANCH   3  22
TORSDOF 5
ENDMDL
MODEL 6
REMARK VINA RESULT:      -8.4      5.557      9.380
REMARK  5 active torsions:
REMARK  status: ('A' for Active; 'I' for Inactive)
REMARK    1  A    between atoms: C_4  and  N_5 
REMARK       I    between atoms: N_5  and  C_6 
REMARK    2  A    between atoms: C_6  and  C_7 
REMARK    3  A    between atoms: N_9  and  C_10 
REMARK    4  A    between atoms: C_10  and  C_11 
REMARK    5  A    between atoms: C_14  and  O_15 
ROOT
HETATM    1  C   UNL     1      40.618 -13.549   5.866  1.00  0.00     0.105 C 
HETATM    2  C   UNL     1      41.766 -12.570   6.045  1.00  0.00     0.140 C 
HETATM    3  N   UNL     1      41.090 -11.402   6.558  1.00  0.00    -0.347 N 
HETATM    4  C   UNL     1      39.767 -11.355   6.161  1.00  0.00     0.221 C 
HETATM    5  O   UNL     1      38.976 -10.445   6.344  1.00  0.00    -0.273 OA
HETATM    6  C   UNL     1      39.456 -12.647   5.445  1.00  0.00     0.118 C 
ENDROOT
BRANCH   1   7
HETATM    7  C   UNL     1      40.898 -14.654   4.869  1.00  0.00     0.228 C 
HETATM    8  N   UNL     1      42.037 -15.355   5.206  1.00  0.00    -0.325 N 
HETATM    9  H   UNL     1      42.568 -15.068   6.028  1.00  0.00     0.169 HD
HETATM   10  O   UNL     1      40.198 -14.832   3.879  1.00  0.00    -0.273 OA
BRANCH   8  11
HETATM   11  C   UNL     1      42.680 -16.407   4.510  1.00  0.00     0.065 A 
HETATM   12  C   UNL     1      42.911 -16.398   3.131  1.00  0.00     0.038 A 
HETATM   13  C   UNL     1      43.573 -17.468   2.518  1.00  0.00    -0.059 A 
HETATM   14  C   UNL     1      43.792 -17.477   1.033  1.00  0.00     0.048 C 
HETATM   15  C   UNL     1      43.976 -18.556   3.298  1.00  0.00     0.020 A 
HETATM   16  C   UNL     1      43.745 -18.572   4.683  1.00  0.00    -0.005 A 
HETATM   17  C   UNL     1      43.090 -17.491   5.306  1.00  0.00     0.093 A 
HETATM   18  C   UNL     1      44.156 -19.647   5.483  1.00  0.00     0.015 A 
HETATM   19  N   UNL     1      42.854 -17.471   6.642  1.00  0.00    -0.258 NA
HETATM   20  C   UNL     1      43.266 -18.526   7.378  1.00  0.00     0.117 A 
HETATM   21  C   UNL     1      43.913 -19.625   6.851  1.00  0.00     0.020 A 
ENDBRANCH   8  11
ENDBRANCH   1   7
BRANCH   3  22
HETATM   22  C   UNL     1      41.763 -10.346   7.285  1.00  0.00     0.164 C 
BRANCH  22  23
HETATM   23  C   UNL     1      42.089 -10.691   8.715  1.00  0.00    -0.040 A 
HETATM   24  C   UNL     1      43.407 -10.972   9.097  1.00  0.00     0.011 A 
HETATM   25  C   UNL     1      43.722 -11.194  10.440  1.00  0.00     0.037 A 
HETATM   26  C   UNL     1      42.733 -11.121  11.421  1.00  0.00     0.068 A 
HETATM   27  C   UNL     1      41.410 -10.888  11.045  1.00  0.00     0.037 A 
HETATM   28  C   UNL     1      41.091 -10.673   9.700  1.00  0.00     0.011 A 
BRANCH  26  29
HETATM   29  O   UNL     1      43.165 -11.311  12.705  1.00  0.00    -0.356 OA
HETATM   30  C   UNL     1      42.501 -10.536  13.697  1.00  0.00     0.210 C 
ENDBRANCH  26  29
ENDBRANCH  22  23
ENDBRANCH   3  22
TORSDOF 5
ENDMDL
MODEL 7
REMARK VINA RESULT:      -8.3      2.334      3.697
REMARK  5 active torsions:
REMARK  status: ('A' for Active; 'I' for Inactive)
REMARK    1  A    between atoms: C_4  and  N_5 
REMARK       I    between atoms: N_5  and  C_6 
REMARK    2  A    between atoms: C_6  and  C_7 
REMARK    3  A    between atoms: N_9  and  C_10 
REMARK    4  A    between atoms: C_10  and  C_11 
REMARK    5  A    between atoms: C_14  and  O_15 
ROOT
HETATM    1  C   UNL     1      42.058 -12.862   3.218  1.00  0.00     0.105 C 
HETATM    2  C   UNL     1      42.133 -12.837   1.700  1.00  0.00     0.140 C 
HETATM    3  N   UNL     1      40.854 -12.269   1.343  1.00  0.00    -0.347 N 
HETATM    4  C   UNL     1      39.896 -12.510   2.310  1.00  0.00     0.221 C 
HETATM    5  O   UNL     1      38.706 -12.252   2.244  1.00  0.00    -0.273 OA
HETATM    6  C   UNL     1      40.581 -13.161   3.485  1.00  0.00     0.118 C 
ENDROOT
BRANCH   1   7
HETATM    7  C   UNL     1      42.989 -13.865   3.866  1.00  0.00     0.228 C 
HETATM    8  N   UNL     1      42.359 -15.076   4.065  1.00  0.00    -0.325 N 
HETATM    9  H   UNL     1      41.378 -15.172   3.800  1.00  0.00     0.169 HD
HETATM   10  O   UNL     1      44.134 -13.576   4.193  1.00  0.00    -0.273 OA
BRANCH   8  11
HETATM   11  C   UNL     1      42.845 -16.246   4.697  1.00  0.00     0.065 A 
HETATM   12  C   UNL     1      42.980 -16.380   6.082  1.00  0.00     0.038 A 
HETATM   13  C   UNL     1      43.450 -17.577   6.634  1.00  0.00    -0.059 A 
HETATM   14  C   UNL     1      43.628 -17.713   8.118  1.00  0.00     0.048 C 
HETATM   15  C   UNL     1      43.806 -18.627   5.781  1.00  0.00     0.020 A 
HETATM   16  C   UNL     1      43.674 -18.497   4.389  1.00  0.00    -0.005 A 
HETATM   17  C   UNL     1      43.190 -17.297   3.831  1.00  0.00     0.093 A 
HETATM   18  C   UNL     1      44.012 -19.543   3.519  1.00  0.00     0.015 A 
HETATM   19  N   UNL     1      43.046 -17.138   2.491  1.00  0.00    -0.258 NA
HETATM   20  C   UNL     1      43.383 -18.171   1.687  1.00  0.00     0.117 A 
HETATM   21  C   UNL     1      43.864 -19.380   2.147  1.00  0.00     0.020 A 
ENDBRANCH   8  11
ENDBRANCH   1   7
BRANCH   3  22
HETATM   22  C   UNL     1      40.587 -11.645   0.064  1.00  0.00     0.164 C 
BRANCH  22  23
HETATM   23  C   UNL     1      40.413 -12.618  -1.073  1.00  0.00    -0.040 A 
HETATM   24  C   UNL     1      41.468 -12.875  -1.959  1.00  0.00     0.011 A 
HETATM   25  C   UNL     1      41.337 -13.850  -2.950  1.00  0.00     0.037 A 
HETATM   26  C   UNL     1      40.162 -14.594  -3.061  1.00  0.00     0.068 A 
HETATM   27  C   UNL     1      39.090 -14.314  -2.213  1.00  0.00     0.037 A 
HETATM   28  C   UNL     1      39.217 -13.332  -1.225  1.00  0.00     0.011 A 
BRANCH  26  29
HETATM   29  O   UNL     1      40.164 -15.552  -4.039  1.00  0.00    -0.356 OA
HETATM   30  C   UNL     1      38.900 -16.141  -4.324  1.00  0.00     0.210 C 
ENDBRANCH  26  29
ENDBRANCH  22  23
ENDBRANCH   3  22
TORSDOF 5
ENDMDL
MODEL 8
REMARK VINA RESULT:      -8.2      2.049      9.180
REMARK  5 active torsions:
REMARK  status: ('A' for Active; 'I' for Inactive)
REMARK    1  A    between atoms: C_4  and  N_5 
REMARK       I    between atoms: N_5  and  C_6 
REMARK    2  A    between atoms: C_6  and  C_7 
REMARK    3  A    between atoms: N_9  and  C_10 
REMARK    4  A    between atoms: C_10  and  C_11 
REMARK    5  A    between atoms: C_14  and  O_15 
ROOT
HETATM    1  C   UNL     1      40.230 -15.600   2.068  1.00  0.00     0.105 C 
HETATM    2  C   UNL     1      41.735 -15.480   1.896  1.00  0.00     0.140 C 
HETATM    3  N   UNL     1      42.219 -15.839   3.209  1.00  0.00    -0.347 N 
HETATM    4  C   UNL     1      41.283 -15.577   4.192  1.00  0.00     0.221 C 
HETATM    5  O   UNL     1      41.439 -15.672   5.398  1.00  0.00    -0.273 OA
HETATM    6  C   UNL     1      40.009 -15.143   3.511  1.00  0.00     0.118 C 
ENDROOT
BRANCH   1   7
HETATM    7  C   UNL     1      39.428 -14.796   1.065  1.00  0.00     0.228 C 
HETATM    8  N   UNL     1      40.054 -14.763  -0.164  1.00  0.00    -0.325 N 
HETATM    9  H   UNL     1      40.955 -15.230  -0.272  1.00  0.00     0.169 HD
HETATM   10  O   UNL     1      38.386 -14.228   1.368  1.00  0.00    -0.273 OA
BRANCH   8  11
HETATM   11  C   UNL     1      39.680 -14.071  -1.341  1.00  0.00     0.065 A 
HETATM   12  C   UNL     1      38.464 -14.269  -2.004  1.00  0.00     0.038 A 
HETATM   13  C   UNL     1      38.157 -13.531  -3.153  1.00  0.00    -0.059 A 
HETATM   14  C   UNL     1      36.868 -13.764  -3.886  1.00  0.00     0.048 C 
HETATM   15  C   UNL     1      39.092 -12.614  -3.644  1.00  0.00     0.020 A 
HETATM   16  C   UNL     1      40.316 -12.413  -2.983  1.00  0.00    -0.005 A 
HETATM   17  C   UNL     1      40.623 -13.146  -1.819  1.00  0.00     0.093 A 
HETATM   18  C   UNL     1      41.259 -11.488  -3.451  1.00  0.00     0.015 A 
HETATM   19  N   UNL     1      41.793 -12.975  -1.154  1.00  0.00    -0.258 NA
HETATM   20  C   UNL     1      42.675 -12.073  -1.638  1.00  0.00     0.117 A 
HETATM   21  C   UNL     1      42.457 -11.314  -2.770  1.00  0.00     0.020 A 
ENDBRANCH   8  11
ENDBRANCH   1   7
BRANCH   3  22
HETATM   22  C   UNL     1      43.571 -16.290   3.465  1.00  0.00     0.164 C 
BRANCH  22  23
HETATM   23  C   UNL     1      43.747 -17.785   3.394  1.00  0.00    -0.040 A 
HETATM   24  C   UNL     1      43.646 -18.456   2.169  1.00  0.00     0.011 A 
HETATM   25  C   UNL     1      43.908 -19.826   2.089  1.00  0.00     0.037 A 
HETATM   26  C   UNL     1      44.291 -20.541   3.224  1.00  0.00     0.068 A 
HETATM   27  C   UNL     1      44.349 -19.890   4.457  1.00  0.00     0.037 A 
HETATM   28  C   UNL     1      44.080 -18.520   4.540  1.00  0.00     0.011 A 
BRANCH  26  29
HETATM   29  O   UNL     1      44.566 -21.865   3.018  1.00  0.00    -0.356 OA
HETATM   30  C   UNL     1      44.717 -22.651   4.196  1.00  0.00     0.210 C 
ENDBRANCH  26  29
ENDBRANCH  22  23
ENDBRANCH   3  22
TORSDOF 5
ENDMDL
MODEL 9
REMARK VINA RESULT:      -8.1      2.811      4.886
REMARK  5 active torsions:
REMARK  status: ('A' for Active; 'I' for Inactive)
REMARK    1  A    between atoms: C_4  and  N_5 
REMARK       I    between atoms: N_5  and  C_6 
REMARK    2  A    between atoms: C_6  and  C_7 
REMARK    3  A    between atoms: N_9  and  C_10 
REMARK    4  A    between atoms: C_10  and  C_11 
REMARK    5  A    between atoms: C_14  and  O_15 
ROOT
HETATM    1  C   UNL     1      41.330 -16.472   0.747  1.00  0.00     0.105 C 
HETATM    2  C   UNL     1      40.358 -15.858   1.741  1.00  0.00     0.140 C 
HETATM    3  N   UNL     1      39.588 -14.969   0.902  1.00  0.00    -0.347 N 
HETATM    4  C   UNL     1      40.305 -14.557  -0.206  1.00  0.00     0.221 C 
HETATM    5  O   UNL     1      39.965 -13.728  -1.034  1.00  0.00    -0.273 OA
HETATM    6  C   UNL     1      41.606 -15.320  -0.222  1.00  0.00     0.118 C 
ENDROOT
BRANCH   1   7
HETATM    7  C   UNL     1      42.590 -17.026   1.378  1.00  0.00     0.228 C 
HETATM    8  N   UNL     1      42.305 -17.725   2.534  1.00  0.00    -0.325 N 
HETATM    9  H   UNL     1      41.337 -17.778   2.852  1.00  0.00     0.169 HD
HETATM   10  O   UNL     1      43.702 -16.816   0.909  1.00  0.00    -0.273 OA
BRANCH   8  11
HETATM   11  C   UNL     1      43.191 -18.335   3.453  1.00  0.00     0.065 A 
HETATM   12  C   UNL     1      43.646 -17.714   4.621  1.00  0.00     0.038 A 
HETATM   13  C   UNL     1      44.507 -18.391   5.492  1.00  0.00    -0.059 A 
HETATM   14  C   UNL     1      45.024 -17.716   6.729  1.00  0.00     0.048 C 
HETATM   15  C   UNL     1      44.926 -19.685   5.167  1.00  0.00     0.020 A 
HETATM   16  C   UNL     1      44.474 -20.312   3.994  1.00  0.00    -0.005 A 
HETATM   17  C   UNL     1      43.598 -19.638   3.121  1.00  0.00     0.093 A 
HETATM   18  C   UNL     1      44.872 -21.614   3.659  1.00  0.00     0.015 A 
HETATM   19  N   UNL     1      43.138 -20.215   1.982  1.00  0.00    -0.258 NA
HETATM   20  C   UNL     1      43.545 -21.471   1.695  1.00  0.00     0.117 A 
HETATM   21  C   UNL     1      44.401 -22.204   2.492  1.00  0.00     0.020 A 
ENDBRANCH   8  11
ENDBRANCH   1   7
BRANCH   3  22
HETATM   22  C   UNL     1      38.277 -14.470   1.260  1.00  0.00     0.164 C 
BRANCH  22  23
HETATM   23  C   UNL     1      38.257 -13.016   1.656  1.00  0.00    -0.040 A 
HETATM   24  C   UNL     1      37.391 -12.117   1.020  1.00  0.00     0.011 A 
HETATM   25  C   UNL     1      37.302 -10.793   1.456  1.00  0.00     0.037 A 
HETATM   26  C   UNL     1      38.060 -10.352   2.541  1.00  0.00     0.068 A 
HETATM   27  C   UNL     1      38.958 -11.228   3.151  1.00  0.00     0.037 A 
HETATM   28  C   UNL     1      39.054 -12.552   2.711  1.00  0.00     0.011 A 
BRANCH  26  29
HETATM   29  O   UNL     1      37.857  -9.049   2.907  1.00  0.00    -0.356 OA
HETATM   30  C   UNL     1      39.035  -8.266   3.067  1.00  0.00     0.210 C 
ENDBRANCH  26  29
ENDBRANCH  22  23
ENDBRANCH   3  22
TORSDOF 5
ENDMDL
MODEL 10
REMARK VINA RESULT:      -8.0      2.923      4.665
REMARK  5 active torsions:
REMARK  status: ('A' for Active; 'I' for Inactive)
REMARK    1  A    between atoms: C_4  and  N_5 
REMARK       I    between atoms: N_5  and  C_6 
REMARK    2  A    between atoms: C_6  and  C_7 
REMARK    3  A    between atoms: N_9  and  C_10 
REMARK    4  A    between atoms: C_10  and  C_11 
REMARK    5  A    between atoms: C_14  and  O_15 
ROOT
HETATM    1  C   UNL     1      41.283 -16.623   0.765  1.00  0.00     0.105 C 
HETATM    2  C   UNL     1      40.327 -15.957   1.741  1.00  0.00     0.140 C 
HETATM    3  N   UNL     1      39.647 -15.004   0.895  1.00  0.00    -0.347 N 
HETATM    4  C   UNL     1      40.423 -14.628  -0.185  1.00  0.00     0.221 C 
HETATM    5  O   UNL     1      40.168 -13.765  -1.008  1.00  0.00    -0.273 OA
HETATM    6  C   UNL     1      41.668 -15.479  -0.176  1.00  0.00     0.118 C 
ENDROOT
BRANCH   1   7
HETATM    7  C   UNL     1      42.482 -17.274   1.423  1.00  0.00     0.228 C 
HETATM    8  N   UNL     1      42.239 -17.539   2.755  1.00  0.00    -0.325 N 
HETATM    9  H   UNL     1      41.342 -17.266   3.157  1.00  0.00     0.169 HD
HETATM   10  O   UNL     1      43.528 -17.477   0.819  1.00  0.00    -0.273 OA
BRANCH   8  11
HETATM   11  C   UNL     1      43.110 -18.072   3.736  1.00  0.00     0.065 A 
HETATM   12  C   UNL     1      43.637 -19.366   3.685  1.00  0.00     0.038 A 
HETATM   13  C   UNL     1      44.509 -19.815   4.683  1.00  0.00    -0.059 A 
HETATM   14  C   UNL     1      45.050 -21.215   4.650  1.00  0.00     0.048 C 
HETATM   15  C   UNL     1      44.825 -18.961   5.745  1.00  0.00     0.020 A 
HETATM   16  C   UNL     1      44.297 -17.661   5.803  1.00  0.00    -0.005 A 
HETATM   17  C   UNL     1      43.428 -17.202   4.792  1.00  0.00     0.093 A 
HETATM   18  C   UNL     1      44.614 -16.786   6.851  1.00  0.00     0.015 A 
HETATM   19  N   UNL     1      42.903 -15.951   4.814  1.00  0.00    -0.258 NA
HETATM   20  C   UNL     1      43.234 -15.139   5.842  1.00  0.00     0.117 A 
HETATM   21  C   UNL     1      44.076 -15.505   6.872  1.00  0.00     0.020 A 
ENDBRANCH   8  11
ENDBRANCH   1   7
BRANCH   3  22
HETATM   22  C   UNL     1      38.364 -14.420   1.223  1.00  0.00     0.164 C 
BRANCH  22  23
HETATM   23  C   UNL     1      38.452 -13.069   1.885  1.00  0.00    -0.040 A 
HETATM   24  C   UNL     1      37.674 -11.998   1.424  1.00  0.00     0.011 A 
HETATM   25  C   UNL     1      37.682 -10.776   2.100  1.00  0.00     0.037 A 
HETATM   26  C   UNL     1      38.450 -10.609   3.253  1.00  0.00     0.068 A 
HETATM   27  C   UNL     1      39.262 -11.655   3.693  1.00  0.00     0.037 A 
HETATM   28  C   UNL     1      39.261 -12.877   3.013  1.00  0.00     0.011 A 
BRANCH  26  29
HETATM   29  O   UNL     1      38.344  -9.385   3.856  1.00  0.00    -0.356 OA
HETATM   30  C   UNL     1      39.578  -8.761   4.195  1.00  0.00     0.210 C 
ENDBRANCH  26  29
ENDBRANCH  22  23
ENDBRANCH   3  22
TORSDOF 5
ENDMDL
