MODEL 1
REMARK VINA RESULT:      -9.8      0.000      0.000
REMARK  5 active torsions:
REMARK  status: ('A' for Active; 'I' for Inactive)
REMARK    1  A    between atoms: O_2  and  C_3 
REMARK    2  A    between atoms: C_10  and  C_11 
REMARK    3  A    between atoms: C_11  and  C_12 
REMARK       I    between atoms: C_12  and  N_13 
REMARK    4  A    between atoms: N_13  and  C_14 
REMARK    5  A    between atoms: C_16  and  C_17 
ROOT
HETATM    1  C   UNL     1      41.120 -16.571   1.348  1.00  0.00     0.035 A 
HETATM    2  C   UNL     1      41.386 -15.998   0.095  1.00  0.00     0.046 A 
HETATM    3  C   UNL     1      40.619 -14.922  -0.392  1.00  0.00     0.036 A 
HETATM    4  C   UNL     1      39.580 -14.413   0.398  1.00  0.00     0.048 A 
HETATM    5 CL   UNL     1      38.571 -13.111  -0.127  1.00  0.00    -0.083 Cl
HETATM    6  C   UNL     1      39.315 -14.975   1.646  1.00  0.00     0.027 A 
HETATM    7  C   UNL     1      40.079 -16.049   2.116  1.00  0.00     0.031 A 
ENDROOT
BRANCH   1   8
HETATM    8  N   UNL     1      41.966 -17.616   1.780  1.00  0.00    -0.327 N 
HETATM    9  C   UNL     1      43.349 -17.572   1.917  1.00  0.00     0.226 C 
HETATM   10  O   UNL     1      44.040 -16.557   1.872  1.00  0.00    -0.273 OA
HETATM   11  H   UNL     1      41.520 -18.500   1.998  1.00  0.00     0.169 HD
BRANCH   9  12
HETATM   12  C   UNL     1      43.978 -18.943   2.059  1.00  0.00     0.144 C 
BRANCH  12  13
HETATM   13  C   UNL     1      44.126 -19.502   3.441  1.00  0.00    -0.021 A 
HETATM   14  C   UNL     1      43.732 -18.986   4.726  1.00  0.00     0.001 A 
HETATM   15  C   UNL     1      43.049 -17.837   5.186  1.00  0.00     0.051 A 
HETATM   16  C   UNL     1      44.193 -19.885   5.693  1.00  0.00     0.043 A 
HETATM   17  C   UNL     1      42.851 -17.623   6.562  1.00  0.00     0.069 A 
HETATM   18  C   UNL     1      43.337 -18.544   7.486  1.00  0.00     0.039 A 
HETATM   19  C   UNL     1      44.016 -19.690   7.068  1.00  0.00     0.033 A 
HETATM   20  N   UNL     1      44.822 -20.911   5.035  1.00  0.00    -0.365 N 
HETATM   21  H   UNL     1      45.266 -21.696   5.491  1.00  0.00     0.165 HD
HETATM   22  C   UNL     1      44.783 -20.698   3.689  1.00  0.00     0.097 A 
BRANCH  17  23
HETATM   23  O   UNL     1      42.165 -16.476   6.865  1.00  0.00    -0.356 OA
HETATM   24  C   UNL     1      40.948 -16.248   6.164  1.00  0.00     0.210 C 
ENDBRANCH  17  23
ENDBRANCH  12  13
ENDBRANCH   9  12
ENDBRANCH   1   8
BRANCH   3  25
HETATM   25  C   UNL     1      40.940 -14.354  -1.697  1.00  0.00     0.165 A 
HETATM   26  N   UNL     1      41.597 -13.162  -1.918  1.00  0.00    -0.316 N 
HETATM   27  C   UNL     1      41.690 -13.027  -3.282  1.00  0.00     0.130 A 
HETATM   28  C   UNL     1      42.032 -12.238  -0.892  1.00  0.00     0.132 C 
HETATM   29  C   UNL     1      42.323 -11.894  -4.012  1.00  0.00     0.081 C 
HETATM   30  N   UNL     1      41.117 -14.067  -3.850  1.00  0.00    -0.134 NA
HETATM   31  C   UNL     1      41.979 -10.538  -3.407  1.00  0.00     0.008 C 
HETATM   32  C   UNL     1      42.828 -10.175  -2.188  1.00  0.00     0.002 C 
HETATM   33  C   UNL     1      43.203 -11.335  -1.264  1.00  0.00     0.020 C 
HETATM   34  N   UNL     1      40.648 -14.893  -2.863  1.00  0.00    -0.129 NA
ENDBRANCH   3  25
TORSDOF 5
ENDMDL
MODEL 2
REMARK VINA RESULT:      -9.5      5.268      8.174
REMARK  5 active torsions:
REMARK  status: ('A' for Active; 'I' for Inactive)
REMARK    1  A    between atoms: O_2  and  C_3 
REMARK    2  A    between atoms: C_10  and  C_11 
REMARK    3  A    between atoms: C_11  and  C_12 
REMARK       I    between atoms: C_12  and  N_13 
REMARK    4  A    between atoms: N_13  and  C_14 
REMARK    5  A    between atoms: C_16  and  C_17 
ROOT
HETATM    1  C   UNL     1      40.559 -12.373   5.137  1.00  0.00     0.035 A 
HETATM    2  C   UNL     1      41.038 -13.688   5.226  1.00  0.00     0.046 A 
HETATM    3  C   UNL     1      40.645 -14.672   4.298  1.00  0.00     0.036 A 
HETATM    4  C   UNL     1      39.768 -14.321   3.264  1.00  0.00     0.048 A 
HETATM    5 CL   UNL     1      39.212 -15.466   2.094  1.00  0.00    -0.083 Cl
HETATM    6  C   UNL     1      39.292 -13.014   3.168  1.00  0.00     0.027 A 
HETATM    7  C   UNL     1      39.684 -12.047   4.101  1.00  0.00     0.031 A 
ENDROOT
BRANCH   1   8
HETATM    8  N   UNL     1      41.038 -11.438   6.081  1.00  0.00    -0.327 N 
HETATM    9  C   UNL     1      40.326 -10.866   7.129  1.00  0.00     0.226 C 
HETATM   10  O   UNL     1      39.221 -11.228   7.525  1.00  0.00    -0.273 OA
HETATM   11  H   UNL     1      42.000 -11.137   5.973  1.00  0.00     0.169 HD
BRANCH   9  12
HETATM   12  C   UNL     1      41.015  -9.657   7.729  1.00  0.00     0.144 C 
BRANCH  12  13
HETATM   13  C   UNL     1      41.740  -9.842   9.028  1.00  0.00    -0.021 A 
HETATM   14  C   UNL     1      42.860 -10.673   9.385  1.00  0.00     0.001 A 
HETATM   15  C   UNL     1      43.714 -11.566   8.699  1.00  0.00     0.051 A 
HETATM   16  C   UNL     1      43.071 -10.515  10.759  1.00  0.00     0.043 A 
HETATM   17  C   UNL     1      44.728 -12.258   9.384  1.00  0.00     0.069 A 
HETATM   18  C   UNL     1      44.893 -12.074  10.754  1.00  0.00     0.039 A 
HETATM   19  C   UNL     1      44.067 -11.199  11.465  1.00  0.00     0.033 A 
HETATM   20  N   UNL     1      42.140  -9.619  11.219  1.00  0.00    -0.365 N 
HETATM   21  H   UNL     1      42.052  -9.330  12.183  1.00  0.00     0.165 HD
HETATM   22  C   UNL     1      41.343  -9.204  10.193  1.00  0.00     0.097 A 
BRANCH  17  23
HETATM   23  O   UNL     1      45.487 -13.081   8.595  1.00  0.00    -0.356 OA
HETATM   24  C   UNL     1      44.814 -13.770   7.547  1.00  0.00     0.210 C 
ENDBRANCH  17  23
ENDBRANCH  12  13
ENDBRANCH   9  12
ENDBRANCH   1   8
BRANCH   3  25
HETATM   25  C   UNL     1      41.178 -16.023   4.427  1.00  0.00     0.165 A 
HETATM   26  N   UNL     1      42.089 -16.616   3.577  1.00  0.00    -0.316 N 
HETATM   27  C   UNL     1      42.313 -17.875   4.078  1.00  0.00     0.130 A 
HETATM   28  C   UNL     1      42.632 -16.017   2.376  1.00  0.00     0.132 C 
HETATM   29  C   UNL     1      43.227 -18.901   3.503  1.00  0.00     0.081 C 
HETATM   30  N   UNL     1      41.577 -18.038   5.157  1.00  0.00    -0.134 NA
HETATM   31  C   UNL     1      43.135 -18.986   1.984  1.00  0.00     0.008 C 
HETATM   32  C   UNL     1      43.946 -17.912   1.257  1.00  0.00     0.002 C 
HETATM   33  C   UNL     1      43.994 -16.539   1.930  1.00  0.00     0.020 C 
HETATM   34  N   UNL     1      40.868 -16.886   5.373  1.00  0.00    -0.129 NA
ENDBRANCH   3  25
TORSDOF 5
ENDMDL
MODEL 3
REMARK VINA RESULT:      -9.3      2.380      4.344
REMARK  5 active torsions:
REMARK  status: ('A' for Active; 'I' for Inactive)
REMARK    1  A    between atoms: O_2  and  C_3 
REMARK    2  A    between atoms: C_10  and  C_11 
REMARK    3  A    between atoms: C_11  and  C_12 
REMARK       I    between atoms: C_12  and  N_13 
REMARK    4  A    between atoms: N_13  and  C_14 
REMARK    5  A    between atoms: C_16  and  C_17 
ROOT
HETATM    1  C   UNL     1      40.613 -14.497   5.546  1.00  0.00     0.035 A 
HETATM    2  C   UNL     1      41.005 -14.303   4.213  1.00  0.00     0.046 A 
HETATM    3  C   UNL     1      40.653 -13.133   3.513  1.00  0.00     0.036 A 
HETATM    4  C   UNL     1      39.906 -12.145   4.168  1.00  0.00     0.048 A 
HETATM    5 CL   UNL     1      39.407 -10.689   3.382  1.00  0.00    -0.083 Cl
HETATM    6  C   UNL     1      39.517 -12.331   5.494  1.00  0.00     0.027 A 
HETATM    7  C   UNL     1      39.867 -13.502   6.177  1.00  0.00     0.031 A 
ENDROOT
BRANCH   1   8
HETATM    8  N   UNL     1      41.047 -15.678   6.188  1.00  0.00    -0.327 N 
HETATM    9  C   UNL     1      42.345 -15.991   6.575  1.00  0.00     0.226 C 
HETATM   10  O   UNL     1      43.293 -15.211   6.598  1.00  0.00    -0.273 OA
HETATM   11  H   UNL     1      40.340 -16.380   6.372  1.00  0.00     0.169 HD
BRANCH   9  12
HETATM   12  C   UNL     1      42.529 -17.457   6.912  1.00  0.00     0.144 C 
BRANCH  12  13
HETATM   13  C   UNL     1      43.295 -18.304   5.941  1.00  0.00    -0.021 A 
HETATM   14  C   UNL     1      43.178 -18.463   4.515  1.00  0.00     0.001 A 
HETATM   15  C   UNL     1      42.378 -17.894   3.498  1.00  0.00     0.051 A 
HETATM   16  C   UNL     1      44.093 -19.449   4.131  1.00  0.00     0.043 A 
HETATM   17  C   UNL     1      42.510 -18.313   2.162  1.00  0.00     0.069 A 
HETATM   18  C   UNL     1      43.430 -19.304   1.832  1.00  0.00     0.039 A 
HETATM   19  C   UNL     1      44.237 -19.889   2.811  1.00  0.00     0.033 A 
HETATM   20  N   UNL     1      44.752 -19.861   5.261  1.00  0.00    -0.365 N 
HETATM   21  H   UNL     1      45.462 -20.581   5.279  1.00  0.00     0.165 HD
HETATM   22  C   UNL     1      44.290 -19.180   6.348  1.00  0.00     0.097 A 
BRANCH  17  23
HETATM   23  O   UNL     1      41.681 -17.671   1.280  1.00  0.00    -0.356 OA
HETATM   24  C   UNL     1      42.145 -16.439   0.740  1.00  0.00     0.210 C 
ENDBRANCH  17  23
ENDBRANCH  12  13
ENDBRANCH   9  12
ENDBRANCH   1   8
BRANCH   3  25
HETATM   25  C   UNL     1      41.092 -12.972   2.131  1.00  0.00     0.165 A 
HETATM   26  N   UNL     1      40.308 -13.144   1.009  1.00  0.00    -0.316 N 
HETATM   27  C   UNL     1      41.121 -12.884  -0.067  1.00  0.00     0.130 A 
HETATM   28  C   UNL     1      38.925 -13.571   1.007  1.00  0.00     0.132 C 
HETATM   29  C   UNL     1      40.726 -12.938  -1.501  1.00  0.00     0.081 C 
HETATM   30  N   UNL     1      42.324 -12.583   0.375  1.00  0.00    -0.134 NA
HETATM   31  C   UNL     1      39.853 -14.144  -1.827  1.00  0.00     0.008 C 
HETATM   32  C   UNL     1      38.378 -13.951  -1.467  1.00  0.00     0.002 C 
HETATM   33  C   UNL     1      38.098 -13.142  -0.200  1.00  0.00     0.020 C 
HETATM   34  N   UNL     1      42.307 -12.640   1.744  1.00  0.00    -0.129 NA
ENDBRANCH   3  25
TORSDOF 5
ENDMDL
MODEL 4
REMARK VINA RESULT:      -9.3      1.707      2.573
REMARK  5 active torsions:
REMARK  status: ('A' for Active; 'I' for Inactive)
REMARK    1  A    between atoms: O_2  and  C_3 
REMARK    2  A    between atoms: C_10  and  C_11 
REMARK    3  A    between atoms: C_11  and  C_12 
REMARK       I    between atoms: C_12  and  N_13 
REMARK    4  A    between atoms: N_13  and  C_14 
REMARK    5  A    between atoms: C_16  and  C_17 
ROOT
HETATM    1  C   UNL     1      40.730 -15.704   1.608  1.00  0.00     0.035 A 
HETATM    2  C   UNL     1      41.114 -15.251   0.337  1.00  0.00     0.046 A 
HETATM    3  C   UNL     1      40.260 -14.443  -0.438  1.00  0.00     0.036 A 
HETATM    4  C   UNL     1      39.011 -14.079   0.080  1.00  0.00     0.048 A 
HETATM    5 CL   UNL     1      37.887 -13.111  -0.807  1.00  0.00    -0.083 Cl
HETATM    6  C   UNL     1      38.625 -14.522   1.346  1.00  0.00     0.027 A 
HETATM    7  C   UNL     1      39.480 -15.332   2.102  1.00  0.00     0.031 A 
ENDROOT
BRANCH   1   8
HETATM    8  N   UNL     1      41.665 -16.472   2.337  1.00  0.00    -0.327 N 
HETATM    9  C   UNL     1      42.864 -16.032   2.885  1.00  0.00     0.226 C 
HETATM   10  O   UNL     1      43.214 -14.859   2.994  1.00  0.00    -0.273 OA
HETATM   11  H   UNL     1      41.447 -17.454   2.460  1.00  0.00     0.169 HD
BRANCH   9  12
HETATM   12  C   UNL     1      43.786 -17.164   3.291  1.00  0.00     0.144 C 
BRANCH  12  13
HETATM   13  C   UNL     1      43.626 -17.732   4.668  1.00  0.00    -0.021 A 
HETATM   14  C   UNL     1      43.900 -19.042   5.198  1.00  0.00     0.001 A 
HETATM   15  C   UNL     1      44.439 -20.245   4.687  1.00  0.00     0.051 A 
HETATM   16  C   UNL     1      43.483 -19.046   6.533  1.00  0.00     0.043 A 
HETATM   17  C   UNL     1      44.546 -21.386   5.502  1.00  0.00     0.069 A 
HETATM   18  C   UNL     1      44.109 -21.342   6.823  1.00  0.00     0.039 A 
HETATM   19  C   UNL     1      43.570 -20.170   7.361  1.00  0.00     0.033 A 
HETATM   20  N   UNL     1      42.995 -17.795   6.816  1.00  0.00    -0.365 N 
HETATM   21  H   UNL     1      42.610 -17.519   7.708  1.00  0.00     0.165 HD
HETATM   22  C   UNL     1      43.081 -16.999   5.712  1.00  0.00     0.097 A 
BRANCH  17  23
HETATM   23  O   UNL     1      45.096 -22.478   4.882  1.00  0.00    -0.356 OA
HETATM   24  C   UNL     1      44.669 -22.746   3.551  1.00  0.00     0.210 C 
ENDBRANCH  17  23
ENDBRANCH  12  13
ENDBRANCH   9  12
ENDBRANCH   1   8
BRANCH   3  25
HETATM   25  C   UNL     1      40.708 -13.989  -1.750  1.00  0.00     0.165 A 
HETATM   26  N   UNL     1      41.448 -12.853  -2.002  1.00  0.00    -0.316 N 
HETATM   27  C   UNL     1      41.648 -12.823  -3.360  1.00  0.00     0.130 A 
HETATM   28  C   UNL     1      41.860 -11.881  -1.011  1.00  0.00     0.132 C 
HETATM   29  C   UNL     1      42.398 -11.781  -4.116  1.00  0.00     0.081 C 
HETATM   30  N   UNL     1      41.059 -13.870  -3.898  1.00  0.00    -0.134 NA
HETATM   31  C   UNL     1      42.090 -10.368  -3.634  1.00  0.00     0.008 C 
HETATM   32  C   UNL     1      42.868  -9.963  -2.380  1.00  0.00     0.002 C 
HETATM   33  C   UNL     1      43.106 -11.070  -1.352  1.00  0.00     0.020 C 
HETATM   34  N   UNL     1      40.471 -14.595  -2.895  1.00  0.00    -0.129 NA
ENDBRANCH   3  25
TORSDOF 5
ENDMDL
MODEL 5
REMARK VINA RESULT:      -9.1      2.460      3.952
REMARK  5 active torsions:
REMARK  status: ('A' for Active; 'I' for Inactive)
REMARK    1  A    between atoms: O_2  and  C_3 
REMARK    2  A    between atoms: C_10  and  C_11 
REMARK    3  A    between atoms: C_11  and  C_12 
REMARK       I    between atoms: C_12  and  N_13 
REMARK    4  A    between atoms: N_13  and  C_14 
REMARK    5  A    between atoms: C_16  and  C_17 
ROOT
HETATM    1  C   UNL     1      42.277 -13.457   4.106  1.00  0.00     0.035 A 
HETATM    2  C   UNL     1      42.534 -13.268   2.740  1.00  0.00     0.046 A 
HETATM    3  C   UNL     1      41.680 -12.486   1.938  1.00  0.00     0.036 A 
HETATM    4  C   UNL     1      40.562 -11.879   2.525  1.00  0.00     0.048 A 
HETATM    5 CL   UNL     1      39.446 -10.922   1.616  1.00  0.00    -0.083 Cl
HETATM    6  C   UNL     1      40.304 -12.059   3.884  1.00  0.00     0.027 A 
HETATM    7  C   UNL     1      41.156 -12.846   4.667  1.00  0.00     0.031 A 
ENDROOT
BRANCH   1   8
HETATM    8  N   UNL     1      43.208 -14.218   4.846  1.00  0.00    -0.327 N 
HETATM    9  C   UNL     1      43.112 -15.565   5.179  1.00  0.00     0.226 C 
HETATM   10  O   UNL     1      42.296 -16.359   4.718  1.00  0.00    -0.273 OA
HETATM   11  H   UNL     1      44.027 -13.727   5.186  1.00  0.00     0.169 HD
BRANCH   9  12
HETATM   12  C   UNL     1      44.086 -15.982   6.262  1.00  0.00     0.144 C 
BRANCH  12  13
HETATM   13  C   UNL     1      44.013 -17.395   6.757  1.00  0.00    -0.021 A 
HETATM   14  C   UNL     1      44.227 -18.652   6.089  1.00  0.00     0.001 A 
HETATM   15  C   UNL     1      44.611 -19.051   4.789  1.00  0.00     0.051 A 
HETATM   16  C   UNL     1      43.942 -19.665   7.011  1.00  0.00     0.043 A 
HETATM   17  C   UNL     1      44.700 -20.414   4.454  1.00  0.00     0.069 A 
HETATM   18  C   UNL     1      44.398 -21.386   5.405  1.00  0.00     0.039 A 
HETATM   19  C   UNL     1      44.014 -21.027   6.700  1.00  0.00     0.033 A 
HETATM   20  N   UNL     1      43.590 -19.061   8.191  1.00  0.00    -0.365 N 
HETATM   21  H   UNL     1      43.318 -19.557   9.029  1.00  0.00     0.165 HD
HETATM   22  C   UNL     1      43.635 -17.705   8.055  1.00  0.00     0.097 A 
BRANCH  17  23
HETATM   23  O   UNL     1      45.094 -20.658   3.165  1.00  0.00    -0.356 OA
HETATM   24  C   UNL     1      44.352 -21.629   2.437  1.00  0.00     0.210 C 
ENDBRANCH  17  23
ENDBRANCH  12  13
ENDBRANCH   9  12
ENDBRANCH   1   8
BRANCH   3  25
HETATM   25  C   UNL     1      41.994 -12.312   0.525  1.00  0.00     0.165 A 
HETATM   26  N   UNL     1      41.386 -12.969  -0.525  1.00  0.00    -0.316 N 
HETATM   27  C   UNL     1      41.982 -12.495  -1.668  1.00  0.00     0.130 A 
HETATM   28  C   UNL     1      40.368 -13.992  -0.400  1.00  0.00     0.132 C 
HETATM   29  C   UNL     1      41.661 -12.906  -3.063  1.00  0.00     0.081 C 
HETATM   30  N   UNL     1      42.899 -11.613  -1.331  1.00  0.00    -0.134 NA
HETATM   31  C   UNL     1      41.462 -14.411  -3.202  1.00  0.00     0.008 C 
HETATM   32  C   UNL     1      40.070 -14.888  -2.782  1.00  0.00     0.002 C 
HETATM   33  C   UNL     1      39.439 -14.154  -1.598  1.00  0.00     0.020 C 
HETATM   34  N   UNL     1      42.908 -11.500   0.034  1.00  0.00    -0.129 NA
ENDBRANCH   3  25
TORSDOF 5
ENDMDL
MODEL 6
REMARK VINA RESULT:      -9.0      2.290      4.046
REMARK  5 active torsions:
REMARK  status: ('A' for Active; 'I' for Inactive)
REMARK    1  A    between atoms: O_2  and  C_3 
REMARK    2  A    between atoms: C_10  and  C_11 
REMARK    3  A    between atoms: C_11  and  C_12 
REMARK       I    between atoms: C_12  and  N_13 
REMARK    4  A    between atoms: N_13  and  C_14 
REMARK    5  A    between atoms: C_16  and  C_17 
ROOT
HETATM    1  C   UNL     1      39.667 -13.634   3.662  1.00  0.00     0.035 A 
HETATM    2  C   UNL     1      40.168 -13.913   2.382  1.00  0.00     0.046 A 
HETATM    3  C   UNL     1      40.176 -12.931   1.372  1.00  0.00     0.036 A 
HETATM    4  C   UNL     1      39.682 -11.653   1.660  1.00  0.00     0.048 A 
HETATM    5 CL   UNL     1      39.629 -10.392   0.478  1.00  0.00    -0.083 Cl
HETATM    6  C   UNL     1      39.186 -11.368   2.933  1.00  0.00     0.027 A 
HETATM    7  C   UNL     1      39.177 -12.355   3.925  1.00  0.00     0.031 A 
ENDROOT
BRANCH   1   8
HETATM    8  N   UNL     1      39.738 -14.661   4.628  1.00  0.00    -0.327 N 
HETATM    9  C   UNL     1      40.831 -14.988   5.424  1.00  0.00     0.226 C 
HETATM   10  O   UNL     1      41.848 -14.312   5.554  1.00  0.00    -0.273 OA
HETATM   11  H   UNL     1      38.909 -15.233   4.744  1.00  0.00     0.169 HD
BRANCH   9  12
HETATM   12  C   UNL     1      40.698 -16.342   6.091  1.00  0.00     0.144 C 
BRANCH  12  13
HETATM   13  C   UNL     1      41.927 -17.195   6.184  1.00  0.00    -0.021 A 
HETATM   14  C   UNL     1      42.657 -17.927   5.182  1.00  0.00     0.001 A 
HETATM   15  C   UNL     1      42.556 -18.099   3.783  1.00  0.00     0.051 A 
HETATM   16  C   UNL     1      43.678 -18.622   5.839  1.00  0.00     0.043 A 
HETATM   17  C   UNL     1      43.452 -18.937   3.096  1.00  0.00     0.069 A 
HETATM   18  C   UNL     1      44.447 -19.614   3.796  1.00  0.00     0.039 A 
HETATM   19  C   UNL     1      44.577 -19.468   5.180  1.00  0.00     0.033 A 
HETATM   20  N   UNL     1      43.591 -18.318   7.174  1.00  0.00    -0.365 N 
HETATM   21  H   UNL     1      44.199 -18.695   7.888  1.00  0.00     0.165 HD
HETATM   22  C   UNL     1      42.553 -17.461   7.392  1.00  0.00     0.097 A 
BRANCH  17  23
HETATM   23  O   UNL     1      43.246 -19.003   1.743  1.00  0.00    -0.356 OA
HETATM   24  C   UNL     1      43.610 -17.859   0.979  1.00  0.00     0.210 C 
ENDBRANCH  17  23
ENDBRANCH  12  13
ENDBRANCH   9  12
ENDBRANCH   1   8
BRANCH   3  25
HETATM   25  C   UNL     1      40.716 -13.266   0.059  1.00  0.00     0.165 A 
HETATM   26  N   UNL     1      39.983 -13.666  -1.039  1.00  0.00    -0.316 N 
HETATM   27  C   UNL     1      40.890 -13.864  -2.051  1.00  0.00     0.130 A 
HETATM   28  C   UNL     1      38.550 -13.877  -1.061  1.00  0.00     0.132 C 
HETATM   29  C   UNL     1      40.576 -14.302  -3.439  1.00  0.00     0.081 C 
HETATM   30  N   UNL     1      42.097 -13.610  -1.592  1.00  0.00    -0.134 NA
HETATM   31  C   UNL     1      39.538 -15.418  -3.484  1.00  0.00     0.008 C 
HETATM   32  C   UNL     1      38.097 -14.922  -3.357  1.00  0.00     0.002 C 
HETATM   33  C   UNL     1      37.878 -13.731  -2.422  1.00  0.00     0.020 C 
HETATM   34  N   UNL     1      41.990 -13.240  -0.278  1.00  0.00    -0.129 NA
ENDBRANCH   3  25
TORSDOF 5
ENDMDL
MODEL 7
REMARK VINA RESULT:      -9.0      1.526      2.330
REMARK  5 active torsions:
REMARK  status: ('A' for Active; 'I' for Inactive)
REMARK    1  A    between atoms: O_2  and  C_3 
REMARK    2  A    between atoms: C_10  and  C_11 
REMARK    3  A    between atoms: C_11  and  C_12 
REMARK       I    between atoms: C_12  and  N_13 
REMARK    4  A    between atoms: N_13  and  C_14 
REMARK    5  A    between atoms: C_16  and  C_17 
ROOT
HETATM    1  C   UNL     1      41.215 -16.479   1.410  1.00  0.00     0.035 A 
HETATM    2  C   UNL     1      41.749 -15.323   0.820  1.00  0.00     0.046 A 
HETATM    3  C   UNL     1      41.049 -14.102   0.843  1.00  0.00     0.036 A 
HETATM    4  C   UNL     1      39.801 -14.044   1.478  1.00  0.00     0.048 A 
HETATM    5 CL   UNL     1      38.859 -12.596   1.536  1.00  0.00    -0.083 Cl
HETATM    6  C   UNL     1      39.267 -15.188   2.070  1.00  0.00     0.027 A 
HETATM    7  C   UNL     1      39.970 -16.398   2.033  1.00  0.00     0.031 A 
ENDROOT
BRANCH   1   8
HETATM    8  N   UNL     1      42.003 -17.650   1.381  1.00  0.00    -0.327 N 
HETATM    9  C   UNL     1      43.288 -17.808   1.888  1.00  0.00     0.226 C 
HETATM   10  O   UNL     1      43.871 -17.011   2.618  1.00  0.00    -0.273 OA
HETATM   11  H   UNL     1      41.596 -18.459   0.926  1.00  0.00     0.169 HD
BRANCH   9  12
HETATM   12  C   UNL     1      43.976 -19.062   1.389  1.00  0.00     0.144 C 
BRANCH  12  13
HETATM   13  C   UNL     1      44.110 -20.209   2.344  1.00  0.00    -0.021 A 
HETATM   14  C   UNL     1      44.116 -20.258   3.783  1.00  0.00     0.001 A 
HETATM   15  C   UNL     1      43.964 -19.315   4.825  1.00  0.00     0.051 A 
HETATM   16  C   UNL     1      44.359 -21.585   4.152  1.00  0.00     0.043 A 
HETATM   17  C   UNL     1      44.055 -19.713   6.171  1.00  0.00     0.069 A 
HETATM   18  C   UNL     1      44.306 -21.045   6.487  1.00  0.00     0.039 A 
HETATM   19  C   UNL     1      44.462 -22.004   5.483  1.00  0.00     0.033 A 
HETATM   20  N   UNL     1      44.477 -22.319   2.999  1.00  0.00    -0.365 N 
HETATM   21  H   UNL     1      44.670 -23.310   2.969  1.00  0.00     0.165 HD
HETATM   22  C   UNL     1      44.323 -21.510   1.912  1.00  0.00     0.097 A 
BRANCH  17  23
HETATM   23  O   UNL     1      43.877 -18.699   7.076  1.00  0.00    -0.356 OA
HETATM   24  C   UNL     1      44.095 -17.373   6.609  1.00  0.00     0.210 C 
ENDBRANCH  17  23
ENDBRANCH  12  13
ENDBRANCH   9  12
ENDBRANCH   1   8
BRANCH   3  25
HETATM   25  C   UNL     1      41.650 -12.926   0.224  1.00  0.00     0.165 A 
HETATM   26  N   UNL     1      41.435 -12.495  -1.068  1.00  0.00    -0.316 N 
HETATM   27  C   UNL     1      42.187 -11.355  -1.219  1.00  0.00     0.130 A 
HETATM   28  C   UNL     1      40.618 -13.169  -2.055  1.00  0.00     0.132 C 
HETATM   29  C   UNL     1      42.284 -10.522  -2.449  1.00  0.00     0.081 C 
HETATM   30  N   UNL     1      42.825 -11.117  -0.093  1.00  0.00    -0.134 NA
HETATM   31  C   UNL     1      42.397 -11.357  -3.719  1.00  0.00     0.008 C 
HETATM   32  C   UNL     1      41.055 -11.886  -4.229  1.00  0.00     0.002 C 
HETATM   33  C   UNL     1      40.041 -12.286  -3.157  1.00  0.00     0.020 C 
HETATM   34  N   UNL     1      42.492 -12.097   0.806  1.00  0.00    -0.129 NA
ENDBRANCH   3  25
TORSDOF 5
ENDMDL
MODEL 8
REMARK VINA RESULT:      -9.0      5.170      8.631
REMARK  5 active torsions:
REMARK  status: ('A' for Active; 'I' for Inactive)
REMARK    1  A    between atoms: O_2  and  C_3 
REMARK    2  A    between atoms: C_10  and  C_11 
REMARK    3  A    between atoms: C_11  and  C_12 
REMARK       I    between atoms: C_12  and  N_13 
REMARK    4  A    between atoms: N_13  and  C_14 
REMARK    5  A    between atoms: C_16  and  C_17 
ROOT
HETATM    1  C   UNL     1      40.852 -12.784   4.921  1.00  0.00     0.035 A 
HETATM    2  C   UNL     1      41.741 -13.867   4.857  1.00  0.00     0.046 A 
HETATM    3  C   UNL     1      41.516 -14.944   3.979  1.00  0.00     0.036 A 
HETATM    4  C   UNL     1      40.389 -14.922   3.148  1.00  0.00     0.048 A 
HETATM    5 CL   UNL     1      40.019 -16.210   2.056  1.00  0.00    -0.083 Cl
HETATM    6  C   UNL     1      39.504 -13.846   3.203  1.00  0.00     0.027 A 
HETATM    7  C   UNL     1      39.734 -12.785   4.087  1.00  0.00     0.031 A 
ENDROOT
BRANCH   1   8
HETATM    8  N   UNL     1      41.175 -11.724   5.797  1.00  0.00    -0.327 N 
HETATM    9  C   UNL     1      40.465 -11.321   6.922  1.00  0.00     0.226 C 
HETATM   10  O   UNL     1      39.547 -11.944   7.449  1.00  0.00    -0.273 OA
HETATM   11  H   UNL     1      42.005 -11.188   5.572  1.00  0.00     0.169 HD
BRANCH   9  12
HETATM   12  C   UNL     1      40.877  -9.954   7.430  1.00  0.00     0.144 C 
BRANCH  12  13
HETATM   13  C   UNL     1      41.648  -9.892   8.713  1.00  0.00    -0.021 A 
HETATM   14  C   UNL     1      42.806 -10.618   9.166  1.00  0.00     0.001 A 
HETATM   15  C   UNL     1      43.667 -11.592   8.613  1.00  0.00     0.051 A 
HETATM   16  C   UNL     1      43.054 -10.220  10.484  1.00  0.00     0.043 A 
HETATM   17  C   UNL     1      44.725 -12.126   9.369  1.00  0.00     0.069 A 
HETATM   18  C   UNL     1      44.927 -11.704  10.680  1.00  0.00     0.039 A 
HETATM   19  C   UNL     1      44.095 -10.743  11.260  1.00  0.00     0.033 A 
HETATM   20  N   UNL     1      42.109  -9.283  10.818  1.00  0.00    -0.365 N 
HETATM   21  H   UNL     1      42.041  -8.835  11.721  1.00  0.00     0.165 HD
HETATM   22  C   UNL     1      41.267  -9.074   9.766  1.00  0.00     0.097 A 
BRANCH  17  23
HETATM   23  O   UNL     1      45.487 -13.053   8.705  1.00  0.00    -0.356 OA
HETATM   24  C   UNL     1      44.889 -13.694   7.585  1.00  0.00     0.210 C 
ENDBRANCH  17  23
ENDBRANCH  12  13
ENDBRANCH   9  12
ENDBRANCH   1   8
BRANCH   3  25
HETATM   25  C   UNL     1      42.475 -16.043   3.942  1.00  0.00     0.165 A 
HETATM   26  N   UNL     1      42.923 -16.761   5.031  1.00  0.00    -0.316 N 
HETATM   27  C   UNL     1      43.799 -17.696   4.537  1.00  0.00     0.130 A 
HETATM   28  C   UNL     1      42.562 -16.509   6.411  1.00  0.00     0.132 C 
HETATM   29  C   UNL     1      44.544 -18.710   5.333  1.00  0.00     0.081 C 
HETATM   30  N   UNL     1      43.883 -17.548   3.231  1.00  0.00    -0.134 NA
HETATM   31  C   UNL     1      45.113 -18.141   6.627  1.00  0.00     0.008 C 
HETATM   32  C   UNL     1      44.092 -18.056   7.763  1.00  0.00     0.002 C 
HETATM   33  C   UNL     1      42.662 -17.703   7.353  1.00  0.00     0.020 C 
HETATM   34  N   UNL     1      43.060 -16.517   2.861  1.00  0.00    -0.129 NA
ENDBRANCH   3  25
TORSDOF 5
ENDMDL
MODEL 9
REMARK VINA RESULT:      -8.8      5.922      8.748
REMARK  5 active torsions:
REMARK  status: ('A' for Active; 'I' for Inactive)
REMARK    1  A    between atoms: O_2  and  C_3 
REMARK    2  A    between atoms: C_10  and  C_11 
REMARK    3  A    between atoms: C_11  and  C_12 
REMARK       I    between atoms: C_12  and  N_13 
REMARK    4  A    between atoms: N_13  and  C_14 
REMARK    5  A    between atoms: C_16  and  C_17 
ROOT
HETATM    1  C   UNL     1      41.136 -12.786   5.788  1.00  0.00     0.035 A 
HETATM    2  C   UNL     1      41.196 -12.113   7.017  1.00  0.00     0.046 A 
HETATM    3  C   UNL     1      41.349 -10.715   7.077  1.00  0.00     0.036 A 
HETATM    4  C   UNL     1      41.431  -9.987   5.883  1.00  0.00     0.048 A 
HETATM    5 CL   UNL     1      41.642  -8.271   5.858  1.00  0.00    -0.083 Cl
HETATM    6  C   UNL     1      41.366 -10.650   4.657  1.00  0.00     0.027 A 
HETATM    7  C   UNL     1      41.223 -12.041   4.612  1.00  0.00     0.031 A 
ENDROOT
BRANCH   1   8
HETATM    8  N   UNL     1      40.936 -14.184   5.817  1.00  0.00    -0.327 N 
HETATM    9  C   UNL     1      41.888 -15.170   5.584  1.00  0.00     0.226 C 
HETATM   10  O   UNL     1      43.101 -14.991   5.507  1.00  0.00    -0.273 OA
HETATM   11  H   UNL     1      39.995 -14.503   6.012  1.00  0.00     0.169 HD
BRANCH   9  12
HETATM   12  C   UNL     1      41.282 -16.539   5.346  1.00  0.00     0.144 C 
BRANCH  12  13
HETATM   13  C   UNL     1      41.633 -17.243   4.070  1.00  0.00    -0.021 A 
HETATM   14  C   UNL     1      42.609 -18.261   3.780  1.00  0.00     0.001 A 
HETATM   15  C   UNL     1      43.547 -19.003   4.532  1.00  0.00     0.051 A 
HETATM   16  C   UNL     1      42.566 -18.494   2.401  1.00  0.00     0.043 A 
HETATM   17  C   UNL     1      44.394 -19.934   3.904  1.00  0.00     0.069 A 
HETATM   18  C   UNL     1      44.319 -20.125   2.527  1.00  0.00     0.039 A 
HETATM   19  C   UNL     1      43.404 -19.408   1.752  1.00  0.00     0.033 A 
HETATM   20  N   UNL     1      41.601 -17.675   1.874  1.00  0.00    -0.365 N 
HETATM   21  H   UNL     1      41.367 -17.624   0.892  1.00  0.00     0.165 HD
HETATM   22  C   UNL     1      41.031 -16.927   2.862  1.00  0.00     0.097 A 
BRANCH  17  23
HETATM   23  O   UNL     1      45.246 -20.590   4.753  1.00  0.00    -0.356 OA
HETATM   24  C   UNL     1      44.684 -21.616   5.563  1.00  0.00     0.210 C 
ENDBRANCH  17  23
ENDBRANCH  12  13
ENDBRANCH   9  12
ENDBRANCH   1   8
BRANCH   3  25
HETATM   25  C   UNL     1      41.397 -10.060   8.379  1.00  0.00     0.165 A 
HETATM   26  N   UNL     1      42.391 -10.211   9.323  1.00  0.00    -0.316 N 
HETATM   27  C   UNL     1      42.036  -9.410  10.381  1.00  0.00     0.130 A 
HETATM   28  C   UNL     1      43.533 -11.093   9.208  1.00  0.00     0.132 C 
HETATM   29  C   UNL     1      42.801  -9.235  11.647  1.00  0.00     0.081 C 
HETATM   30  N   UNL     1      40.895  -8.818  10.099  1.00  0.00    -0.134 NA
HETATM   31  C   UNL     1      43.350 -10.550  12.190  1.00  0.00     0.008 C 
HETATM   32  C   UNL     1      44.646 -11.000  11.514  1.00  0.00     0.002 C 
HETATM   33  C   UNL     1      44.763 -10.699  10.019  1.00  0.00     0.020 C 
HETATM   34  N   UNL     1      40.495  -9.224   8.853  1.00  0.00    -0.129 NA
ENDBRANCH   3  25
TORSDOF 5
ENDMDL
MODEL 10
REMARK VINA RESULT:      -8.8      3.459      9.474
REMARK  5 active torsions:
REMARK  status: ('A' for Active; 'I' for Inactive)
REMARK    1  A    between atoms: O_2  and  C_3 
REMARK    2  A    between atoms: C_10  and  C_11 
REMARK    3  A    between atoms: C_11  and  C_12 
REMARK       I    between atoms: C_12  and  N_13 
REMARK    4  A    between atoms: N_13  and  C_14 
REMARK    5  A    between atoms: C_16  and  C_17 
ROOT
HETATM    1  C   UNL     1      41.408 -15.868   1.012  1.00  0.00     0.035 A 
HETATM    2  C   UNL     1      42.354 -16.637   1.706  1.00  0.00     0.046 A 
HETATM    3  C   UNL     1      42.191 -16.936   3.072  1.00  0.00     0.036 A 
HETATM    4  C   UNL     1      41.055 -16.464   3.742  1.00  0.00     0.048 A 
HETATM    5 CL   UNL     1      40.782 -16.761   5.423  1.00  0.00    -0.083 Cl
HETATM    6  C   UNL     1      40.108 -15.703   3.057  1.00  0.00     0.027 A 
HETATM    7  C   UNL     1      40.287 -15.405   1.701  1.00  0.00     0.031 A 
ENDROOT
BRANCH   1   8
HETATM    8  N   UNL     1      41.626 -15.653  -0.366  1.00  0.00    -0.327 N 
HETATM    9  C   UNL     1      41.686 -14.428  -1.023  1.00  0.00     0.226 C 
HETATM   10  O   UNL     1      41.755 -13.328  -0.480  1.00  0.00    -0.273 OA
HETATM   11  H   UNL     1      41.732 -16.479  -0.943  1.00  0.00     0.169 HD
BRANCH   9  12
HETATM   12  C   UNL     1      41.580 -14.554  -2.529  1.00  0.00     0.144 C 
BRANCH  12  13
HETATM   13  C   UNL     1      40.256 -14.960  -3.102  1.00  0.00    -0.021 A 
HETATM   14  C   UNL     1      39.079 -14.194  -3.421  1.00  0.00     0.001 A 
HETATM   15  C   UNL     1      38.720 -12.828  -3.374  1.00  0.00     0.051 A 
HETATM   16  C   UNL     1      38.102 -15.097  -3.852  1.00  0.00     0.043 A 
HETATM   17  C   UNL     1      37.430 -12.412  -3.748  1.00  0.00     0.069 A 
HETATM   18  C   UNL     1      36.489 -13.350  -4.161  1.00  0.00     0.039 A 
HETATM   19  C   UNL     1      36.809 -14.709  -4.221  1.00  0.00     0.033 A 
HETATM   20  N   UNL     1      38.655 -16.352  -3.817  1.00  0.00    -0.365 N 
HETATM   21  H   UNL     1      38.165 -17.201  -4.063  1.00  0.00     0.165 HD
HETATM   22  C   UNL     1      39.944 -16.283  -3.377  1.00  0.00     0.097 A 
BRANCH  17  23
HETATM   23  O   UNL     1      37.223 -11.060  -3.664  1.00  0.00    -0.356 OA
HETATM   24  C   UNL     1      36.779 -10.402  -4.845  1.00  0.00     0.210 C 
ENDBRANCH  17  23
ENDBRANCH  12  13
ENDBRANCH   9  12
ENDBRANCH   1   8
BRANCH   3  25
HETATM   25  C   UNL     1      43.197 -17.748   3.748  1.00  0.00     0.165 A 
HETATM   26  N   UNL     1      43.621 -19.001   3.355  1.00  0.00    -0.316 N 
HETATM   27  C   UNL     1      44.575 -19.382   4.266  1.00  0.00     0.130 A 
HETATM   28  C   UNL     1      43.097 -19.753   2.234  1.00  0.00     0.132 C 
HETATM   29  C   UNL     1      45.331 -20.666   4.263  1.00  0.00     0.081 C 
HETATM   30  N   UNL     1      44.714 -18.426   5.160  1.00  0.00    -0.134 NA
HETATM   31  C   UNL     1      44.448 -21.867   3.943  1.00  0.00     0.008 C 
HETATM   32  C   UNL     1      44.190 -22.060   2.448  1.00  0.00     0.002 C 
HETATM   33  C   UNL     1      44.043 -20.781   1.623  1.00  0.00     0.020 C 
HETATM   34  N   UNL     1      43.854 -17.409   4.838  1.00  0.00    -0.129 NA
ENDBRANCH   3  25
TORSDOF 5
ENDMDL
