MODEL 1
REMARK VINA RESULT:      -9.0      0.000      0.000
REMARK  10 active torsions:
REMARK  status: ('A' for Active; 'I' for Inactive)
REMARK    1  A    between atoms: C_2  and  O_3 
REMARK    2  A    between atoms: O_3  and  C_4 
REMARK    3  A    between atoms: C_4  and  C_5 
REMARK    4  A    between atoms: C_7  and  N_8 
REMARK    5  A    between atoms: N_8  and  C_9 
REMARK    6  A    between atoms: C_9  and  N_10 
REMARK       I    between atoms: N_10  and  C_11 
REMARK    7  A    between atoms: C_11  and  C_12 
REMARK    8  A    between atoms: C_21  and  N_22 
REMARK    9  A    between atoms: N_25  and  C_27 
REMARK   10  A    between atoms: C_27  and  C_28 
ROOT
HETATM    1  C   UNL     1      43.425 -14.191   5.960  1.00  0.00     0.041 A 
HETATM    2  C   UNL     1      43.402 -14.902   4.752  1.00  0.00     0.049 A 
HETATM    3  C   UNL     1      42.542 -14.515   3.714  1.00  0.00     0.062 A 
HETATM    4  C   UNL     1      41.727 -13.363   3.856  1.00  0.00     0.057 A 
HETATM    5  C   UNL     1      41.769 -12.669   5.077  1.00  0.00     0.033 A 
HETATM    6  C   UNL     1      42.602 -13.076   6.120  1.00  0.00     0.020 A 
ENDROOT
BRANCH   3   7
HETATM    7  N   UNL     1      42.323 -15.352   2.588  1.00  0.00    -0.331 N 
HETATM    8  H   UNL     1      42.228 -14.824   1.730  1.00  0.00     0.168 HD
BRANCH   7   9
HETATM    9  C   UNL     1      41.748 -16.579   2.563  1.00  0.00     0.179 C 
HETATM   10  S   UNL     1      40.206 -16.746   1.944  1.00  0.00    -0.040 SA
BRANCH   9  11
HETATM   11  N   UNL     1      42.425 -17.687   2.974  1.00  0.00    -0.299 N 
HETATM   12  C   UNL     1      43.631 -18.149   2.445  1.00  0.00     0.258 C 
HETATM   13  O   UNL     1      44.401 -17.490   1.756  1.00  0.00    -0.267 OA
HETATM   14  H   UNL     1      41.822 -18.385   3.386  1.00  0.00     0.171 HD
BRANCH  12  15
HETATM   15  C   UNL     1      43.941 -19.581   2.755  1.00  0.00     0.038 A 
HETATM   16  C   UNL     1      44.508 -19.957   3.990  1.00  0.00    -0.046 A 
HETATM   17  C   UNL     1      44.842 -18.959   5.064  1.00  0.00     0.049 C 
HETATM   18  C   UNL     1      44.798 -21.314   4.217  1.00  0.00     0.007 A 
HETATM   19  C   UNL     1      44.526 -22.280   3.249  1.00  0.00     0.001 A 
HETATM   20  C   UNL     1      43.979 -21.905   2.026  1.00  0.00     0.001 A 
HETATM   21  C   UNL     1      43.699 -20.562   1.774  1.00  0.00     0.017 A 
ENDBRANCH  12  15
ENDBRANCH   9  11
ENDBRANCH   7   9
ENDBRANCH   3   7
BRANCH   4  22
HETATM   22  N   UNL     1      40.936 -12.842   2.836  1.00  0.00    -0.376 N 
HETATM   23  C   UNL     1      39.477 -13.014   2.878  1.00  0.00     0.150 C 
HETATM   24  C   UNL     1      38.940 -13.202   1.442  1.00  0.00     0.255 C 
HETATM   25  N   UNL     1      39.423 -12.066   0.529  1.00  0.00    -0.064 N 
HETATM   26  H   UNL     1      39.040 -11.197   0.920  1.00  0.00     0.280 HD
HETATM   27  C   UNL     1      40.946 -11.951   0.548  1.00  0.00     0.255 C 
HETATM   28  C   UNL     1      41.473 -11.780   1.987  1.00  0.00     0.150 C 
BRANCH  25  29
HETATM   29  C   UNL     1      38.896 -12.190  -0.878  1.00  0.00     0.273 C 
BRANCH  29  30
HETATM   30  C   UNL     1      39.766 -13.049  -1.752  1.00  0.00    -0.033 A 
HETATM   31  C   UNL     1      39.781 -14.444  -1.588  1.00  0.00     0.009 A 
HETATM   32  C   UNL     1      40.606 -15.239  -2.384  1.00  0.00     0.001 A 
HETATM   33  C   UNL     1      41.423 -14.653  -3.348  1.00  0.00     0.000 A 
HETATM   34  C   UNL     1      41.413 -13.272  -3.523  1.00  0.00     0.001 A 
HETATM   35  C   UNL     1      40.590 -12.471  -2.730  1.00  0.00     0.009 A 
ENDBRANCH  29  30
ENDBRANCH  25  29
ENDBRANCH   4  22
BRANCH   1  36
HETATM   36  C   UNL     1      44.306 -14.686   7.051  1.00  0.00     0.293 C 
HETATM   37  O   UNL     1      44.927 -13.948   7.797  1.00  0.00    -0.259 OA
BRANCH  36  38
HETATM   38  O   UNL     1      44.343 -16.040   7.037  1.00  0.00    -0.318 OA
BRANCH  38  39
HETATM   39  C   UNL     1      43.493 -16.705   7.986  1.00  0.00     0.174 C 
HETATM   40  C   UNL     1      42.361 -17.405   7.261  1.00  0.00     0.034 C 
ENDBRANCH  38  39
ENDBRANCH  36  38
ENDBRANCH   1  36
TORSDOF 10
ENDMDL
MODEL 2
REMARK VINA RESULT:      -8.8      4.002      8.023
REMARK  10 active torsions:
REMARK  status: ('A' for Active; 'I' for Inactive)
REMARK    1  A    between atoms: C_2  and  O_3 
REMARK    2  A    between atoms: O_3  and  C_4 
REMARK    3  A    between atoms: C_4  and  C_5 
REMARK    4  A    between atoms: C_7  and  N_8 
REMARK    5  A    between atoms: N_8  and  C_9 
REMARK    6  A    between atoms: C_9  and  N_10 
REMARK       I    between atoms: N_10  and  C_11 
REMARK    7  A    between atoms: C_11  and  C_12 
REMARK    8  A    between atoms: C_21  and  N_22 
REMARK    9  A    between atoms: N_25  and  C_27 
REMARK   10  A    between atoms: C_27  and  C_28 
ROOT
HETATM    1  C   UNL     1      39.434 -13.845   2.607  1.00  0.00     0.041 A 
HETATM    2  C   UNL     1      40.075 -14.661   3.548  1.00  0.00     0.049 A 
HETATM    3  C   UNL     1      40.465 -14.143   4.792  1.00  0.00     0.062 A 
HETATM    4  C   UNL     1      40.161 -12.801   5.133  1.00  0.00     0.057 A 
HETATM    5  C   UNL     1      39.518 -12.004   4.171  1.00  0.00     0.033 A 
HETATM    6  C   UNL     1      39.160 -12.513   2.921  1.00  0.00     0.020 A 
ENDROOT
BRANCH   3   7
HETATM    7  N   UNL     1      41.324 -14.873   5.657  1.00  0.00    -0.331 N 
HETATM    8  H   UNL     1      41.081 -14.750   6.631  1.00  0.00     0.168 HD
BRANCH   7   9
HETATM    9  C   UNL     1      42.609 -15.239   5.436  1.00  0.00     0.179 C 
HETATM   10  S   UNL     1      43.834 -14.466   6.270  1.00  0.00    -0.040 SA
BRANCH   9  11
HETATM   11  N   UNL     1      42.920 -16.266   4.597  1.00  0.00    -0.299 N 
HETATM   12  C   UNL     1      42.306 -17.518   4.579  1.00  0.00     0.258 C 
HETATM   13  O   UNL     1      41.224 -17.784   5.092  1.00  0.00    -0.267 OA
HETATM   14  H   UNL     1      43.877 -16.234   4.275  1.00  0.00     0.171 HD
BRANCH  12  15
HETATM   15  C   UNL     1      43.091 -18.590   3.887  1.00  0.00     0.038 A 
HETATM   16  C   UNL     1      42.942 -18.831   2.506  1.00  0.00    -0.046 A 
HETATM   17  C   UNL     1      41.992 -18.044   1.645  1.00  0.00     0.049 C 
HETATM   18  C   UNL     1      43.690 -19.864   1.915  1.00  0.00     0.007 A 
HETATM   19  C   UNL     1      44.572 -20.638   2.669  1.00  0.00     0.001 A 
HETATM   20  C   UNL     1      44.707 -20.407   4.034  1.00  0.00     0.001 A 
HETATM   21  C   UNL     1      43.962 -19.396   4.644  1.00  0.00     0.017 A 
ENDBRANCH  12  15
ENDBRANCH   9  11
ENDBRANCH   7   9
ENDBRANCH   3   7
BRANCH   4  22
HETATM   22  N   UNL     1      40.404 -12.243   6.384  1.00  0.00    -0.376 N 
HETATM   23  C   UNL     1      39.511 -12.548   7.511  1.00  0.00     0.150 C 
HETATM   24  C   UNL     1      39.375 -11.301   8.411  1.00  0.00     0.255 C 
HETATM   25  N   UNL     1      40.758 -10.773   8.819  1.00  0.00    -0.064 N 
HETATM   26  H   UNL     1      41.211 -11.525   9.351  1.00  0.00     0.280 HD
HETATM   27  C   UNL     1      41.623 -10.487   7.593  1.00  0.00     0.255 C 
HETATM   28  C   UNL     1      41.740 -11.733   6.692  1.00  0.00     0.150 C 
BRANCH  25  29
HETATM   29  C   UNL     1      40.675  -9.572   9.727  1.00  0.00     0.273 C 
BRANCH  29  30
HETATM   30  C   UNL     1      41.604  -9.666  10.905  1.00  0.00    -0.033 A 
HETATM   31  C   UNL     1      41.962  -8.512  11.620  1.00  0.00     0.009 A 
HETATM   32  C   UNL     1      42.842  -8.594  12.699  1.00  0.00     0.001 A 
HETATM   33  C   UNL     1      43.373  -9.826  13.074  1.00  0.00     0.000 A 
HETATM   34  C   UNL     1      43.021 -10.979  12.375  1.00  0.00     0.001 A 
HETATM   35  C   UNL     1      42.141 -10.902  11.296  1.00  0.00     0.009 A 
ENDBRANCH  29  30
ENDBRANCH  25  29
ENDBRANCH   4  22
BRANCH   1  36
HETATM   36  C   UNL     1      39.105 -14.427   1.278  1.00  0.00     0.293 C 
HETATM   37  O   UNL     1      38.005 -14.332   0.760  1.00  0.00    -0.259 OA
BRANCH  36  38
HETATM   38  O   UNL     1      40.174 -15.101   0.792  1.00  0.00    -0.318 OA
BRANCH  38  39
HETATM   39  C   UNL     1      40.642 -14.691  -0.504  1.00  0.00     0.174 C 
HETATM   40  C   UNL     1      41.650 -13.568  -0.354  1.00  0.00     0.034 C 
ENDBRANCH  38  39
ENDBRANCH  36  38
ENDBRANCH   1  36
TORSDOF 10
ENDMDL
MODEL 3
REMARK VINA RESULT:      -8.5      4.243      8.117
REMARK  10 active torsions:
REMARK  status: ('A' for Active; 'I' for Inactive)
REMARK    1  A    between atoms: C_2  and  O_3 
REMARK    2  A    between atoms: O_3  and  C_4 
REMARK    3  A    between atoms: C_4  and  C_5 
REMARK    4  A    between atoms: C_7  and  N_8 
REMARK    5  A    between atoms: N_8  and  C_9 
REMARK    6  A    between atoms: C_9  and  N_10 
REMARK       I    between atoms: N_10  and  C_11 
REMARK    7  A    between atoms: C_11  and  C_12 
REMARK    8  A    between atoms: C_21  and  N_22 
REMARK    9  A    between atoms: N_25  and  C_27 
REMARK   10  A    between atoms: C_27  and  C_28 
ROOT
HETATM    1  C   UNL     1      39.447 -13.533   2.957  1.00  0.00     0.041 A 
HETATM    2  C   UNL     1      40.127 -14.326   3.892  1.00  0.00     0.049 A 
HETATM    3  C   UNL     1      40.518 -13.793   5.129  1.00  0.00     0.062 A 
HETATM    4  C   UNL     1      40.179 -12.459   5.470  1.00  0.00     0.057 A 
HETATM    5  C   UNL     1      39.498 -11.685   4.515  1.00  0.00     0.033 A 
HETATM    6  C   UNL     1      39.138 -12.209   3.272  1.00  0.00     0.020 A 
ENDROOT
BRANCH   3   7
HETATM    7  N   UNL     1      41.412 -14.493   5.983  1.00  0.00    -0.331 N 
HETATM    8  H   UNL     1      41.246 -14.290   6.960  1.00  0.00     0.168 HD
BRANCH   7   9
HETATM    9  C   UNL     1      42.663 -14.928   5.700  1.00  0.00     0.179 C 
HETATM   10  S   UNL     1      43.964 -14.249   6.499  1.00  0.00    -0.040 SA
BRANCH   9  11
HETATM   11  N   UNL     1      42.878 -15.949   4.825  1.00  0.00    -0.299 N 
HETATM   12  C   UNL     1      42.274 -17.206   4.875  1.00  0.00     0.258 C 
HETATM   13  O   UNL     1      41.263 -17.481   5.512  1.00  0.00    -0.267 OA
HETATM   14  H   UNL     1      43.789 -15.910   4.391  1.00  0.00     0.171 HD
BRANCH  12  15
HETATM   15  C   UNL     1      42.977 -18.270   4.090  1.00  0.00     0.038 A 
HETATM   16  C   UNL     1      43.971 -19.078   4.678  1.00  0.00    -0.046 A 
HETATM   17  C   UNL     1      44.392 -18.926   6.114  1.00  0.00     0.049 C 
HETATM   18  C   UNL     1      44.613 -20.047   3.887  1.00  0.00     0.007 A 
HETATM   19  C   UNL     1      44.275 -20.219   2.545  1.00  0.00     0.001 A 
HETATM   20  C   UNL     1      43.304 -19.412   1.963  1.00  0.00     0.001 A 
HETATM   21  C   UNL     1      42.666 -18.434   2.726  1.00  0.00     0.017 A 
ENDBRANCH  12  15
ENDBRANCH   9  11
ENDBRANCH   7   9
ENDBRANCH   3   7
BRANCH   4  22
HETATM   22  N   UNL     1      40.423 -11.890   6.716  1.00  0.00    -0.376 N 
HETATM   23  C   UNL     1      39.521 -12.172   7.842  1.00  0.00     0.150 C 
HETATM   24  C   UNL     1      39.396 -10.913   8.728  1.00  0.00     0.255 C 
HETATM   25  N   UNL     1      40.784 -10.397   9.136  1.00  0.00    -0.064 N 
HETATM   26  H   UNL     1      41.225 -11.148   9.678  1.00  0.00     0.280 HD
HETATM   27  C   UNL     1      41.658 -10.135   7.910  1.00  0.00     0.255 C 
HETATM   28  C   UNL     1      41.764 -11.393   7.024  1.00  0.00     0.150 C 
BRANCH  25  29
HETATM   29  C   UNL     1      40.711  -9.185  10.029  1.00  0.00     0.273 C 
BRANCH  29  30
HETATM   30  C   UNL     1      41.601  -9.295  11.235  1.00  0.00    -0.033 A 
HETATM   31  C   UNL     1      41.958  -8.147  11.961  1.00  0.00     0.009 A 
HETATM   32  C   UNL     1      42.804  -8.245  13.066  1.00  0.00     0.001 A 
HETATM   33  C   UNL     1      43.300  -9.486  13.457  1.00  0.00     0.000 A 
HETATM   34  C   UNL     1      42.949 -10.633  12.749  1.00  0.00     0.001 A 
HETATM   35  C   UNL     1      42.103 -10.540  11.643  1.00  0.00     0.009 A 
ENDBRANCH  29  30
ENDBRANCH  25  29
ENDBRANCH   4  22
BRANCH   1  36
HETATM   36  C   UNL     1      39.117 -14.129   1.636  1.00  0.00     0.293 C 
HETATM   37  O   UNL     1      37.984 -14.430   1.302  1.00  0.00    -0.259 OA
BRANCH  36  38
HETATM   38  O   UNL     1      40.251 -14.324   0.921  1.00  0.00    -0.318 OA
BRANCH  38  39
HETATM   39  C   UNL     1      40.725 -15.679   0.847  1.00  0.00     0.174 C 
HETATM   40  C   UNL     1      41.374 -15.924  -0.501  1.00  0.00     0.034 C 
ENDBRANCH  38  39
ENDBRANCH  36  38
ENDBRANCH   1  36
TORSDOF 10
ENDMDL
MODEL 4
REMARK VINA RESULT:      -8.3      2.146      2.928
REMARK  10 active torsions:
REMARK  status: ('A' for Active; 'I' for Inactive)
REMARK    1  A    between atoms: C_2  and  O_3 
REMARK    2  A    between atoms: O_3  and  C_4 
REMARK    3  A    between atoms: C_4  and  C_5 
REMARK    4  A    between atoms: C_7  and  N_8 
REMARK    5  A    between atoms: N_8  and  C_9 
REMARK    6  A    between atoms: C_9  and  N_10 
REMARK       I    between atoms: N_10  and  C_11 
REMARK    7  A    between atoms: C_11  and  C_12 
REMARK    8  A    between atoms: C_21  and  N_22 
REMARK    9  A    between atoms: N_25  and  C_27 
REMARK   10  A    between atoms: C_27  and  C_28 
ROOT
HETATM    1  C   UNL     1      41.463 -11.359   6.650  1.00  0.00     0.041 A 
HETATM    2  C   UNL     1      42.147 -12.504   6.219  1.00  0.00     0.049 A 
HETATM    3  C   UNL     1      41.931 -13.024   4.935  1.00  0.00     0.062 A 
HETATM    4  C   UNL     1      41.058 -12.360   4.035  1.00  0.00     0.057 A 
HETATM    5  C   UNL     1      40.385 -11.214   4.492  1.00  0.00     0.033 A 
HETATM    6  C   UNL     1      40.578 -10.719   5.782  1.00  0.00     0.020 A 
ENDROOT
BRANCH   3   7
HETATM    7  N   UNL     1      42.419 -14.306   4.566  1.00  0.00    -0.331 N 
HETATM    8  H   UNL     1      42.810 -14.313   3.633  1.00  0.00     0.168 HD
BRANCH   7   9
HETATM    9  C   UNL     1      42.002 -15.514   5.014  1.00  0.00     0.179 C 
HETATM   10  S   UNL     1      40.555 -15.624   5.842  1.00  0.00    -0.040 SA
BRANCH   9  11
HETATM   11  N   UNL     1      42.706 -16.650   4.750  1.00  0.00    -0.299 N 
HETATM   12  C   UNL     1      43.395 -16.925   3.568  1.00  0.00     0.258 C 
HETATM   13  O   UNL     1      43.718 -16.094   2.726  1.00  0.00    -0.267 OA
HETATM   14  H   UNL     1      42.370 -17.450   5.266  1.00  0.00     0.171 HD
BRANCH  12  15
HETATM   15  C   UNL     1      43.713 -18.373   3.352  1.00  0.00     0.038 A 
HETATM   16  C   UNL     1      44.440 -19.113   4.306  1.00  0.00    -0.046 A 
HETATM   17  C   UNL     1      44.946 -18.507   5.586  1.00  0.00     0.049 C 
HETATM   18  C   UNL     1      44.728 -20.464   4.040  1.00  0.00     0.007 A 
HETATM   19  C   UNL     1      44.298 -21.072   2.861  1.00  0.00     0.001 A 
HETATM   20  C   UNL     1      43.592 -20.336   1.915  1.00  0.00     0.001 A 
HETATM   21  C   UNL     1      43.310 -18.991   2.152  1.00  0.00     0.017 A 
ENDBRANCH  12  15
ENDBRANCH   9  11
ENDBRANCH   7   9
ENDBRANCH   3   7
BRANCH   4  22
HETATM   22  N   UNL     1      40.877 -12.737   2.708  1.00  0.00    -0.376 N 
HETATM   23  C   UNL     1      39.881 -13.763   2.365  1.00  0.00     0.150 C 
HETATM   24  C   UNL     1      40.403 -14.614   1.188  1.00  0.00     0.255 C 
HETATM   25  N   UNL     1      40.825 -13.716   0.015  1.00  0.00    -0.064 N 
HETATM   26  H   UNL     1      39.982 -13.211  -0.282  1.00  0.00     0.280 HD
HETATM   27  C   UNL     1      41.855 -12.678   0.457  1.00  0.00     0.255 C 
HETATM   28  C   UNL     1      41.331 -11.844   1.643  1.00  0.00     0.150 C 
BRANCH  25  29
HETATM   29  C   UNL     1      41.313 -14.507  -1.172  1.00  0.00     0.273 C 
BRANCH  29  30
HETATM   30  C   UNL     1      40.217 -14.826  -2.150  1.00  0.00    -0.033 A 
HETATM   31  C   UNL     1      39.028 -14.080  -2.153  1.00  0.00     0.009 A 
HETATM   32  C   UNL     1      38.001 -14.390  -3.045  1.00  0.00     0.001 A 
HETATM   33  C   UNL     1      38.150 -15.447  -3.940  1.00  0.00     0.000 A 
HETATM   34  C   UNL     1      39.327 -16.191  -3.951  1.00  0.00     0.001 A 
HETATM   35  C   UNL     1      40.357 -15.884  -3.061  1.00  0.00     0.009 A 
ENDBRANCH  29  30
ENDBRANCH  25  29
ENDBRANCH   4  22
BRANCH   1  36
HETATM   36  C   UNL     1      41.680 -10.893   8.045  1.00  0.00     0.293 C 
HETATM   37  O   UNL     1      40.781 -10.786   8.862  1.00  0.00    -0.259 OA
BRANCH  36  38
HETATM   38  O   UNL     1      42.982 -10.566   8.226  1.00  0.00    -0.318 OA
BRANCH  38  39
HETATM   39  C   UNL     1      43.611 -11.106   9.399  1.00  0.00     0.174 C 
HETATM   40  C   UNL     1      44.660 -12.124   8.998  1.00  0.00     0.034 C 
ENDBRANCH  38  39
ENDBRANCH  36  38
ENDBRANCH   1  36
TORSDOF 10
ENDMDL
MODEL 5
REMARK VINA RESULT:      -8.2      2.727      8.064
REMARK  10 active torsions:
REMARK  status: ('A' for Active; 'I' for Inactive)
REMARK    1  A    between atoms: C_2  and  O_3 
REMARK    2  A    between atoms: O_3  and  C_4 
REMARK    3  A    between atoms: C_4  and  C_5 
REMARK    4  A    between atoms: C_7  and  N_8 
REMARK    5  A    between atoms: N_8  and  C_9 
REMARK    6  A    between atoms: C_9  and  N_10 
REMARK       I    between atoms: N_10  and  C_11 
REMARK    7  A    between atoms: C_11  and  C_12 
REMARK    8  A    between atoms: C_21  and  N_22 
REMARK    9  A    between atoms: N_25  and  C_27 
REMARK   10  A    between atoms: C_27  and  C_28 
ROOT
HETATM    1  C   UNL     1      39.799 -13.709  -1.829  1.00  0.00     0.041 A 
HETATM    2  C   UNL     1      39.776 -13.483  -0.446  1.00  0.00     0.049 A 
HETATM    3  C   UNL     1      40.358 -14.405   0.436  1.00  0.00     0.062 A 
HETATM    4  C   UNL     1      41.029 -15.548  -0.067  1.00  0.00     0.057 A 
HETATM    5  C   UNL     1      41.037 -15.751  -1.458  1.00  0.00     0.033 A 
HETATM    6  C   UNL     1      40.428 -14.849  -2.332  1.00  0.00     0.020 A 
ENDROOT
BRANCH   3   7
HETATM    7  N   UNL     1      40.137 -14.324   1.837  1.00  0.00    -0.331 N 
HETATM    8  H   UNL     1      39.167 -14.146   2.062  1.00  0.00     0.168 HD
BRANCH   7   9
HETATM    9  C   UNL     1      41.017 -13.954   2.798  1.00  0.00     0.179 C 
HETATM   10  S   UNL     1      41.555 -12.374   2.849  1.00  0.00    -0.040 SA
BRANCH   9  11
HETATM   11  N   UNL     1      41.423 -14.828   3.761  1.00  0.00    -0.299 N 
HETATM   12  C   UNL     1      41.243 -14.668   5.135  1.00  0.00     0.258 C 
HETATM   13  O   UNL     1      40.451 -13.894   5.660  1.00  0.00    -0.267 OA
HETATM   14  H   UNL     1      42.219 -15.383   3.477  1.00  0.00     0.171 HD
BRANCH  12  15
HETATM   15  C   UNL     1      42.135 -15.519   5.986  1.00  0.00     0.038 A 
HETATM   16  C   UNL     1      43.461 -15.133   6.269  1.00  0.00    -0.046 A 
HETATM   17  C   UNL     1      44.066 -13.863   5.738  1.00  0.00     0.049 C 
HETATM   18  C   UNL     1      44.260 -15.981   7.056  1.00  0.00     0.007 A 
HETATM   19  C   UNL     1      43.757 -17.181   7.560  1.00  0.00     0.001 A 
HETATM   20  C   UNL     1      42.453 -17.565   7.268  1.00  0.00     0.001 A 
HETATM   21  C   UNL     1      41.648 -16.746   6.475  1.00  0.00     0.017 A 
ENDBRANCH  12  15
ENDBRANCH   9  11
ENDBRANCH   7   9
ENDBRANCH   3   7
BRANCH   4  22
HETATM   22  N   UNL     1      41.734 -16.447   0.727  1.00  0.00    -0.376 N 
HETATM   23  C   UNL     1      41.025 -17.541   1.405  1.00  0.00     0.150 C 
HETATM   24  C   UNL     1      41.679 -17.805   2.778  1.00  0.00     0.255 C 
HETATM   25  N   UNL     1      43.192 -18.023   2.626  1.00  0.00    -0.064 N 
HETATM   26  H   UNL     1      43.307 -18.853   2.033  1.00  0.00     0.280 HD
HETATM   27  C   UNL     1      43.850 -16.846   1.908  1.00  0.00     0.255 C 
HETATM   28  C   UNL     1      43.179 -16.580   0.545  1.00  0.00     0.150 C 
BRANCH  25  29
HETATM   29  C   UNL     1      43.869 -18.317   3.940  1.00  0.00     0.273 C 
BRANCH  29  30
HETATM   30  C   UNL     1      44.164 -19.779   4.131  1.00  0.00    -0.033 A 
HETATM   31  C   UNL     1      44.328 -20.307   5.422  1.00  0.00     0.009 A 
HETATM   32  C   UNL     1      44.624 -21.659   5.599  1.00  0.00     0.001 A 
HETATM   33  C   UNL     1      44.759 -22.494   4.493  1.00  0.00     0.000 A 
HETATM   34  C   UNL     1      44.593 -21.983   3.208  1.00  0.00     0.001 A 
HETATM   35  C   UNL     1      44.296 -20.632   3.025  1.00  0.00     0.009 A 
ENDBRANCH  29  30
ENDBRANCH  25  29
ENDBRANCH   4  22
BRANCH   1  36
HETATM   36  C   UNL     1      39.106 -12.735  -2.713  1.00  0.00     0.293 C 
HETATM   37  O   UNL     1      37.986 -12.916  -3.161  1.00  0.00    -0.259 OA
BRANCH  36  38
HETATM   38  O   UNL     1      39.921 -11.684  -2.971  1.00  0.00    -0.318 OA
BRANCH  38  39
HETATM   39  C   UNL     1      40.724 -11.785  -4.159  1.00  0.00     0.174 C 
HETATM   40  C   UNL     1      42.183 -11.567  -3.812  1.00  0.00     0.034 C 
ENDBRANCH  38  39
ENDBRANCH  36  38
ENDBRANCH   1  36
TORSDOF 10
ENDMDL
MODEL 6
REMARK VINA RESULT:      -8.2      2.436      6.502
REMARK  10 active torsions:
REMARK  status: ('A' for Active; 'I' for Inactive)
REMARK    1  A    between atoms: C_2  and  O_3 
REMARK    2  A    between atoms: O_3  and  C_4 
REMARK    3  A    between atoms: C_4  and  C_5 
REMARK    4  A    between atoms: C_7  and  N_8 
REMARK    5  A    between atoms: N_8  and  C_9 
REMARK    6  A    between atoms: C_9  and  N_10 
REMARK       I    between atoms: N_10  and  C_11 
REMARK    7  A    between atoms: C_11  and  C_12 
REMARK    8  A    between atoms: C_21  and  N_22 
REMARK    9  A    between atoms: N_25  and  C_27 
REMARK   10  A    between atoms: C_27  and  C_28 
ROOT
HETATM    1  C   UNL     1      44.079 -19.634   5.223  1.00  0.00     0.041 A 
HETATM    2  C   UNL     1      44.150 -18.685   4.195  1.00  0.00     0.049 A 
HETATM    3  C   UNL     1      43.608 -17.403   4.369  1.00  0.00     0.062 A 
HETATM    4  C   UNL     1      43.032 -17.036   5.612  1.00  0.00     0.057 A 
HETATM    5  C   UNL     1      42.973 -18.007   6.626  1.00  0.00     0.033 A 
HETATM    6  C   UNL     1      43.484 -19.292   6.438  1.00  0.00     0.020 A 
ENDROOT
BRANCH   3   7
HETATM    7  N   UNL     1      43.450 -16.515   3.272  1.00  0.00    -0.331 N 
HETATM    8  H   UNL     1      43.163 -15.591   3.566  1.00  0.00     0.168 HD
BRANCH   7   9
HETATM    9  C   UNL     1      43.136 -16.823   1.991  1.00  0.00     0.179 C 
HETATM   10  S   UNL     1      43.934 -18.080   1.234  1.00  0.00    -0.040 SA
BRANCH   9  11
HETATM   11  N   UNL     1      42.140 -16.172   1.329  1.00  0.00    -0.299 N 
HETATM   12  C   UNL     1      41.744 -14.852   1.547  1.00  0.00     0.258 C 
HETATM   13  O   UNL     1      42.404 -14.002   2.135  1.00  0.00    -0.267 OA
HETATM   14  H   UNL     1      41.430 -16.797   0.973  1.00  0.00     0.171 HD
BRANCH  12  15
HETATM   15  C   UNL     1      40.383 -14.512   1.021  1.00  0.00     0.038 A 
HETATM   16  C   UNL     1      40.217 -13.881  -0.229  1.00  0.00    -0.046 A 
HETATM   17  C   UNL     1      41.379 -13.504  -1.106  1.00  0.00     0.049 C 
HETATM   18  C   UNL     1      38.917 -13.567  -0.662  1.00  0.00     0.007 A 
HETATM   19  C   UNL     1      37.803 -13.877   0.120  1.00  0.00     0.001 A 
HETATM   20  C   UNL     1      37.971 -14.488   1.358  1.00  0.00     0.001 A 
HETATM   21  C   UNL     1      39.254 -14.793   1.813  1.00  0.00     0.017 A 
ENDBRANCH  12  15
ENDBRANCH   9  11
ENDBRANCH   7   9
ENDBRANCH   3   7
BRANCH   4  22
HETATM   22  N   UNL     1      42.579 -15.754   5.909  1.00  0.00    -0.376 N 
HETATM   23  C   UNL     1      41.142 -15.449   5.845  1.00  0.00     0.150 C 
HETATM   24  C   UNL     1      40.945 -14.005   5.337  1.00  0.00     0.255 C 
HETATM   25  N   UNL     1      41.771 -13.017   6.174  1.00  0.00    -0.064 N 
HETATM   26  H   UNL     1      41.418 -13.087   7.136  1.00  0.00     0.280 HD
HETATM   27  C   UNL     1      43.247 -13.408   6.193  1.00  0.00     0.255 C 
HETATM   28  C   UNL     1      43.433 -14.857   6.687  1.00  0.00     0.150 C 
BRANCH  25  29
HETATM   29  C   UNL     1      41.584 -11.588   5.733  1.00  0.00     0.273 C 
BRANCH  29  30
HETATM   30  C   UNL     1      40.623 -11.452   4.586  1.00  0.00    -0.033 A 
HETATM   31  C   UNL     1      41.100 -11.266   3.278  1.00  0.00     0.009 A 
HETATM   32  C   UNL     1      40.209 -11.117   2.216  1.00  0.00     0.001 A 
HETATM   33  C   UNL     1      38.836 -11.151   2.447  1.00  0.00     0.000 A 
HETATM   34  C   UNL     1      38.350 -11.340   3.738  1.00  0.00     0.001 A 
HETATM   35  C   UNL     1      39.238 -11.490   4.805  1.00  0.00     0.009 A 
ENDBRANCH  29  30
ENDBRANCH  25  29
ENDBRANCH   4  22
BRANCH   1  36
HETATM   36  C   UNL     1      44.609 -20.999   4.959  1.00  0.00     0.293 C 
HETATM   37  O   UNL     1      44.722 -21.851   5.824  1.00  0.00    -0.259 OA
BRANCH  36  38
HETATM   38  O   UNL     1      44.983 -21.106   3.662  1.00  0.00    -0.318 OA
BRANCH  38  39
HETATM   39  C   UNL     1      44.486 -22.254   2.955  1.00  0.00     0.174 C 
HETATM   40  C   UNL     1      43.998 -21.841   1.581  1.00  0.00     0.034 C 
ENDBRANCH  38  39
ENDBRANCH  36  38
ENDBRANCH   1  36
TORSDOF 10
ENDMDL
MODEL 7
REMARK VINA RESULT:      -8.1      2.676      7.996
REMARK  10 active torsions:
REMARK  status: ('A' for Active; 'I' for Inactive)
REMARK    1  A    between atoms: C_2  and  O_3 
REMARK    2  A    between atoms: O_3  and  C_4 
REMARK    3  A    between atoms: C_4  and  C_5 
REMARK    4  A    between atoms: C_7  and  N_8 
REMARK    5  A    between atoms: N_8  and  C_9 
REMARK    6  A    between atoms: C_9  and  N_10 
REMARK       I    between atoms: N_10  and  C_11 
REMARK    7  A    between atoms: C_11  and  C_12 
REMARK    8  A    between atoms: C_21  and  N_22 
REMARK    9  A    between atoms: N_25  and  C_27 
REMARK   10  A    between atoms: C_27  and  C_28 
ROOT
HETATM    1  C   UNL     1      43.551 -18.869   3.382  1.00  0.00     0.041 A 
HETATM    2  C   UNL     1      43.412 -17.679   2.655  1.00  0.00     0.049 A 
HETATM    3  C   UNL     1      42.882 -16.531   3.262  1.00  0.00     0.062 A 
HETATM    4  C   UNL     1      42.535 -16.547   4.637  1.00  0.00     0.057 A 
HETATM    5  C   UNL     1      42.684 -17.753   5.343  1.00  0.00     0.033 A 
HETATM    6  C   UNL     1      43.181 -18.903   4.727  1.00  0.00     0.020 A 
ENDROOT
BRANCH   3   7
HETATM    7  N   UNL     1      42.506 -15.398   2.493  1.00  0.00    -0.331 N 
HETATM    8  H   UNL     1      42.774 -14.529   2.935  1.00  0.00     0.168 HD
BRANCH   7   9
HETATM    9  C   UNL     1      41.479 -15.292   1.615  1.00  0.00     0.179 C 
HETATM   10  S   UNL     1      39.962 -15.831   2.063  1.00  0.00    -0.040 SA
BRANCH   9  11
HETATM   11  N   UNL     1      41.644 -14.700   0.400  1.00  0.00    -0.299 N 
HETATM   12  C   UNL     1      41.916 -13.349   0.182  1.00  0.00     0.258 C 
HETATM   13  O   UNL     1      42.337 -12.566   1.027  1.00  0.00    -0.267 OA
HETATM   14  H   UNL     1      41.154 -15.181  -0.341  1.00  0.00     0.171 HD
BRANCH  12  15
HETATM   15  C   UNL     1      41.627 -12.869  -1.207  1.00  0.00     0.038 A 
HETATM   16  C   UNL     1      40.303 -12.712  -1.667  1.00  0.00    -0.046 A 
HETATM   17  C   UNL     1      39.107 -13.018  -0.808  1.00  0.00     0.049 C 
HETATM   18  C   UNL     1      40.092 -12.278  -2.987  1.00  0.00     0.007 A 
HETATM   19  C   UNL     1      41.165 -11.997  -3.833  1.00  0.00     0.001 A 
HETATM   20  C   UNL     1      42.469 -12.165  -3.381  1.00  0.00     0.001 A 
HETATM   21  C   UNL     1      42.701 -12.610  -2.080  1.00  0.00     0.017 A 
ENDBRANCH  12  15
ENDBRANCH   9  11
ENDBRANCH   7   9
ENDBRANCH   3   7
BRANCH   4  22
HETATM   22  N   UNL     1      42.115 -15.425   5.345  1.00  0.00    -0.376 N 
HETATM   23  C   UNL     1      40.756 -15.374   5.902  1.00  0.00     0.150 C 
HETATM   24  C   UNL     1      40.221 -13.928   5.821  1.00  0.00     0.255 C 
HETATM   25  N   UNL     1      41.212 -12.946   6.464  1.00  0.00    -0.064 N 
HETATM   26  H   UNL     1      41.294 -13.220   7.450  1.00  0.00     0.280 HD
HETATM   27  C   UNL     1      42.598 -13.067   5.833  1.00  0.00     0.255 C 
HETATM   28  C   UNL     1      43.117 -14.518   5.905  1.00  0.00     0.150 C 
BRANCH  25  29
HETATM   29  C   UNL     1      40.717 -11.522   6.437  1.00  0.00     0.273 C 
BRANCH  29  30
HETATM   30  C   UNL     1      40.707 -10.882   7.796  1.00  0.00    -0.033 A 
HETATM   31  C   UNL     1      39.514 -10.794   8.532  1.00  0.00     0.009 A 
HETATM   32  C   UNL     1      39.500 -10.179   9.784  1.00  0.00     0.001 A 
HETATM   33  C   UNL     1      40.672  -9.646  10.313  1.00  0.00     0.000 A 
HETATM   34  C   UNL     1      41.863  -9.731   9.595  1.00  0.00     0.001 A 
HETATM   35  C   UNL     1      41.883 -10.345   8.343  1.00  0.00     0.009 A 
ENDBRANCH  29  30
ENDBRANCH  25  29
ENDBRANCH   4  22
BRANCH   1  36
HETATM   36  C   UNL     1      44.054 -20.074   2.670  1.00  0.00     0.293 C 
HETATM   37  O   UNL     1      43.608 -20.454   1.601  1.00  0.00    -0.259 OA
BRANCH  36  38
HETATM   38  O   UNL     1      45.012 -20.682   3.411  1.00  0.00    -0.318 OA
BRANCH  38  39
HETATM   39  C   UNL     1      44.767 -22.056   3.754  1.00  0.00     0.174 C 
HETATM   40  C   UNL     1      44.883 -22.240   5.254  1.00  0.00     0.034 C 
ENDBRANCH  38  39
ENDBRANCH  36  38
ENDBRANCH   1  36
TORSDOF 10
ENDMDL
MODEL 8
REMARK VINA RESULT:      -8.0      3.555      7.299
REMARK  10 active torsions:
REMARK  status: ('A' for Active; 'I' for Inactive)
REMARK    1  A    between atoms: C_2  and  O_3 
REMARK    2  A    between atoms: O_3  and  C_4 
REMARK    3  A    between atoms: C_4  and  C_5 
REMARK    4  A    between atoms: C_7  and  N_8 
REMARK    5  A    between atoms: N_8  and  C_9 
REMARK    6  A    between atoms: C_9  and  N_10 
REMARK       I    between atoms: N_10  and  C_11 
REMARK    7  A    between atoms: C_11  and  C_12 
REMARK    8  A    between atoms: C_21  and  N_22 
REMARK    9  A    between atoms: N_25  and  C_27 
REMARK   10  A    between atoms: C_27  and  C_28 
ROOT
HETATM    1  C   UNL     1      43.922 -19.150   3.633  1.00  0.00     0.041 A 
HETATM    2  C   UNL     1      44.267 -18.339   4.723  1.00  0.00     0.049 A 
HETATM    3  C   UNL     1      43.693 -17.068   4.875  1.00  0.00     0.062 A 
HETATM    4  C   UNL     1      42.713 -16.614   3.957  1.00  0.00     0.057 A 
HETATM    5  C   UNL     1      42.386 -17.447   2.873  1.00  0.00     0.033 A 
HETATM    6  C   UNL     1      42.982 -18.698   2.706  1.00  0.00     0.020 A 
ENDROOT
BRANCH   3   7
HETATM    7  N   UNL     1      44.202 -16.139   5.822  1.00  0.00    -0.331 N 
HETATM    8  H   UNL     1      45.158 -15.876   5.625  1.00  0.00     0.168 HD
BRANCH   7   9
HETATM    9  C   UNL     1      43.826 -15.979   7.113  1.00  0.00     0.179 C 
HETATM   10  S   UNL     1      43.382 -17.318   8.007  1.00  0.00    -0.040 SA
BRANCH   9  11
HETATM   11  N   UNL     1      43.863 -14.758   7.715  1.00  0.00    -0.299 N 
HETATM   12  C   UNL     1      44.749 -13.725   7.410  1.00  0.00     0.258 C 
HETATM   13  O   UNL     1      45.414 -13.642   6.383  1.00  0.00    -0.267 OA
HETATM   14  H   UNL     1      43.508 -14.775   8.661  1.00  0.00     0.171 HD
BRANCH  12  15
HETATM   15  C   UNL     1      44.877 -12.676   8.472  1.00  0.00     0.038 A 
HETATM   16  C   UNL     1      46.066 -11.936   8.631  1.00  0.00    -0.046 A 
HETATM   17  C   UNL     1      47.275 -12.150   7.761  1.00  0.00     0.049 C 
HETATM   18  C   UNL     1      46.137 -10.979   9.659  1.00  0.00     0.007 A 
HETATM   19  C   UNL     1      45.052 -10.752  10.506  1.00  0.00     0.001 A 
HETATM   20  C   UNL     1      43.885 -11.493  10.356  1.00  0.00     0.001 A 
HETATM   21  C   UNL     1      43.800 -12.458   9.353  1.00  0.00     0.017 A 
ENDBRANCH  12  15
ENDBRANCH   9  11
ENDBRANCH   7   9
ENDBRANCH   3   7
BRANCH   4  22
HETATM   22  N   UNL     1      42.010 -15.422   4.098  1.00  0.00    -0.376 N 
HETATM   23  C   UNL     1      42.621 -14.153   3.678  1.00  0.00     0.150 C 
HETATM   24  C   UNL     1      42.180 -13.027   4.637  1.00  0.00     0.255 C 
HETATM   25  N   UNL     1      40.650 -12.987   4.760  1.00  0.00    -0.064 N 
HETATM   26  H   UNL     1      40.288 -12.790   3.820  1.00  0.00     0.280 HD
HETATM   27  C   UNL     1      40.095 -14.343   5.195  1.00  0.00     0.255 C 
HETATM   28  C   UNL     1      40.554 -15.463   4.240  1.00  0.00     0.150 C 
BRANCH  25  29
HETATM   29  C   UNL     1      40.170 -11.880   5.664  1.00  0.00     0.273 C 
BRANCH  29  30
HETATM   30  C   UNL     1      39.562 -10.732   4.908  1.00  0.00    -0.033 A 
HETATM   31  C   UNL     1      38.462 -10.943   4.061  1.00  0.00     0.009 A 
HETATM   32  C   UNL     1      37.911  -9.882   3.341  1.00  0.00     0.001 A 
HETATM   33  C   UNL     1      38.452  -8.604   3.457  1.00  0.00     0.000 A 
HETATM   34  C   UNL     1      39.541  -8.382   4.297  1.00  0.00     0.001 A 
HETATM   35  C   UNL     1      40.095  -9.439   5.021  1.00  0.00     0.009 A 
ENDBRANCH  29  30
ENDBRANCH  25  29
ENDBRANCH   4  22
BRANCH   1  36
HETATM   36  C   UNL     1      44.612 -20.459   3.484  1.00  0.00     0.293 C 
HETATM   37  O   UNL     1      44.561 -21.130   2.467  1.00  0.00    -0.259 OA
BRANCH  36  38
HETATM   38  O   UNL     1      45.231 -20.790   4.643  1.00  0.00    -0.318 OA
BRANCH  38  39
HETATM   39  C   UNL     1      44.700 -21.930   5.338  1.00  0.00     0.174 C 
HETATM   40  C   UNL     1      43.958 -21.475   6.580  1.00  0.00     0.034 C 
ENDBRANCH  38  39
ENDBRANCH  36  38
ENDBRANCH   1  36
TORSDOF 10
ENDMDL
MODEL 9
REMARK VINA RESULT:      -8.0      2.494      6.301
REMARK  10 active torsions:
REMARK  status: ('A' for Active; 'I' for Inactive)
REMARK    1  A    between atoms: C_2  and  O_3 
REMARK    2  A    between atoms: O_3  and  C_4 
REMARK    3  A    between atoms: C_4  and  C_5 
REMARK    4  A    between atoms: C_7  and  N_8 
REMARK    5  A    between atoms: N_8  and  C_9 
REMARK    6  A    between atoms: C_9  and  N_10 
REMARK       I    between atoms: N_10  and  C_11 
REMARK    7  A    between atoms: C_11  and  C_12 
REMARK    8  A    between atoms: C_21  and  N_22 
REMARK    9  A    between atoms: N_25  and  C_27 
REMARK   10  A    between atoms: C_27  and  C_28 
ROOT
HETATM    1  C   UNL     1      43.822 -18.871   3.820  1.00  0.00     0.041 A 
HETATM    2  C   UNL     1      43.026 -18.136   4.709  1.00  0.00     0.049 A 
HETATM    3  C   UNL     1      42.378 -16.967   4.285  1.00  0.00     0.062 A 
HETATM    4  C   UNL     1      42.474 -16.548   2.934  1.00  0.00     0.057 A 
HETATM    5  C   UNL     1      43.279 -17.303   2.063  1.00  0.00     0.033 A 
HETATM    6  C   UNL     1      43.950 -18.448   2.497  1.00  0.00     0.020 A 
ENDROOT
BRANCH   3   7
HETATM    7  N   UNL     1      41.772 -16.081   5.216  1.00  0.00    -0.331 N 
HETATM    8  H   UNL     1      40.784 -15.956   5.039  1.00  0.00     0.168 HD
BRANCH   7   9
HETATM    9  C   UNL     1      42.357 -15.069   5.901  1.00  0.00     0.179 C 
HETATM   10  S   UNL     1      43.853 -15.313   6.602  1.00  0.00    -0.040 SA
BRANCH   9  11
HETATM   11  N   UNL     1      41.778 -13.838   5.977  1.00  0.00    -0.299 N 
HETATM   12  C   UNL     1      40.465 -13.532   5.621  1.00  0.00     0.258 C 
HETATM   13  O   UNL     1      39.561 -14.348   5.475  1.00  0.00    -0.267 OA
HETATM   14  H   UNL     1      42.447 -13.085   5.904  1.00  0.00     0.171 HD
BRANCH  12  15
HETATM   15  C   UNL     1      40.204 -12.076   5.385  1.00  0.00     0.038 A 
HETATM   16  C   UNL     1      39.717 -11.242   6.412  1.00  0.00    -0.046 A 
HETATM   17  C   UNL     1      39.422 -11.753   7.796  1.00  0.00     0.049 C 
HETATM   18  C   UNL     1      39.471  -9.888   6.127  1.00  0.00     0.007 A 
HETATM   19  C   UNL     1      39.709  -9.365   4.856  1.00  0.00     0.001 A 
HETATM   20  C   UNL     1      40.178 -10.192   3.840  1.00  0.00     0.001 A 
HETATM   21  C   UNL     1      40.413 -11.543   4.098  1.00  0.00     0.017 A 
ENDBRANCH  12  15
ENDBRANCH   9  11
ENDBRANCH   7   9
ENDBRANCH   3   7
BRANCH   4  22
HETATM   22  N   UNL     1      41.770 -15.472   2.402  1.00  0.00    -0.376 N 
HETATM   23  C   UNL     1      40.303 -15.519   2.325  1.00  0.00     0.150 C 
HETATM   24  C   UNL     1      39.832 -14.797   1.044  1.00  0.00     0.255 C 
HETATM   25  N   UNL     1      40.430 -13.385   0.966  1.00  0.00    -0.064 N 
HETATM   26  H   UNL     1      40.082 -12.876   1.786  1.00  0.00     0.280 HD
HETATM   27  C   UNL     1      41.954 -13.425   1.058  1.00  0.00     0.255 C 
HETATM   28  C   UNL     1      42.415 -14.161   2.332  1.00  0.00     0.150 C 
BRANCH  25  29
HETATM   29  C   UNL     1      39.971 -12.629  -0.255  1.00  0.00     0.273 C 
BRANCH  29  30
HETATM   30  C   UNL     1      39.778 -13.517  -1.452  1.00  0.00    -0.033 A 
HETATM   31  C   UNL     1      40.888 -14.049  -2.129  1.00  0.00     0.009 A 
HETATM   32  C   UNL     1      40.710 -14.854  -3.254  1.00  0.00     0.001 A 
HETATM   33  C   UNL     1      39.426 -15.136  -3.715  1.00  0.00     0.000 A 
HETATM   34  C   UNL     1      38.317 -14.619  -3.049  1.00  0.00     0.001 A 
HETATM   35  C   UNL     1      38.489 -13.813  -1.923  1.00  0.00     0.009 A 
ENDBRANCH  29  30
ENDBRANCH  25  29
ENDBRANCH   4  22
BRANCH   1  36
HETATM   36  C   UNL     1      44.542 -20.064   4.341  1.00  0.00     0.293 C 
HETATM   37  O   UNL     1      44.626 -20.329   5.528  1.00  0.00    -0.259 OA
BRANCH  36  38
HETATM   38  O   UNL     1      45.113 -20.742   3.317  1.00  0.00    -0.318 OA
BRANCH  38  39
HETATM   39  C   UNL     1      44.515 -22.007   2.987  1.00  0.00     0.174 C 
HETATM   40  C   UNL     1      43.953 -21.959   1.580  1.00  0.00     0.034 C 
ENDBRANCH  38  39
ENDBRANCH  36  38
ENDBRANCH   1  36
TORSDOF 10
ENDMDL
MODEL 10
REMARK VINA RESULT:      -7.9      2.850      3.935
REMARK  10 active torsions:
REMARK  status: ('A' for Active; 'I' for Inactive)
REMARK    1  A    between atoms: C_2  and  O_3 
REMARK    2  A    between atoms: O_3  and  C_4 
REMARK    3  A    between atoms: C_4  and  C_5 
REMARK    4  A    between atoms: C_7  and  N_8 
REMARK    5  A    between atoms: N_8  and  C_9 
REMARK    6  A    between atoms: C_9  and  N_10 
REMARK       I    between atoms: N_10  and  C_11 
REMARK    7  A    between atoms: C_11  and  C_12 
REMARK    8  A    between atoms: C_21  and  N_22 
REMARK    9  A    between atoms: N_25  and  C_27 
REMARK   10  A    between atoms: C_27  and  C_28 
ROOT
HETATM    1  C   UNL     1      39.990 -11.343   6.194  1.00  0.00     0.041 A 
HETATM    2  C   UNL     1      40.646 -12.572   6.041  1.00  0.00     0.049 A 
HETATM    3  C   UNL     1      40.820 -13.132   4.767  1.00  0.00     0.062 A 
HETATM    4  C   UNL     1      40.385 -12.431   3.614  1.00  0.00     0.057 A 
HETATM    5  C   UNL     1      39.730 -11.201   3.796  1.00  0.00     0.033 A 
HETATM    6  C   UNL     1      39.529 -10.661   5.067  1.00  0.00     0.020 A 
ENDROOT
BRANCH   3   7
HETATM    7  N   UNL     1      41.257 -14.474   4.607  1.00  0.00    -0.331 N 
HETATM    8  H   UNL     1      40.581 -15.141   4.955  1.00  0.00     0.168 HD
BRANCH   7   9
HETATM    9  C   UNL     1      42.530 -14.934   4.556  1.00  0.00     0.179 C 
HETATM   10  S   UNL     1      43.736 -14.086   5.342  1.00  0.00    -0.040 SA
BRANCH   9  11
HETATM   11  N   UNL     1      42.836 -16.105   3.933  1.00  0.00    -0.299 N 
HETATM   12  C   UNL     1      42.286 -17.353   4.225  1.00  0.00     0.258 C 
HETATM   13  O   UNL     1      41.254 -17.541   4.861  1.00  0.00    -0.267 OA
HETATM   14  H   UNL     1      43.768 -16.110   3.541  1.00  0.00     0.171 HD
BRANCH  12  15
HETATM   15  C   UNL     1      43.077 -18.520   3.720  1.00  0.00     0.038 A 
HETATM   16  C   UNL     1      44.111 -19.092   4.488  1.00  0.00    -0.046 A 
HETATM   17  C   UNL     1      44.491 -18.572   5.848  1.00  0.00     0.049 C 
HETATM   18  C   UNL     1      44.834 -20.173   3.954  1.00  0.00     0.007 A 
HETATM   19  C   UNL     1      44.537 -20.683   2.691  1.00  0.00     0.001 A 
HETATM   20  C   UNL     1      43.525 -20.109   1.929  1.00  0.00     0.001 A 
HETATM   21  C   UNL     1      42.806 -19.026   2.434  1.00  0.00     0.017 A 
ENDBRANCH  12  15
ENDBRANCH   9  11
ENDBRANCH   7   9
ENDBRANCH   3   7
BRANCH   4  22
HETATM   22  N   UNL     1      40.623 -12.856   2.311  1.00  0.00    -0.376 N 
HETATM   23  C   UNL     1      41.975 -12.762   1.742  1.00  0.00     0.150 C 
HETATM   24  C   UNL     1      41.879 -12.420   0.240  1.00  0.00     0.255 C 
HETATM   25  N   UNL     1      40.950 -13.406  -0.483  1.00  0.00    -0.064 N 
HETATM   26  H   UNL     1      41.374 -14.335  -0.376  1.00  0.00     0.280 HD
HETATM   27  C   UNL     1      39.571 -13.447   0.172  1.00  0.00     0.255 C 
HETATM   28  C   UNL     1      39.679 -13.775   1.675  1.00  0.00     0.150 C 
BRANCH  25  29
HETATM   29  C   UNL     1      40.850 -13.129  -1.962  1.00  0.00     0.273 C 
BRANCH  29  30
HETATM   30  C   UNL     1      40.102 -14.199  -2.706  1.00  0.00    -0.033 A 
HETATM   31  C   UNL     1      38.819 -13.943  -3.217  1.00  0.00     0.009 A 
HETATM   32  C   UNL     1      38.114 -14.943  -3.888  1.00  0.00     0.001 A 
HETATM   33  C   UNL     1      38.680 -16.204  -4.055  1.00  0.00     0.000 A 
HETATM   34  C   UNL     1      39.954 -16.468  -3.558  1.00  0.00     0.001 A 
HETATM   35  C   UNL     1      40.664 -15.472  -2.886  1.00  0.00     0.009 A 
ENDBRANCH  29  30
ENDBRANCH  25  29
ENDBRANCH   4  22
BRANCH   1  36
HETATM   36  C   UNL     1      39.771 -10.828   7.573  1.00  0.00     0.293 C 
HETATM   37  O   UNL     1      40.476 -11.133   8.520  1.00  0.00    -0.259 OA
BRANCH  36  38
HETATM   38  O   UNL     1      38.668 -10.043   7.603  1.00  0.00    -0.318 OA
BRANCH  38  39
HETATM   39  C   UNL     1      38.831  -8.748   8.204  1.00  0.00     0.174 C 
HETATM   40  C   UNL     1      38.362  -7.673   7.244  1.00  0.00     0.034 C 
ENDBRANCH  38  39
ENDBRANCH  36  38
ENDBRANCH   1  36
TORSDOF 10
ENDMDL
