MODEL 1
REMARK VINA RESULT:      -8.6      0.000      0.000
REMARK  5 active torsions:
REMARK  status: ('A' for Active; 'I' for Inactive)
REMARK    1  A    between atoms: C_2  and  C_3 
REMARK    2  A    between atoms: C_2  and  C_19 
REMARK       I    between atoms: C_3  and  N_4 
REMARK    3  A    between atoms: N_4  and  C_5 
REMARK    4  A    between atoms: C_8  and  O_9 
REMARK    5  A    between atoms: O_9  and  C_10 
ROOT
HETATM    1  C   UNL     1      42.612 -16.485   2.888  1.00  0.00     0.234 C 
HETATM    2  N   UNL     1      41.361 -16.497   2.289  1.00  0.00    -0.325 N 
HETATM    3  O   UNL     1      43.549 -15.777   2.528  1.00  0.00    -0.272 OA
HETATM    4  H   UNL     1      40.659 -17.103   2.698  1.00  0.00     0.169 HD
ENDROOT
BRANCH   2   5
HETATM    5  C   UNL     1      40.984 -15.806   1.119  1.00  0.00     0.052 A 
HETATM    6  C   UNL     1      40.188 -14.663   1.079  1.00  0.00     0.149 A 
HETATM    7  N   UNL     1      39.886 -13.981  -0.057  1.00  0.00    -0.235 NA
HETATM    8  C   UNL     1      40.422 -14.438  -1.205  1.00  0.00     0.169 A 
HETATM    9  C   UNL     1      41.188 -15.591  -1.279  1.00  0.00     0.060 A 
HETATM   10  C   UNL     1      41.468 -16.284  -0.101  1.00  0.00     0.035 A 
BRANCH   8  11
HETATM   11  O   UNL     1      40.178 -13.792  -2.409  1.00  0.00    -0.291 OA
BRANCH  11  12
HETATM   12  C   UNL     1      38.948 -13.891  -3.008  1.00  0.00     0.095 A 
HETATM   13  C   UNL     1      38.663 -15.096  -3.639  1.00  0.00     0.153 A 
HETATM   14  N   UNL     1      37.524 -15.354  -4.329  1.00  0.00    -0.270 NA
HETATM   15  C   UNL     1      36.621 -14.353  -4.389  1.00  0.00     0.116 A 
HETATM   16  C   UNL     1      36.815 -13.109  -3.812  1.00  0.00     0.022 A 
HETATM   17  C   UNL     1      38.005 -12.871  -3.125  1.00  0.00     0.040 A 
ENDBRANCH  11  12
ENDBRANCH   8  11
ENDBRANCH   2   5
BRANCH   1  18
HETATM   18  C   UNL     1      42.755 -17.486   4.074  1.00  0.00     0.061 C 
HETATM   19  C   UNL     1      43.543 -16.773   5.198  1.00  0.00     0.030 C 
HETATM   20  C   UNL     1      41.354 -17.800   4.649  1.00  0.00     0.030 C 
BRANCH  18  21
HETATM   21  C   UNL     1      43.385 -18.806   3.593  1.00  0.00    -0.041 A 
HETATM   22  C   UNL     1      43.024 -19.325   2.330  1.00  0.00     0.011 A 
HETATM   23  C   UNL     1      43.544 -20.536   1.870  1.00  0.00     0.043 A 
HETATM   24  C   UNL     1      44.433 -21.243   2.664  1.00  0.00     0.116 A 
HETATM   25  F   UNL     1      44.928 -22.409   2.228  1.00  0.00    -0.206 F 
HETATM   26  C   UNL     1      44.811 -20.760   3.908  1.00  0.00     0.043 A 
HETATM   27  C   UNL     1      44.289 -19.549   4.373  1.00  0.00     0.011 A 
ENDBRANCH  18  21
ENDBRANCH   1  18
TORSDOF 5
ENDMDL
MODEL 2
REMARK VINA RESULT:      -8.4      1.941      2.548
REMARK  5 active torsions:
REMARK  status: ('A' for Active; 'I' for Inactive)
REMARK    1  A    between atoms: C_2  and  C_3 
REMARK    2  A    between atoms: C_2  and  C_19 
REMARK       I    between atoms: C_3  and  N_4 
REMARK    3  A    between atoms: N_4  and  C_5 
REMARK    4  A    between atoms: C_8  and  O_9 
REMARK    5  A    between atoms: O_9  and  C_10 
ROOT
HETATM    1  C   UNL     1      42.601 -16.528   3.164  1.00  0.00     0.234 C 
HETATM    2  N   UNL     1      41.337 -16.570   2.596  1.00  0.00    -0.325 N 
HETATM    3  O   UNL     1      43.490 -15.751   2.827  1.00  0.00    -0.272 OA
HETATM    4  H   UNL     1      40.678 -17.235   2.983  1.00  0.00     0.169 HD
ENDROOT
BRANCH   2   5
HETATM    5  C   UNL     1      40.892 -15.828   1.481  1.00  0.00     0.052 A 
HETATM    6  C   UNL     1      39.950 -14.804   1.518  1.00  0.00     0.149 A 
HETATM    7  N   UNL     1      39.581 -14.065   0.439  1.00  0.00    -0.235 NA
HETATM    8  C   UNL     1      40.197 -14.338  -0.728  1.00  0.00     0.169 A 
HETATM    9  C   UNL     1      41.113 -15.366  -0.881  1.00  0.00     0.060 A 
HETATM   10  C   UNL     1      41.460 -16.122   0.239  1.00  0.00     0.035 A 
BRANCH   8  11
HETATM   11  O   UNL     1      39.890 -13.620  -1.877  1.00  0.00    -0.291 OA
BRANCH  11  12
HETATM   12  C   UNL     1      40.783 -12.709  -2.380  1.00  0.00     0.095 A 
HETATM   13  C   UNL     1      40.947 -11.538  -1.650  1.00  0.00     0.153 A 
HETATM   14  N   UNL     1      41.742 -10.503  -2.022  1.00  0.00    -0.270 NA
HETATM   15  C   UNL     1      42.409 -10.650  -3.186  1.00  0.00     0.116 A 
HETATM   16  C   UNL     1      42.301 -11.768  -3.997  1.00  0.00     0.022 A 
HETATM   17  C   UNL     1      41.462 -12.806  -3.593  1.00  0.00     0.040 A 
ENDBRANCH  11  12
ENDBRANCH   8  11
ENDBRANCH   2   5
BRANCH   1  18
HETATM   18  C   UNL     1      42.828 -17.591   4.281  1.00  0.00     0.061 C 
HETATM   19  C   UNL     1      43.677 -16.930   5.393  1.00  0.00     0.030 C 
HETATM   20  C   UNL     1      41.469 -17.956   4.922  1.00  0.00     0.030 C 
BRANCH  18  21
HETATM   21  C   UNL     1      43.441 -18.873   3.689  1.00  0.00    -0.041 A 
HETATM   22  C   UNL     1      43.055 -19.292   2.397  1.00  0.00     0.011 A 
HETATM   23  C   UNL     1      43.558 -20.467   1.836  1.00  0.00     0.043 A 
HETATM   24  C   UNL     1      44.456 -21.238   2.558  1.00  0.00     0.116 A 
HETATM   25  F   UNL     1      44.936 -22.369   2.025  1.00  0.00    -0.206 F 
HETATM   26  C   UNL     1      44.859 -20.853   3.829  1.00  0.00     0.043 A 
HETATM   27  C   UNL     1      44.353 -19.679   4.394  1.00  0.00     0.011 A 
ENDBRANCH  18  21
ENDBRANCH   1  18
TORSDOF 5
ENDMDL
MODEL 3
REMARK VINA RESULT:      -8.1      4.398      7.023
REMARK  5 active torsions:
REMARK  status: ('A' for Active; 'I' for Inactive)
REMARK    1  A    between atoms: C_2  and  C_3 
REMARK    2  A    between atoms: C_2  and  C_19 
REMARK       I    between atoms: C_3  and  N_4 
REMARK    3  A    between atoms: N_4  and  C_5 
REMARK    4  A    between atoms: C_8  and  O_9 
REMARK    5  A    between atoms: O_9  and  C_10 
ROOT
HETATM    1  C   UNL     1      42.698 -16.406   2.983  1.00  0.00     0.234 C 
HETATM    2  N   UNL     1      41.398 -16.260   3.443  1.00  0.00    -0.325 N 
HETATM    3  O   UNL     1      43.597 -15.590   3.168  1.00  0.00    -0.272 OA
HETATM    4  H   UNL     1      40.754 -17.019   3.254  1.00  0.00     0.169 HD
ENDROOT
BRANCH   2   5
HETATM    5  C   UNL     1      40.857 -15.128   4.087  1.00  0.00     0.052 A 
HETATM    6  C   UNL     1      40.389 -13.983   3.447  1.00  0.00     0.149 A 
HETATM    7  N   UNL     1      39.819 -12.928   4.086  1.00  0.00    -0.235 NA
HETATM    8  C   UNL     1      39.681 -13.025   5.423  1.00  0.00     0.169 A 
HETATM    9  C   UNL     1      40.155 -14.100   6.159  1.00  0.00     0.060 A 
HETATM   10  C   UNL     1      40.754 -15.162   5.480  1.00  0.00     0.035 A 
BRANCH   8  11
HETATM   11  O   UNL     1      39.096 -12.000   6.153  1.00  0.00    -0.291 OA
BRANCH  11  12
HETATM   12  C   UNL     1      39.839 -11.284   7.056  1.00  0.00     0.095 A 
HETATM   13  C   UNL     1      41.001 -10.696   6.571  1.00  0.00     0.153 A 
HETATM   14  N   UNL     1      41.886 -10.000   7.328  1.00  0.00    -0.270 NA
HETATM   15  C   UNL     1      41.590  -9.886   8.640  1.00  0.00     0.116 A 
HETATM   16  C   UNL     1      40.468 -10.448   9.226  1.00  0.00     0.022 A 
HETATM   17  C   UNL     1      39.589 -11.172   8.422  1.00  0.00     0.040 A 
ENDBRANCH  11  12
ENDBRANCH   8  11
ENDBRANCH   2   5
BRANCH   1  18
HETATM   18  C   UNL     1      42.937 -17.711   2.166  1.00  0.00     0.061 C 
HETATM   19  C   UNL     1      41.583 -18.131   1.545  1.00  0.00     0.030 C 
HETATM   20  C   UNL     1      43.888 -17.407   0.984  1.00  0.00     0.030 C 
BRANCH  18  21
HETATM   21  C   UNL     1      43.594 -18.788   3.048  1.00  0.00    -0.041 A 
HETATM   22  C   UNL     1      44.002 -20.007   2.463  1.00  0.00     0.011 A 
HETATM   23  C   UNL     1      44.570 -21.025   3.232  1.00  0.00     0.043 A 
HETATM   24  C   UNL     1      44.738 -20.837   4.595  1.00  0.00     0.116 A 
HETATM   25  F   UNL     1      45.277 -21.814   5.337  1.00  0.00    -0.206 F 
HETATM   26  C   UNL     1      44.351 -19.650   5.201  1.00  0.00     0.043 A 
HETATM   27  C   UNL     1      43.779 -18.631   4.434  1.00  0.00     0.011 A 
ENDBRANCH  18  21
ENDBRANCH   1  18
TORSDOF 5
ENDMDL
MODEL 4
REMARK VINA RESULT:      -7.9      2.040      2.967
REMARK  5 active torsions:
REMARK  status: ('A' for Active; 'I' for Inactive)
REMARK    1  A    between atoms: C_2  and  C_3 
REMARK    2  A    between atoms: C_2  and  C_19 
REMARK       I    between atoms: C_3  and  N_4 
REMARK    3  A    between atoms: N_4  and  C_5 
REMARK    4  A    between atoms: C_8  and  O_9 
REMARK    5  A    between atoms: O_9  and  C_10 
ROOT
HETATM    1  C   UNL     1      42.384 -17.033   5.328  1.00  0.00     0.234 C 
HETATM    2  N   UNL     1      42.899 -16.626   4.106  1.00  0.00    -0.325 N 
HETATM    3  O   UNL     1      41.194 -16.992   5.630  1.00  0.00    -0.272 OA
HETATM    4  H   UNL     1      43.895 -16.739   3.964  1.00  0.00     0.169 HD
ENDROOT
BRANCH   2   5
HETATM    5  C   UNL     1      42.187 -15.998   3.062  1.00  0.00     0.052 A 
HETATM    6  C   UNL     1      41.008 -16.472   2.492  1.00  0.00     0.149 A 
HETATM    7  N   UNL     1      40.309 -15.820   1.526  1.00  0.00    -0.235 NA
HETATM    8  C   UNL     1      40.789 -14.626   1.126  1.00  0.00     0.169 A 
HETATM    9  C   UNL     1      41.977 -14.088   1.597  1.00  0.00     0.060 A 
HETATM   10  C   UNL     1      42.685 -14.788   2.574  1.00  0.00     0.035 A 
BRANCH   8  11
HETATM   11  O   UNL     1      40.129 -13.885   0.155  1.00  0.00    -0.291 OA
BRANCH  11  12
HETATM   12  C   UNL     1      40.044 -14.354  -1.131  1.00  0.00     0.095 A 
HETATM   13  C   UNL     1      38.888 -14.030  -1.831  1.00  0.00     0.153 A 
HETATM   14  N   UNL     1      38.606 -14.452  -3.089  1.00  0.00    -0.270 NA
HETATM   15  C   UNL     1      39.531 -15.238  -3.678  1.00  0.00     0.116 A 
HETATM   16  C   UNL     1      40.707 -15.634  -3.062  1.00  0.00     0.022 A 
HETATM   17  C   UNL     1      40.957 -15.196  -1.761  1.00  0.00     0.040 A 
ENDBRANCH  11  12
ENDBRANCH   8  11
ENDBRANCH   2   5
BRANCH   1  18
HETATM   18  C   UNL     1      43.463 -17.541   6.331  1.00  0.00     0.061 C 
HETATM   19  C   UNL     1      44.611 -16.503   6.351  1.00  0.00     0.030 C 
HETATM   20  C   UNL     1      42.864 -17.562   7.757  1.00  0.00     0.030 C 
BRANCH  18  21
HETATM   21  C   UNL     1      43.904 -18.971   5.973  1.00  0.00    -0.041 A 
HETATM   22  C   UNL     1      43.583 -20.033   6.846  1.00  0.00     0.011 A 
HETATM   23  C   UNL     1      43.994 -21.341   6.577  1.00  0.00     0.043 A 
HETATM   24  C   UNL     1      44.728 -21.603   5.432  1.00  0.00     0.116 A 
HETATM   25  F   UNL     1      45.130 -22.855   5.175  1.00  0.00    -0.206 F 
HETATM   26  C   UNL     1      45.058 -20.583   4.551  1.00  0.00     0.043 A 
HETATM   27  C   UNL     1      44.651 -19.273   4.820  1.00  0.00     0.011 A 
ENDBRANCH  18  21
ENDBRANCH   1  18
TORSDOF 5
ENDMDL
MODEL 5
REMARK VINA RESULT:      -7.9      5.276      6.516
REMARK  5 active torsions:
REMARK  status: ('A' for Active; 'I' for Inactive)
REMARK    1  A    between atoms: C_2  and  C_3 
REMARK    2  A    between atoms: C_2  and  C_19 
REMARK       I    between atoms: C_3  and  N_4 
REMARK    3  A    between atoms: N_4  and  C_5 
REMARK    4  A    between atoms: C_8  and  O_9 
REMARK    5  A    between atoms: O_9  and  C_10 
ROOT
HETATM    1  C   UNL     1      43.093 -17.566   5.547  1.00  0.00     0.234 C 
HETATM    2  N   UNL     1      43.709 -16.397   5.125  1.00  0.00    -0.325 N 
HETATM    3  O   UNL     1      41.894 -17.672   5.790  1.00  0.00    -0.272 OA
HETATM    4  H   UNL     1      44.701 -16.444   4.926  1.00  0.00     0.169 HD
ENDROOT
BRANCH   2   5
HETATM    5  C   UNL     1      43.108 -15.125   5.011  1.00  0.00     0.052 A 
HETATM    6  C   UNL     1      43.016 -14.183   6.033  1.00  0.00     0.149 A 
HETATM    7  N   UNL     1      42.485 -12.942   5.883  1.00  0.00    -0.235 NA
HETATM    8  C   UNL     1      42.048 -12.609   4.653  1.00  0.00     0.169 A 
HETATM    9  C   UNL     1      42.053 -13.488   3.581  1.00  0.00     0.060 A 
HETATM   10  C   UNL     1      42.586 -14.764   3.767  1.00  0.00     0.035 A 
BRANCH   8  11
HETATM   11  O   UNL     1      41.505 -11.355   4.408  1.00  0.00    -0.291 OA
BRANCH  11  12
HETATM   12  C   UNL     1      40.945 -10.634   5.431  1.00  0.00     0.095 A 
HETATM   13  C   UNL     1      39.648 -10.976   5.792  1.00  0.00     0.153 A 
HETATM   14  N   UNL     1      38.917 -10.338   6.740  1.00  0.00    -0.270 NA
HETATM   15  C   UNL     1      39.519  -9.302   7.361  1.00  0.00     0.116 A 
HETATM   16  C   UNL     1      40.800  -8.868   7.065  1.00  0.00     0.022 A 
HETATM   17  C   UNL     1      41.517  -9.536   6.072  1.00  0.00     0.040 A 
ENDBRANCH  11  12
ENDBRANCH   8  11
ENDBRANCH   2   5
BRANCH   1  18
HETATM   18  C   UNL     1      44.070 -18.767   5.724  1.00  0.00     0.061 C 
HETATM   19  C   UNL     1      45.455 -18.194   6.111  1.00  0.00     0.030 C 
HETATM   20  C   UNL     1      43.603 -19.634   6.916  1.00  0.00     0.030 C 
BRANCH  18  21
HETATM   21  C   UNL     1      44.076 -19.647   4.461  1.00  0.00    -0.041 A 
HETATM   22  C   UNL     1      44.628 -20.946   4.526  1.00  0.00     0.011 A 
HETATM   23  C   UNL     1      44.687 -21.765   3.396  1.00  0.00     0.043 A 
HETATM   24  C   UNL     1      44.193 -21.298   2.189  1.00  0.00     0.116 A 
HETATM   25  F   UNL     1      44.253 -22.078   1.102  1.00  0.00    -0.206 F 
HETATM   26  C   UNL     1      43.641 -20.028   2.091  1.00  0.00     0.043 A 
HETATM   27  C   UNL     1      43.585 -19.205   3.219  1.00  0.00     0.011 A 
ENDBRANCH  18  21
ENDBRANCH   1  18
TORSDOF 5
ENDMDL
MODEL 6
REMARK VINA RESULT:      -7.8      4.318      4.888
REMARK  5 active torsions:
REMARK  status: ('A' for Active; 'I' for Inactive)
REMARK    1  A    between atoms: C_2  and  C_3 
REMARK    2  A    between atoms: C_2  and  C_19 
REMARK       I    between atoms: C_3  and  N_4 
REMARK    3  A    between atoms: N_4  and  C_5 
REMARK    4  A    between atoms: C_8  and  O_9 
REMARK    5  A    between atoms: O_9  and  C_10 
ROOT
HETATM    1  C   UNL     1      43.091 -17.765   5.323  1.00  0.00     0.234 C 
HETATM    2  N   UNL     1      43.719 -16.577   4.982  1.00  0.00    -0.325 N 
HETATM    3  O   UNL     1      41.876 -17.899   5.444  1.00  0.00    -0.272 OA
HETATM    4  H   UNL     1      44.727 -16.600   4.882  1.00  0.00     0.169 HD
ENDROOT
BRANCH   2   5
HETATM    5  C   UNL     1      43.106 -15.316   4.830  1.00  0.00     0.052 A 
HETATM    6  C   UNL     1      42.356 -14.661   5.804  1.00  0.00     0.149 A 
HETATM    7  N   UNL     1      41.824 -13.420   5.653  1.00  0.00    -0.235 NA
HETATM    8  C   UNL     1      42.070 -12.786   4.490  1.00  0.00     0.169 A 
HETATM    9  C   UNL     1      42.763 -13.368   3.440  1.00  0.00     0.060 A 
HETATM   10  C   UNL     1      43.284 -14.651   3.614  1.00  0.00     0.035 A 
BRANCH   8  11
HETATM   11  O   UNL     1      41.576 -11.510   4.259  1.00  0.00    -0.291 OA
BRANCH  11  12
HETATM   12  C   UNL     1      40.527 -11.321   3.396  1.00  0.00     0.095 A 
HETATM   13  C   UNL     1      40.674 -10.306   2.457  1.00  0.00     0.153 A 
HETATM   14  N   UNL     1      39.721  -9.940   1.564  1.00  0.00    -0.270 NA
HETATM   15  C   UNL     1      38.561 -10.627   1.611  1.00  0.00     0.116 A 
HETATM   16  C   UNL     1      38.306 -11.643   2.518  1.00  0.00     0.022 A 
HETATM   17  C   UNL     1      39.301 -11.982   3.434  1.00  0.00     0.040 A 
ENDBRANCH  11  12
ENDBRANCH   8  11
ENDBRANCH   2   5
BRANCH   1  18
HETATM   18  C   UNL     1      44.071 -18.949   5.577  1.00  0.00     0.061 C 
HETATM   19  C   UNL     1      45.433 -18.349   6.002  1.00  0.00     0.030 C 
HETATM   20  C   UNL     1      43.564 -19.784   6.776  1.00  0.00     0.030 C 
BRANCH  18  21
HETATM   21  C   UNL     1      44.138 -19.868   4.344  1.00  0.00    -0.041 A 
HETATM   22  C   UNL     1      43.641 -19.403   3.107  1.00  0.00     0.011 A 
HETATM   23  C   UNL     1      43.648 -20.216   1.971  1.00  0.00     0.043 A 
HETATM   24  C   UNL     1      44.155 -21.503   2.057  1.00  0.00     0.116 A 
HETATM   25  F   UNL     1      44.159 -22.287   0.971  1.00  0.00    -0.206 F 
HETATM   26  C   UNL     1      44.655 -21.990   3.256  1.00  0.00     0.043 A 
HETATM   27  C   UNL     1      44.644 -21.180   4.396  1.00  0.00     0.011 A 
ENDBRANCH  18  21
ENDBRANCH   1  18
TORSDOF 5
ENDMDL
MODEL 7
REMARK VINA RESULT:      -7.8      1.803      2.476
REMARK  5 active torsions:
REMARK  status: ('A' for Active; 'I' for Inactive)
REMARK    1  A    between atoms: C_2  and  C_3 
REMARK    2  A    between atoms: C_2  and  C_19 
REMARK       I    between atoms: C_3  and  N_4 
REMARK    3  A    between atoms: N_4  and  C_5 
REMARK    4  A    between atoms: C_8  and  O_9 
REMARK    5  A    between atoms: O_9  and  C_10 
ROOT
HETATM    1  C   UNL     1      43.112 -14.578   3.854  1.00  0.00     0.234 C 
HETATM    2  N   UNL     1      41.948 -14.870   3.160  1.00  0.00    -0.325 N 
HETATM    3  O   UNL     1      44.073 -13.978   3.380  1.00  0.00    -0.272 OA
HETATM    4  H   UNL     1      41.212 -15.343   3.671  1.00  0.00     0.169 HD
ENDROOT
BRANCH   2   5
HETATM    5  C   UNL     1      41.708 -14.641   1.789  1.00  0.00     0.052 A 
HETATM    6  C   UNL     1      41.688 -13.393   1.171  1.00  0.00     0.149 A 
HETATM    7  N   UNL     1      41.512 -13.202  -0.162  1.00  0.00    -0.235 NA
HETATM    8  C   UNL     1      41.378 -14.305  -0.925  1.00  0.00     0.169 A 
HETATM    9  C   UNL     1      41.338 -15.588  -0.403  1.00  0.00     0.060 A 
HETATM   10  C   UNL     1      41.501 -15.755   0.972  1.00  0.00     0.035 A 
BRANCH   8  11
HETATM   11  O   UNL     1      41.209 -14.201  -2.299  1.00  0.00    -0.291 OA
BRANCH  11  12
HETATM   12  C   UNL     1      40.034 -14.600  -2.882  1.00  0.00     0.095 A 
HETATM   13  C   UNL     1      38.915 -13.821  -2.614  1.00  0.00     0.153 A 
HETATM   14  N   UNL     1      37.662 -14.093  -3.057  1.00  0.00    -0.270 NA
HETATM   15  C   UNL     1      37.523 -15.204  -3.810  1.00  0.00     0.116 A 
HETATM   16  C   UNL     1      38.569 -16.058  -4.121  1.00  0.00     0.022 A 
HETATM   17  C   UNL     1      39.840 -15.757  -3.634  1.00  0.00     0.040 A 
ENDBRANCH  11  12
ENDBRANCH   8  11
ENDBRANCH   2   5
BRANCH   1  18
HETATM   18  C   UNL     1      43.124 -15.107   5.320  1.00  0.00     0.061 C 
HETATM   19  C   UNL     1      43.895 -14.080   6.184  1.00  0.00     0.030 C 
HETATM   20  C   UNL     1      41.676 -15.140   5.862  1.00  0.00     0.030 C 
BRANCH  18  21
HETATM   21  C   UNL     1      43.691 -16.537   5.374  1.00  0.00    -0.041 A 
HETATM   22  C   UNL     1      43.365 -17.449   4.346  1.00  0.00     0.011 A 
HETATM   23  C   UNL     1      43.828 -18.766   4.373  1.00  0.00     0.043 A 
HETATM   24  C   UNL     1      44.625 -19.188   5.426  1.00  0.00     0.116 A 
HETATM   25  F   UNL     1      45.066 -20.453   5.459  1.00  0.00    -0.206 F 
HETATM   26  C   UNL     1      44.966 -18.316   6.450  1.00  0.00     0.043 A 
HETATM   27  C   UNL     1      44.501 -16.998   6.428  1.00  0.00     0.011 A 
ENDBRANCH  18  21
ENDBRANCH   1  18
TORSDOF 5
ENDMDL
MODEL 8
REMARK VINA RESULT:      -7.8      3.718      9.248
REMARK  5 active torsions:
REMARK  status: ('A' for Active; 'I' for Inactive)
REMARK    1  A    between atoms: C_2  and  C_3 
REMARK    2  A    between atoms: C_2  and  C_19 
REMARK       I    between atoms: C_3  and  N_4 
REMARK    3  A    between atoms: N_4  and  C_5 
REMARK    4  A    between atoms: C_8  and  O_9 
REMARK    5  A    between atoms: O_9  and  C_10 
ROOT
HETATM    1  C   UNL     1      41.736 -14.772   0.222  1.00  0.00     0.234 C 
HETATM    2  N   UNL     1      41.917 -16.145   0.149  1.00  0.00    -0.325 N 
HETATM    3  O   UNL     1      42.083 -14.074   1.171  1.00  0.00    -0.272 OA
HETATM    4  H   UNL     1      41.616 -16.605  -0.702  1.00  0.00     0.169 HD
ENDROOT
BRANCH   2   5
HETATM    5  C   UNL     1      42.413 -16.982   1.170  1.00  0.00     0.052 A 
HETATM    6  C   UNL     1      41.741 -17.303   2.347  1.00  0.00     0.149 A 
HETATM    7  N   UNL     1      42.216 -18.158   3.290  1.00  0.00    -0.235 NA
HETATM    8  C   UNL     1      43.403 -18.745   3.041  1.00  0.00     0.169 A 
HETATM    9  C   UNL     1      44.172 -18.458   1.924  1.00  0.00     0.060 A 
HETATM   10  C   UNL     1      43.670 -17.562   0.980  1.00  0.00     0.035 A 
BRANCH   8  11
HETATM   11  O   UNL     1      43.954 -19.644   3.944  1.00  0.00    -0.291 OA
BRANCH  11  12
HETATM   12  C   UNL     1      44.191 -19.262   5.240  1.00  0.00     0.095 A 
HETATM   13  C   UNL     1      43.630 -20.059   6.231  1.00  0.00     0.153 A 
HETATM   14  N   UNL     1      43.712 -19.805   7.561  1.00  0.00    -0.270 NA
HETATM   15  C   UNL     1      44.392 -18.696   7.918  1.00  0.00     0.116 A 
HETATM   16  C   UNL     1      44.973 -17.826   7.009  1.00  0.00     0.022 A 
HETATM   17  C   UNL     1      44.855 -18.107   5.649  1.00  0.00     0.040 A 
ENDBRANCH  11  12
ENDBRANCH   8  11
ENDBRANCH   2   5
BRANCH   1  18
HETATM   18  C   UNL     1      41.012 -14.163  -1.016  1.00  0.00     0.061 C 
HETATM   19  C   UNL     1      41.980 -13.151  -1.676  1.00  0.00     0.030 C 
HETATM   20  C   UNL     1      40.761 -15.276  -2.060  1.00  0.00     0.030 C 
BRANCH  18  21
HETATM   21  C   UNL     1      39.652 -13.568  -0.609  1.00  0.00    -0.041 A 
HETATM   22  C   UNL     1      38.839 -14.267   0.311  1.00  0.00     0.011 A 
HETATM   23  C   UNL     1      37.583 -13.782   0.681  1.00  0.00     0.043 A 
HETATM   24  C   UNL     1      37.124 -12.593   0.139  1.00  0.00     0.116 A 
HETATM   25  F   UNL     1      35.917 -12.128   0.488  1.00  0.00    -0.206 F 
HETATM   26  C   UNL     1      37.899 -11.879  -0.764  1.00  0.00     0.043 A 
HETATM   27  C   UNL     1      39.155 -12.364  -1.140  1.00  0.00     0.011 A 
ENDBRANCH  18  21
ENDBRANCH   1  18
TORSDOF 5
ENDMDL
MODEL 9
REMARK VINA RESULT:      -7.7      3.777      9.187
REMARK  5 active torsions:
REMARK  status: ('A' for Active; 'I' for Inactive)
REMARK    1  A    between atoms: C_2  and  C_3 
REMARK    2  A    between atoms: C_2  and  C_19 
REMARK       I    between atoms: C_3  and  N_4 
REMARK    3  A    between atoms: N_4  and  C_5 
REMARK    4  A    between atoms: C_8  and  O_9 
REMARK    5  A    between atoms: O_9  and  C_10 
ROOT
HETATM    1  C   UNL     1      40.981 -15.114  -0.236  1.00  0.00     0.234 C 
HETATM    2  N   UNL     1      41.968 -16.088  -0.213  1.00  0.00    -0.325 N 
HETATM    3  O   UNL     1      40.362 -14.727   0.752  1.00  0.00    -0.272 OA
HETATM    4  H   UNL     1      42.429 -16.299  -1.090  1.00  0.00     0.169 HD
ENDROOT
BRANCH   2   5
HETATM    5  C   UNL     1      42.350 -16.870   0.897  1.00  0.00     0.052 A 
HETATM    6  C   UNL     1      41.526 -17.204   1.970  1.00  0.00     0.149 A 
HETATM    7  N   UNL     1      41.899 -18.008   2.999  1.00  0.00    -0.235 NA
HETATM    8  C   UNL     1      43.141 -18.528   2.949  1.00  0.00     0.169 A 
HETATM    9  C   UNL     1      44.053 -18.222   1.951  1.00  0.00     0.060 A 
HETATM   10  C   UNL     1      43.651 -17.378   0.916  1.00  0.00     0.035 A 
BRANCH   8  11
HETATM   11  O   UNL     1      43.598 -19.372   3.953  1.00  0.00    -0.291 OA
BRANCH  11  12
HETATM   12  C   UNL     1      43.788 -18.893   5.224  1.00  0.00     0.095 A 
HETATM   13  C   UNL     1      43.678 -19.818   6.255  1.00  0.00     0.153 A 
HETATM   14  N   UNL     1      43.777 -19.517   7.574  1.00  0.00    -0.270 NA
HETATM   15  C   UNL     1      44.001 -18.221   7.876  1.00  0.00     0.116 A 
HETATM   16  C   UNL     1      44.108 -17.219   6.926  1.00  0.00     0.022 A 
HETATM   17  C   UNL     1      43.983 -17.561   5.580  1.00  0.00     0.040 A 
ENDBRANCH  11  12
ENDBRANCH   8  11
ENDBRANCH   2   5
BRANCH   1  18
HETATM   18  C   UNL     1      40.685 -14.548  -1.657  1.00  0.00     0.061 C 
HETATM   19  C   UNL     1      40.954 -15.678  -2.679  1.00  0.00     0.030 C 
HETATM   20  C   UNL     1      39.181 -14.205  -1.767  1.00  0.00     0.030 C 
BRANCH  18  21
HETATM   21  C   UNL     1      41.492 -13.261  -1.904  1.00  0.00    -0.041 A 
HETATM   22  C   UNL     1      42.021 -12.553  -0.802  1.00  0.00     0.011 A 
HETATM   23  C   UNL     1      42.728 -11.363  -0.978  1.00  0.00     0.043 A 
HETATM   24  C   UNL     1      42.918 -10.864  -2.257  1.00  0.00     0.116 A 
HETATM   25  F   UNL     1      43.592  -9.719  -2.429  1.00  0.00    -0.206 F 
HETATM   26  C   UNL     1      42.415 -11.536  -3.362  1.00  0.00     0.043 A 
HETATM   27  C   UNL     1      41.703 -12.726  -3.189  1.00  0.00     0.011 A 
ENDBRANCH  18  21
ENDBRANCH   1  18
TORSDOF 5
ENDMDL
MODEL 10
REMARK VINA RESULT:      -7.7      2.954      8.492
REMARK  5 active torsions:
REMARK  status: ('A' for Active; 'I' for Inactive)
REMARK    1  A    between atoms: C_2  and  C_3 
REMARK    2  A    between atoms: C_2  and  C_19 
REMARK       I    between atoms: C_3  and  N_4 
REMARK    3  A    between atoms: N_4  and  C_5 
REMARK    4  A    between atoms: C_8  and  O_9 
REMARK    5  A    between atoms: O_9  and  C_10 
ROOT
HETATM    1  C   UNL     1      40.258 -14.094   0.483  1.00  0.00     0.234 C 
HETATM    2  N   UNL     1      40.357 -15.463   0.683  1.00  0.00    -0.325 N 
HETATM    3  O   UNL     1      41.036 -13.265   0.946  1.00  0.00    -0.272 OA
HETATM    4  H   UNL     1      39.670 -16.048   0.221  1.00  0.00     0.169 HD
ENDROOT
BRANCH   2   5
HETATM    5  C   UNL     1      41.274 -16.124   1.526  1.00  0.00     0.052 A 
HETATM    6  C   UNL     1      40.950 -16.794   2.703  1.00  0.00     0.149 A 
HETATM    7  N   UNL     1      41.844 -17.473   3.468  1.00  0.00    -0.235 NA
HETATM    8  C   UNL     1      43.118 -17.513   3.029  1.00  0.00     0.169 A 
HETATM    9  C   UNL     1      43.552 -16.842   1.897  1.00  0.00     0.060 A 
HETATM   10  C   UNL     1      42.617 -16.136   1.139  1.00  0.00     0.035 A 
BRANCH   8  11
HETATM   11  O   UNL     1      44.093 -18.198   3.742  1.00  0.00    -0.291 OA
BRANCH  11  12
HETATM   12  C   UNL     1      44.263 -19.546   3.558  1.00  0.00     0.095 A 
HETATM   13  C   UNL     1      43.870 -20.056   2.327  1.00  0.00     0.153 A 
HETATM   14  N   UNL     1      43.912 -21.369   1.988  1.00  0.00    -0.270 NA
HETATM   15  C   UNL     1      44.372 -22.216   2.932  1.00  0.00     0.116 A 
HETATM   16  C   UNL     1      44.771 -21.813   4.196  1.00  0.00     0.022 A 
HETATM   17  C   UNL     1      44.699 -20.458   4.517  1.00  0.00     0.040 A 
ENDBRANCH  11  12
ENDBRANCH   8  11
ENDBRANCH   2   5
BRANCH   1  18
HETATM   18  C   UNL     1      39.031 -13.668  -0.379  1.00  0.00     0.061 C 
HETATM   19  C   UNL     1      37.758 -13.896   0.470  1.00  0.00     0.030 C 
HETATM   20  C   UNL     1      39.107 -12.149  -0.660  1.00  0.00     0.030 C 
BRANCH  18  21
HETATM   21  C   UNL     1      39.037 -14.408  -1.729  1.00  0.00    -0.041 A 
HETATM   22  C   UNL     1      37.824 -14.575  -2.432  1.00  0.00     0.011 A 
HETATM   23  C   UNL     1      37.777 -15.270  -3.641  1.00  0.00     0.043 A 
HETATM   24  C   UNL     1      38.943 -15.806  -4.165  1.00  0.00     0.116 A 
HETATM   25  F   UNL     1      38.901 -16.480  -5.323  1.00  0.00    -0.206 F 
HETATM   26  C   UNL     1      40.152 -15.658  -3.502  1.00  0.00     0.043 A 
HETATM   27  C   UNL     1      40.201 -14.966  -2.289  1.00  0.00     0.011 A 
ENDBRANCH  18  21
ENDBRANCH   1  18
TORSDOF 5
ENDMDL
