MODEL 1
REMARK VINA RESULT:      -7.7      0.000      0.000
REMARK  4 active torsions:
REMARK  status: ('A' for Active; 'I' for Inactive)
REMARK    1  A    between atoms: C_4  and  N_5 
REMARK       I    between atoms: N_5  and  C_6 
REMARK    2  A    between atoms: C_6  and  C_7 
REMARK    3  A    between atoms: C_7  and  O_8 
REMARK    4  A    between atoms: O_8  and  C_9 
ROOT
HETATM    1  N   UNL     1      42.494 -16.875   1.718  1.00  0.00    -0.309 N 
HETATM    2  C   UNL     1      41.153 -16.531   1.782  1.00  0.00     0.252 C 
HETATM    3  O   UNL     1      40.279 -17.079   2.444  1.00  0.00    -0.270 OA
HETATM    4  H   UNL     1      43.065 -16.354   1.069  1.00  0.00     0.170 HD
ENDROOT
BRANCH   2   5
HETATM    5  C   UNL     1      40.878 -15.234   0.989  1.00  0.00     0.217 C 
HETATM    6  C   UNL     1      39.470 -14.713   1.234  1.00  0.00     0.050 C 
BRANCH   5   7
HETATM    7  O   UNL     1      41.018 -15.506  -0.410  1.00  0.00    -0.335 OA
BRANCH   7   8
HETATM    8  C   UNL     1      41.376 -14.498  -1.262  1.00  0.00     0.091 A 
HETATM    9  C   UNL     1      41.047 -14.671  -2.619  1.00  0.00     0.069 A 
HETATM   10 CL   UNL     1      40.264 -16.111  -3.170  1.00  0.00    -0.081 Cl
HETATM   11  C   UNL     1      41.375 -13.701  -3.567  1.00  0.00     0.050 A 
HETATM   12  C   UNL     1      42.030 -12.546  -3.160  1.00  0.00     0.035 A 
HETATM   13 CL   UNL     1      42.457 -11.352  -4.322  1.00  0.00    -0.084 Cl
HETATM   14  C   UNL     1      42.343 -12.347  -1.816  1.00  0.00     0.026 A 
HETATM   15  C   UNL     1      42.005 -13.316  -0.865  1.00  0.00     0.040 A 
ENDBRANCH   7   8
ENDBRANCH   5   7
ENDBRANCH   2   5
BRANCH   1  16
HETATM   16  C   UNL     1      43.121 -17.911   2.416  1.00  0.00     0.130 A 
HETATM   17  C   UNL     1      43.185 -19.149   1.780  1.00  0.00     0.057 A 
HETATM   18  C   UNL     1      43.829 -20.214   2.413  1.00  0.00    -0.057 A 
HETATM   19  C   UNL     1      43.963 -21.549   1.746  1.00  0.00     0.048 C 
HETATM   20  C   UNL     1      44.375 -19.998   3.677  1.00  0.00     0.033 A 
HETATM   21  C   UNL     1      44.260 -18.738   4.254  1.00  0.00     0.033 A 
HETATM   22  N   UNL     1      43.654 -17.703   3.629  1.00  0.00    -0.236 NA
HETATM   23  C   UNL     1      44.825 -18.477   5.617  1.00  0.00     0.070 C 
ENDBRANCH   1  16
TORSDOF 4
ENDMDL
MODEL 2
REMARK VINA RESULT:      -7.4      4.466      7.966
REMARK  4 active torsions:
REMARK  status: ('A' for Active; 'I' for Inactive)
REMARK    1  A    between atoms: C_4  and  N_5 
REMARK       I    between atoms: N_5  and  C_6 
REMARK    2  A    between atoms: C_6  and  C_7 
REMARK    3  A    between atoms: C_7  and  O_8 
REMARK    4  A    between atoms: O_8  and  C_9 
ROOT
HETATM    1  N   UNL     1      40.124 -15.394   3.632  1.00  0.00    -0.309 N 
HETATM    2  C   UNL     1      41.477 -15.511   3.909  1.00  0.00     0.252 C 
HETATM    3  O   UNL     1      42.364 -14.716   3.620  1.00  0.00    -0.270 OA
HETATM    4  H   UNL     1      39.541 -16.177   3.887  1.00  0.00     0.170 HD
ENDROOT
BRANCH   2   5
HETATM    5  C   UNL     1      41.755 -16.754   4.783  1.00  0.00     0.217 C 
HETATM    6  C   UNL     1      41.520 -16.468   6.260  1.00  0.00     0.050 C 
BRANCH   5   7
HETATM    7  O   UNL     1      43.123 -17.144   4.615  1.00  0.00    -0.335 OA
BRANCH   7   8
HETATM    8  C   UNL     1      43.421 -18.273   3.905  1.00  0.00     0.091 A 
HETATM    9  C   UNL     1      44.355 -19.154   4.482  1.00  0.00     0.069 A 
HETATM   10 CL   UNL     1      45.107 -18.791   5.996  1.00  0.00    -0.081 Cl
HETATM   11  C   UNL     1      44.729 -20.331   3.832  1.00  0.00     0.050 A 
HETATM   12  C   UNL     1      44.164 -20.638   2.600  1.00  0.00     0.035 A 
HETATM   13 CL   UNL     1      44.632 -22.075   1.780  1.00  0.00    -0.084 Cl
HETATM   14  C   UNL     1      43.220 -19.788   2.025  1.00  0.00     0.026 A 
HETATM   15  C   UNL     1      42.838 -18.613   2.682  1.00  0.00     0.040 A 
ENDBRANCH   7   8
ENDBRANCH   5   7
ENDBRANCH   2   5
BRANCH   1  16
HETATM   16  C   UNL     1      39.498 -14.330   2.978  1.00  0.00     0.130 A 
HETATM   17  C   UNL     1      38.980 -14.587   1.711  1.00  0.00     0.057 A 
HETATM   18  C   UNL     1      38.314 -13.572   1.022  1.00  0.00    -0.057 A 
HETATM   19  C   UNL     1      37.699 -13.817  -0.322  1.00  0.00     0.048 C 
HETATM   20  C   UNL     1      38.206 -12.322   1.629  1.00  0.00     0.033 A 
HETATM   21  C   UNL     1      38.761 -12.137   2.891  1.00  0.00     0.033 A 
HETATM   22  N   UNL     1      39.387 -13.129   3.564  1.00  0.00    -0.236 NA
HETATM   23  C   UNL     1      38.674 -10.802   3.566  1.00  0.00     0.070 C 
ENDBRANCH   1  16
TORSDOF 4
ENDMDL
MODEL 3
REMARK VINA RESULT:      -7.3      3.226      7.604
REMARK  4 active torsions:
REMARK  status: ('A' for Active; 'I' for Inactive)
REMARK    1  A    between atoms: C_4  and  N_5 
REMARK       I    between atoms: N_5  and  C_6 
REMARK    2  A    between atoms: C_6  and  C_7 
REMARK    3  A    between atoms: C_7  and  O_8 
REMARK    4  A    between atoms: O_8  and  C_9 
ROOT
HETATM    1  N   UNL     1      41.088 -15.888   2.143  1.00  0.00    -0.309 N 
HETATM    2  C   UNL     1      41.951 -15.335   3.076  1.00  0.00     0.252 C 
HETATM    3  O   UNL     1      42.287 -14.159   3.169  1.00  0.00    -0.270 OA
HETATM    4  H   UNL     1      40.972 -16.890   2.172  1.00  0.00     0.170 HD
ENDROOT
BRANCH   2   5
HETATM    5  C   UNL     1      42.372 -16.385   4.127  1.00  0.00     0.217 C 
HETATM    6  C   UNL     1      42.398 -15.797   5.531  1.00  0.00     0.050 C 
BRANCH   5   7
HETATM    7  O   UNL     1      43.688 -16.855   3.814  1.00  0.00    -0.335 OA
BRANCH   7   8
HETATM    8  C   UNL     1      43.940 -18.198   3.795  1.00  0.00     0.091 A 
HETATM    9  C   UNL     1      43.968 -18.818   2.532  1.00  0.00     0.069 A 
HETATM   10 CL   UNL     1      43.658 -17.917   1.089  1.00  0.00    -0.081 Cl
HETATM   11  C   UNL     1      44.212 -20.187   2.408  1.00  0.00     0.050 A 
HETATM   12  C   UNL     1      44.436 -20.944   3.551  1.00  0.00     0.035 A 
HETATM   13 CL   UNL     1      44.719 -22.635   3.414  1.00  0.00    -0.084 Cl
HETATM   14  C   UNL     1      44.435 -20.342   4.809  1.00  0.00     0.026 A 
HETATM   15  C   UNL     1      44.200 -18.968   4.931  1.00  0.00     0.040 A 
ENDBRANCH   7   8
ENDBRANCH   5   7
ENDBRANCH   2   5
BRANCH   1  16
HETATM   16  C   UNL     1      40.412 -15.205   1.128  1.00  0.00     0.130 A 
HETATM   17  C   UNL     1      40.993 -15.223  -0.138  1.00  0.00     0.057 A 
HETATM   18  C   UNL     1      40.347 -14.586  -1.199  1.00  0.00    -0.057 A 
HETATM   19  C   UNL     1      40.912 -14.621  -2.587  1.00  0.00     0.048 C 
HETATM   20  C   UNL     1      39.140 -13.937  -0.944  1.00  0.00     0.033 A 
HETATM   21  C   UNL     1      38.628 -13.951   0.348  1.00  0.00     0.033 A 
HETATM   22  N   UNL     1      39.246 -14.586   1.370  1.00  0.00    -0.236 NA
HETATM   23  C   UNL     1      37.340 -13.251   0.658  1.00  0.00     0.070 C 
ENDBRANCH   1  16
TORSDOF 4
ENDMDL
MODEL 4
REMARK VINA RESULT:      -7.3      3.253      7.782
REMARK  4 active torsions:
REMARK  status: ('A' for Active; 'I' for Inactive)
REMARK    1  A    between atoms: C_4  and  N_5 
REMARK       I    between atoms: N_5  and  C_6 
REMARK    2  A    between atoms: C_6  and  C_7 
REMARK    3  A    between atoms: C_7  and  O_8 
REMARK    4  A    between atoms: O_8  and  C_9 
ROOT
HETATM    1  N   UNL     1      41.396 -15.004   1.871  1.00  0.00    -0.309 N 
HETATM    2  C   UNL     1      41.240 -16.124   2.672  1.00  0.00     0.252 C 
HETATM    3  O   UNL     1      40.509 -17.087   2.466  1.00  0.00    -0.270 OA
HETATM    4  H   UNL     1      41.995 -14.274   2.226  1.00  0.00     0.170 HD
ENDROOT
BRANCH   2   5
HETATM    5  C   UNL     1      42.232 -16.098   3.856  1.00  0.00     0.217 C 
HETATM    6  C   UNL     1      42.471 -14.682   4.359  1.00  0.00     0.050 C 
BRANCH   5   7
HETATM    7  O   UNL     1      43.486 -16.637   3.423  1.00  0.00    -0.335 OA
BRANCH   7   8
HETATM    8  C   UNL     1      43.878 -17.872   3.858  1.00  0.00     0.091 A 
HETATM    9  C   UNL     1      44.005 -18.876   2.880  1.00  0.00     0.069 A 
HETATM   10 CL   UNL     1      43.640 -18.555   1.220  1.00  0.00    -0.081 Cl
HETATM   11  C   UNL     1      44.395 -20.171   3.225  1.00  0.00     0.050 A 
HETATM   12  C   UNL     1      44.667 -20.468   4.555  1.00  0.00     0.035 A 
HETATM   13 CL   UNL     1      45.129 -22.064   4.996  1.00  0.00    -0.084 Cl
HETATM   14  C   UNL     1      44.569 -19.479   5.534  1.00  0.00     0.026 A 
HETATM   15  C   UNL     1      44.188 -18.179   5.185  1.00  0.00     0.040 A 
ENDBRANCH   7   8
ENDBRANCH   5   7
ENDBRANCH   2   5
BRANCH   1  16
HETATM   16  C   UNL     1      40.758 -14.758   0.652  1.00  0.00     0.130 A 
HETATM   17  C   UNL     1      39.590 -14.000   0.695  1.00  0.00     0.057 A 
HETATM   18  C   UNL     1      38.926 -13.693  -0.494  1.00  0.00    -0.057 A 
HETATM   19  C   UNL     1      37.694 -12.840  -0.499  1.00  0.00     0.048 C 
HETATM   20  C   UNL     1      39.456 -14.176  -1.689  1.00  0.00     0.033 A 
HETATM   21  C   UNL     1      40.619 -14.937  -1.651  1.00  0.00     0.033 A 
HETATM   22  N   UNL     1      41.270 -15.216  -0.500  1.00  0.00    -0.236 NA
HETATM   23  C   UNL     1      41.206 -15.483  -2.918  1.00  0.00     0.070 C 
ENDBRANCH   1  16
TORSDOF 4
ENDMDL
MODEL 5
REMARK VINA RESULT:      -7.2      2.012      2.596
REMARK  4 active torsions:
REMARK  status: ('A' for Active; 'I' for Inactive)
REMARK    1  A    between atoms: C_4  and  N_5 
REMARK       I    between atoms: N_5  and  C_6 
REMARK    2  A    between atoms: C_6  and  C_7 
REMARK    3  A    between atoms: C_7  and  O_8 
REMARK    4  A    between atoms: O_8  and  C_9 
ROOT
HETATM    1  N   UNL     1      42.248 -16.409   3.241  1.00  0.00    -0.309 N 
HETATM    2  C   UNL     1      41.193 -15.819   3.918  1.00  0.00     0.252 C 
HETATM    3  O   UNL     1      40.780 -16.102   5.038  1.00  0.00    -0.270 OA
HETATM    4  H   UNL     1      42.412 -16.094   2.297  1.00  0.00     0.170 HD
ENDROOT
BRANCH   2   5
HETATM    5  C   UNL     1      40.636 -14.613   3.129  1.00  0.00     0.217 C 
HETATM    6  C   UNL     1      39.946 -13.612   4.045  1.00  0.00     0.050 C 
BRANCH   5   7
HETATM    7  O   UNL     1      39.677 -15.083   2.176  1.00  0.00    -0.335 OA
BRANCH   7   8
HETATM    8  C   UNL     1      39.889 -14.870   0.842  1.00  0.00     0.091 A 
HETATM    9  C   UNL     1      38.955 -14.054   0.177  1.00  0.00     0.069 A 
HETATM   10 CL   UNL     1      37.590 -13.397   1.011  1.00  0.00    -0.081 Cl
HETATM   11  C   UNL     1      39.081 -13.781  -1.186  1.00  0.00     0.050 A 
HETATM   12  C   UNL     1      40.151 -14.319  -1.891  1.00  0.00     0.035 A 
HETATM   13 CL   UNL     1      40.307 -14.006  -3.575  1.00  0.00    -0.084 Cl
HETATM   14  C   UNL     1      41.099 -15.109  -1.243  1.00  0.00     0.026 A 
HETATM   15  C   UNL     1      40.977 -15.374   0.126  1.00  0.00     0.040 A 
ENDBRANCH   7   8
ENDBRANCH   5   7
ENDBRANCH   2   5
BRANCH   1  16
HETATM   16  C   UNL     1      43.067 -17.439   3.713  1.00  0.00     0.130 A 
HETATM   17  C   UNL     1      43.182 -18.570   2.908  1.00  0.00     0.057 A 
HETATM   18  C   UNL     1      44.012 -19.617   3.310  1.00  0.00    -0.057 A 
HETATM   19  C   UNL     1      44.203 -20.832   2.453  1.00  0.00     0.048 C 
HETATM   20  C   UNL     1      44.689 -19.496   4.522  1.00  0.00     0.033 A 
HETATM   21  C   UNL     1      44.515 -18.341   5.277  1.00  0.00     0.033 A 
HETATM   22  N   UNL     1      43.726 -17.320   4.875  1.00  0.00    -0.236 NA
HETATM   23  C   UNL     1      45.218 -18.185   6.591  1.00  0.00     0.070 C 
ENDBRANCH   1  16
TORSDOF 4
ENDMDL
MODEL 6
REMARK VINA RESULT:      -7.1      3.323      4.247
REMARK  4 active torsions:
REMARK  status: ('A' for Active; 'I' for Inactive)
REMARK    1  A    between atoms: C_4  and  N_5 
REMARK       I    between atoms: N_5  and  C_6 
REMARK    2  A    between atoms: C_6  and  C_7 
REMARK    3  A    between atoms: C_7  and  O_8 
REMARK    4  A    between atoms: O_8  and  C_9 
ROOT
HETATM    1  N   UNL     1      42.709 -17.230   1.658  1.00  0.00    -0.309 N 
HETATM    2  C   UNL     1      41.453 -16.691   1.887  1.00  0.00     0.252 C 
HETATM    3  O   UNL     1      40.658 -17.011   2.763  1.00  0.00    -0.270 OA
HETATM    4  H   UNL     1      43.207 -16.890   0.849  1.00  0.00     0.170 HD
ENDROOT
BRANCH   2   5
HETATM    5  C   UNL     1      41.192 -15.487   0.955  1.00  0.00     0.217 C 
HETATM    6  C   UNL     1      41.346 -15.866  -0.511  1.00  0.00     0.050 C 
BRANCH   5   7
HETATM    7  O   UNL     1      42.138 -14.455   1.252  1.00  0.00    -0.335 OA
BRANCH   7   8
HETATM    8  C   UNL     1      42.098 -13.830   2.467  1.00  0.00     0.091 A 
HETATM    9  C   UNL     1      41.042 -12.924   2.678  1.00  0.00     0.069 A 
HETATM   10 CL   UNL     1      39.885 -12.599   1.435  1.00  0.00    -0.081 Cl
HETATM   11  C   UNL     1      40.918 -12.232   3.884  1.00  0.00     0.050 A 
HETATM   12  C   UNL     1      41.849 -12.450   4.892  1.00  0.00     0.035 A 
HETATM   13 CL   UNL     1      41.719 -11.590   6.375  1.00  0.00    -0.084 Cl
HETATM   14  C   UNL     1      42.888 -13.362   4.709  1.00  0.00     0.026 A 
HETATM   15  C   UNL     1      43.006 -14.062   3.503  1.00  0.00     0.040 A 
ENDBRANCH   7   8
ENDBRANCH   5   7
ENDBRANCH   2   5
BRANCH   1  16
HETATM   16  C   UNL     1      43.327 -18.242   2.398  1.00  0.00     0.130 A 
HETATM   17  C   UNL     1      43.427 -19.493   1.792  1.00  0.00     0.057 A 
HETATM   18  C   UNL     1      44.064 -20.534   2.469  1.00  0.00    -0.057 A 
HETATM   19  C   UNL     1      44.236 -21.882   1.837  1.00  0.00     0.048 C 
HETATM   20  C   UNL     1      44.567 -20.284   3.744  1.00  0.00     0.033 A 
HETATM   21  C   UNL     1      44.419 -19.013   4.288  1.00  0.00     0.033 A 
HETATM   22  N   UNL     1      43.819 -18.000   3.622  1.00  0.00    -0.236 NA
HETATM   23  C   UNL     1      44.937 -18.715   5.662  1.00  0.00     0.070 C 
ENDBRANCH   1  16
TORSDOF 4
ENDMDL
MODEL 7
REMARK VINA RESULT:      -7.0      2.072      3.156
REMARK  4 active torsions:
REMARK  status: ('A' for Active; 'I' for Inactive)
REMARK    1  A    between atoms: C_4  and  N_5 
REMARK       I    between atoms: N_5  and  C_6 
REMARK    2  A    between atoms: C_6  and  C_7 
REMARK    3  A    between atoms: C_7  and  O_8 
REMARK    4  A    between atoms: O_8  and  C_9 
ROOT
HETATM    1  N   UNL     1      41.820 -16.848   3.929  1.00  0.00    -0.309 N 
HETATM    2  C   UNL     1      42.162 -15.522   3.717  1.00  0.00     0.252 C 
HETATM    3  O   UNL     1      43.272 -15.014   3.840  1.00  0.00    -0.270 OA
HETATM    4  H   UNL     1      40.842 -17.082   3.843  1.00  0.00     0.170 HD
ENDROOT
BRANCH   2   5
HETATM    5  C   UNL     1      40.964 -14.727   3.152  1.00  0.00     0.217 C 
HETATM    6  C   UNL     1      39.965 -14.366   4.242  1.00  0.00     0.050 C 
BRANCH   5   7
HETATM    7  O   UNL     1      40.292 -15.529   2.176  1.00  0.00    -0.335 OA
BRANCH   7   8
HETATM    8  C   UNL     1      40.212 -15.093   0.882  1.00  0.00     0.091 A 
HETATM    9  C   UNL     1      41.085 -15.695  -0.043  1.00  0.00     0.069 A 
HETATM   10 CL   UNL     1      42.226 -16.895   0.458  1.00  0.00    -0.081 Cl
HETATM   11  C   UNL     1      41.083 -15.315  -1.385  1.00  0.00     0.050 A 
HETATM   12  C   UNL     1      40.199 -14.333  -1.813  1.00  0.00     0.035 A 
HETATM   13 CL   UNL     1      40.199 -13.842  -3.461  1.00  0.00    -0.084 Cl
HETATM   14  C   UNL     1      39.310 -13.743  -0.915  1.00  0.00     0.026 A 
HETATM   15  C   UNL     1      39.306 -14.132   0.429  1.00  0.00     0.040 A 
ENDBRANCH   7   8
ENDBRANCH   5   7
ENDBRANCH   2   5
BRANCH   1  16
HETATM   16  C   UNL     1      42.683 -17.879   4.311  1.00  0.00     0.130 A 
HETATM   17  C   UNL     1      42.853 -18.083   5.679  1.00  0.00     0.057 A 
HETATM   18  C   UNL     1      43.676 -19.119   6.122  1.00  0.00    -0.057 A 
HETATM   19  C   UNL     1      43.850 -19.405   7.583  1.00  0.00     0.048 C 
HETATM   20  C   UNL     1      44.315 -19.909   5.168  1.00  0.00     0.033 A 
HETATM   21  C   UNL     1      44.107 -19.636   3.820  1.00  0.00     0.033 A 
HETATM   22  N   UNL     1      43.293 -18.644   3.394  1.00  0.00    -0.236 NA
HETATM   23  C   UNL     1      44.791 -20.458   2.770  1.00  0.00     0.070 C 
ENDBRANCH   1  16
TORSDOF 4
ENDMDL
MODEL 8
REMARK VINA RESULT:      -7.0      2.882      4.455
REMARK  4 active torsions:
REMARK  status: ('A' for Active; 'I' for Inactive)
REMARK    1  A    between atoms: C_4  and  N_5 
REMARK       I    between atoms: N_5  and  C_6 
REMARK    2  A    between atoms: C_6  and  C_7 
REMARK    3  A    between atoms: C_7  and  O_8 
REMARK    4  A    between atoms: O_8  and  C_9 
ROOT
HETATM    1  N   UNL     1      43.957 -18.326   4.266  1.00  0.00    -0.309 N 
HETATM    2  C   UNL     1      42.902 -17.798   4.993  1.00  0.00     0.252 C 
HETATM    3  O   UNL     1      41.966 -18.413   5.493  1.00  0.00    -0.270 OA
HETATM    4  H   UNL     1      44.610 -17.666   3.871  1.00  0.00     0.170 HD
ENDROOT
BRANCH   2   5
HETATM    5  C   UNL     1      43.102 -16.286   5.235  1.00  0.00     0.217 C 
HETATM    6  C   UNL     1      43.302 -15.974   6.711  1.00  0.00     0.050 C 
BRANCH   5   7
HETATM    7  O   UNL     1      41.938 -15.585   4.784  1.00  0.00    -0.335 OA
BRANCH   7   8
HETATM    8  C   UNL     1      41.647 -15.547   3.448  1.00  0.00     0.091 A 
HETATM    9  C   UNL     1      42.386 -14.642   2.665  1.00  0.00     0.069 A 
HETATM   10 CL   UNL     1      43.573 -13.606   3.381  1.00  0.00    -0.081 Cl
HETATM   11  C   UNL     1      42.159 -14.525   1.293  1.00  0.00     0.050 A 
HETATM   12  C   UNL     1      41.192 -15.323   0.694  1.00  0.00     0.035 A 
HETATM   13 CL   UNL     1      40.889 -15.175  -0.992  1.00  0.00    -0.084 Cl
HETATM   14  C   UNL     1      40.467 -16.242   1.450  1.00  0.00     0.026 A 
HETATM   15  C   UNL     1      40.702 -16.365   2.824  1.00  0.00     0.040 A 
ENDBRANCH   7   8
ENDBRANCH   5   7
ENDBRANCH   2   5
BRANCH   1  16
HETATM   16  C   UNL     1      44.172 -19.676   3.973  1.00  0.00     0.130 A 
HETATM   17  C   UNL     1      43.878 -20.093   2.677  1.00  0.00     0.057 A 
HETATM   18  C   UNL     1      44.104 -21.422   2.314  1.00  0.00    -0.057 A 
HETATM   19  C   UNL     1      43.847 -21.902   0.918  1.00  0.00     0.048 C 
HETATM   20  C   UNL     1      44.606 -22.293   3.279  1.00  0.00     0.033 A 
HETATM   21  C   UNL     1      44.863 -21.807   4.556  1.00  0.00     0.033 A 
HETATM   22  N   UNL     1      44.663 -20.514   4.898  1.00  0.00    -0.236 NA
HETATM   23  C   UNL     1      45.390 -22.721   5.620  1.00  0.00     0.070 C 
ENDBRANCH   1  16
TORSDOF 4
ENDMDL
MODEL 9
REMARK VINA RESULT:      -6.9      3.297      7.864
REMARK  4 active torsions:
REMARK  status: ('A' for Active; 'I' for Inactive)
REMARK    1  A    between atoms: C_4  and  N_5 
REMARK       I    between atoms: N_5  and  C_6 
REMARK    2  A    between atoms: C_6  and  C_7 
REMARK    3  A    between atoms: C_7  and  O_8 
REMARK    4  A    between atoms: O_8  and  C_9 
ROOT
HETATM    1  N   UNL     1      41.748 -14.664   0.175  1.00  0.00    -0.309 N 
HETATM    2  C   UNL     1      41.117 -14.220   1.326  1.00  0.00     0.252 C 
HETATM    3  O   UNL     1      40.155 -13.463   1.399  1.00  0.00    -0.270 OA
HETATM    4  H   UNL     1      42.569 -15.237   0.302  1.00  0.00     0.170 HD
ENDROOT
BRANCH   2   5
HETATM    5  C   UNL     1      41.697 -14.917   2.577  1.00  0.00     0.217 C 
HETATM    6  C   UNL     1      43.045 -14.333   2.972  1.00  0.00     0.050 C 
BRANCH   5   7
HETATM    7  O   UNL     1      41.879 -16.308   2.292  1.00  0.00    -0.335 OA
BRANCH   7   8
HETATM    8  C   UNL     1      42.316 -17.149   3.277  1.00  0.00     0.091 A 
HETATM    9  C   UNL     1      43.509 -17.852   3.024  1.00  0.00     0.069 A 
HETATM   10 CL   UNL     1      44.344 -17.680   1.520  1.00  0.00    -0.081 Cl
HETATM   11  C   UNL     1      44.034 -18.738   3.966  1.00  0.00     0.050 A 
HETATM   12  C   UNL     1      43.371 -18.920   5.173  1.00  0.00     0.035 A 
HETATM   13 CL   UNL     1      43.997 -20.023   6.334  1.00  0.00    -0.084 Cl
HETATM   14  C   UNL     1      42.201 -18.214   5.450  1.00  0.00     0.026 A 
HETATM   15  C   UNL     1      41.680 -17.319   4.509  1.00  0.00     0.040 A 
ENDBRANCH   7   8
ENDBRANCH   5   7
ENDBRANCH   2   5
BRANCH   1  16
HETATM   16  C   UNL     1      41.399 -14.346  -1.141  1.00  0.00     0.130 A 
HETATM   17  C   UNL     1      41.972 -13.198  -1.683  1.00  0.00     0.057 A 
HETATM   18  C   UNL     1      41.687 -12.847  -3.004  1.00  0.00    -0.057 A 
HETATM   19  C   UNL     1      42.318 -11.647  -3.643  1.00  0.00     0.048 C 
HETATM   20  C   UNL     1      40.820 -13.659  -3.731  1.00  0.00     0.033 A 
HETATM   21  C   UNL     1      40.277 -14.783  -3.117  1.00  0.00     0.033 A 
HETATM   22  N   UNL     1      40.570 -15.131  -1.844  1.00  0.00    -0.236 NA
HETATM   23  C   UNL     1      39.330 -15.669  -3.867  1.00  0.00     0.070 C 
ENDBRANCH   1  16
TORSDOF 4
ENDMDL
MODEL 10
REMARK VINA RESULT:      -6.9      3.441      4.016
REMARK  4 active torsions:
REMARK  status: ('A' for Active; 'I' for Inactive)
REMARK    1  A    between atoms: C_4  and  N_5 
REMARK       I    between atoms: N_5  and  C_6 
REMARK    2  A    between atoms: C_6  and  C_7 
REMARK    3  A    between atoms: C_7  and  O_8 
REMARK    4  A    between atoms: O_8  and  C_9 
ROOT
HETATM    1  N   UNL     1      42.598 -16.743   2.387  1.00  0.00    -0.309 N 
HETATM    2  C   UNL     1      41.439 -16.154   2.866  1.00  0.00     0.252 C 
HETATM    3  O   UNL     1      40.761 -16.520   3.819  1.00  0.00    -0.270 OA
HETATM    4  H   UNL     1      42.995 -16.345   1.549  1.00  0.00     0.170 HD
ENDROOT
BRANCH   2   5
HETATM    5  C   UNL     1      41.140 -14.837   2.115  1.00  0.00     0.217 C 
HETATM    6  C   UNL     1      42.374 -13.952   2.016  1.00  0.00     0.050 C 
BRANCH   5   7
HETATM    7  O   UNL     1      40.129 -14.116   2.827  1.00  0.00    -0.335 OA
BRANCH   7   8
HETATM    8  C   UNL     1      39.094 -13.545   2.139  1.00  0.00     0.091 A 
HETATM    9  C   UNL     1      38.847 -12.181   2.385  1.00  0.00     0.069 A 
HETATM   10 CL   UNL     1      39.791 -11.297   3.533  1.00  0.00    -0.081 Cl
HETATM   11  C   UNL     1      37.810 -11.511   1.735  1.00  0.00     0.050 A 
HETATM   12  C   UNL     1      37.015 -12.201   0.829  1.00  0.00     0.035 A 
HETATM   13 CL   UNL     1      35.722 -11.391   0.037  1.00  0.00    -0.084 Cl
HETATM   14  C   UNL     1      37.261 -13.546   0.556  1.00  0.00     0.026 A 
HETATM   15  C   UNL     1      38.307 -14.215   1.200  1.00  0.00     0.040 A 
ENDBRANCH   7   8
ENDBRANCH   5   7
ENDBRANCH   2   5
BRANCH   1  16
HETATM   16  C   UNL     1      43.236 -17.871   2.912  1.00  0.00     0.130 A 
HETATM   17  C   UNL     1      43.240 -19.017   2.120  1.00  0.00     0.057 A 
HETATM   18  C   UNL     1      43.890 -20.165   2.577  1.00  0.00    -0.057 A 
HETATM   19  C   UNL     1      43.960 -21.405   1.738  1.00  0.00     0.048 C 
HETATM   20  C   UNL     1      44.504 -20.123   3.827  1.00  0.00     0.033 A 
HETATM   21  C   UNL     1      44.447 -18.946   4.565  1.00  0.00     0.033 A 
HETATM   22  N   UNL     1      43.834 -17.830   4.112  1.00  0.00    -0.236 NA
HETATM   23  C   UNL     1      45.085 -18.873   5.919  1.00  0.00     0.070 C 
ENDBRANCH   1  16
TORSDOF 4
ENDMDL
