MODEL 1
REMARK VINA RESULT:      -9.3      0.000      0.000
REMARK  9 active torsions:
REMARK  status: ('A' for Active; 'I' for Inactive)
REMARK    1  A    between atoms: C_4  and  S_5 
REMARK    2  A    between atoms: S_5  and  C_6 
REMARK    3  A    between atoms: C_6  and  C_7 
REMARK       I    between atoms: C_7  and  N_8 
REMARK    4  A    between atoms: N_8  and  C_9 
REMARK    5  A    between atoms: C_10  and  O_11 
REMARK    6  A    between atoms: C_16  and  O_17 
REMARK    7  A    between atoms: C_24  and  C_25 
REMARK    8  A    between atoms: C_31  and  C_32 
REMARK       I    between atoms: C_32  and  N_33 
REMARK    9  A    between atoms: N_33  and  C_34 
ROOT
HETATM    1  C   UNL     1      43.841 -14.287   3.701  1.00  0.00     0.069 C 
HETATM    2  C   UNL     1      42.591 -14.301   2.860  1.00  0.00     0.019 C 
HETATM    3  N   UNL     1      41.690 -13.270   3.091  1.00  0.00    -0.353 N 
HETATM    4  C   UNL     1      40.373 -13.280   2.667  1.00  0.00     0.087 C 
HETATM    5  C   UNL     1      39.996 -14.174   1.728  1.00  0.00     0.055 C 
HETATM    6  C   UNL     1      38.553 -14.348   1.282  1.00  0.00     0.019 C 
HETATM    7  N   UNL     1      37.356 -14.494   0.913  1.00  0.00    -0.096 N 
HETATM    8  C   UNL     1      41.017 -15.117   1.099  1.00  0.00     0.104 C 
HETATM    9  C   UNL     1      42.300 -15.237   1.923  1.00  0.00     0.046 C 
HETATM   10  H   UNL     1      41.900 -12.614   3.839  1.00  0.00     0.166 HD
ENDROOT
BRANCH   4  11
HETATM   11  S   UNL     1      39.239 -12.128   3.313  1.00  0.00    -0.102 SA
BRANCH  11  12
HETATM   12  C   UNL     1      39.445 -12.409   5.111  1.00  0.00     0.184 C 
BRANCH  12  13
HETATM   13  C   UNL     1      40.226 -11.215   5.631  1.00  0.00     0.231 C 
HETATM   14  N   UNL     1      39.853 -10.855   6.912  1.00  0.00    -0.324 N 
HETATM   15  H   UNL     1      38.881 -10.939   7.193  1.00  0.00     0.169 HD
HETATM   16  O   UNL     1      41.170 -10.730   5.013  1.00  0.00    -0.272 OA
BRANCH  14  17
HETATM   17  C   UNL     1      40.751 -10.657   7.986  1.00  0.00     0.071 A 
HETATM   18  C   UNL     1      40.201 -10.350   9.242  1.00  0.00     0.096 A 
HETATM   19  C   UNL     1      41.024 -10.314  10.365  1.00  0.00     0.065 A 
HETATM   20  C   UNL     1      42.394 -10.566  10.233  1.00  0.00     0.070 A 
HETATM   21 CL   UNL     1      43.355 -10.556  11.673  1.00  0.00    -0.081 Cl
HETATM   22  C   UNL     1      42.962 -10.843   8.981  1.00  0.00     0.092 A 
HETATM   23  C   UNL     1      42.128 -10.873   7.859  1.00  0.00     0.071 A 
BRANCH  18  24
HETATM   24  O   UNL     1      38.837 -10.168   9.282  1.00  0.00    -0.354 OA
HETATM   25  C   UNL     1      38.373  -9.368  10.368  1.00  0.00     0.210 C 
ENDBRANCH  18  24
BRANCH  22  26
HETATM   26  O   UNL     1      44.308 -11.100   8.949  1.00  0.00    -0.354 OA
HETATM   27  C   UNL     1      44.718 -12.448   8.740  1.00  0.00     0.210 C 
ENDBRANCH  22  26
ENDBRANCH  14  17
ENDBRANCH  12  13
ENDBRANCH  11  12
ENDBRANCH   4  11
BRANCH   8  28
HETATM   28  C   UNL     1      41.287 -14.677  -0.345  1.00  0.00    -0.044 A 
HETATM   29  C   UNL     1      41.864 -13.427  -0.634  1.00  0.00     0.008 A 
HETATM   30  C   UNL     1      42.089 -13.033  -1.953  1.00  0.00     0.001 A 
HETATM   31  C   UNL     1      41.728 -13.874  -3.002  1.00  0.00     0.000 A 
HETATM   32  C   UNL     1      41.143 -15.109  -2.733  1.00  0.00     0.001 A 
HETATM   33  C   UNL     1      40.920 -15.509  -1.415  1.00  0.00     0.008 A 
ENDBRANCH   8  28
BRANCH   9  34
HETATM   34  C   UNL     1      43.093 -16.505   1.835  1.00  0.00     0.255 C 
HETATM   35  N   UNL     1      42.664 -17.505   2.676  1.00  0.00    -0.323 N 
HETATM   36  H   UNL     1      41.814 -17.351   3.203  1.00  0.00     0.169 HD
HETATM   37  O   UNL     1      44.074 -16.545   1.097  1.00  0.00    -0.268 OA
BRANCH  35  38
HETATM   38  C   UNL     1      43.295 -18.743   2.926  1.00  0.00     0.035 A 
HETATM   39  C   UNL     1      43.315 -19.808   2.024  1.00  0.00     0.029 A 
HETATM   40  C   UNL     1      43.983 -20.994   2.343  1.00  0.00     0.002 A 
HETATM   41  C   UNL     1      44.645 -21.124   3.560  1.00  0.00     0.000 A 
HETATM   42  C   UNL     1      44.632 -20.067   4.468  1.00  0.00     0.002 A 
HETATM   43  C   UNL     1      43.954 -18.886   4.155  1.00  0.00     0.029 A 
ENDBRANCH  35  38
ENDBRANCH   9  34
TORSDOF 9
ENDMDL
MODEL 2
REMARK VINA RESULT:      -9.0      1.628      5.239
REMARK  9 active torsions:
REMARK  status: ('A' for Active; 'I' for Inactive)
REMARK    1  A    between atoms: C_4  and  S_5 
REMARK    2  A    between atoms: S_5  and  C_6 
REMARK    3  A    between atoms: C_6  and  C_7 
REMARK       I    between atoms: C_7  and  N_8 
REMARK    4  A    between atoms: N_8  and  C_9 
REMARK    5  A    between atoms: C_10  and  O_11 
REMARK    6  A    between atoms: C_16  and  O_17 
REMARK    7  A    between atoms: C_24  and  C_25 
REMARK    8  A    between atoms: C_31  and  C_32 
REMARK       I    between atoms: C_32  and  N_33 
REMARK    9  A    between atoms: N_33  and  C_34 
ROOT
HETATM    1  C   UNL     1      38.507 -14.748   1.426  1.00  0.00     0.069 C 
HETATM    2  C   UNL     1      39.790 -14.833   2.212  1.00  0.00     0.019 C 
HETATM    3  N   UNL     1      39.663 -14.775   3.593  1.00  0.00    -0.353 N 
HETATM    4  C   UNL     1      40.712 -14.518   4.459  1.00  0.00     0.087 C 
HETATM    5  C   UNL     1      41.978 -14.624   4.001  1.00  0.00     0.055 C 
HETATM    6  C   UNL     1      43.193 -14.249   4.833  1.00  0.00     0.019 C 
HETATM    7  N   UNL     1      44.201 -13.937   5.523  1.00  0.00    -0.096 N 
HETATM    8  C   UNL     1      42.250 -15.078   2.571  1.00  0.00     0.104 C 
HETATM    9  C   UNL     1      41.024 -14.955   1.665  1.00  0.00     0.046 C 
HETATM   10  H   UNL     1      38.735 -14.624   3.979  1.00  0.00     0.166 HD
ENDROOT
BRANCH   4  11
HETATM   11  S   UNL     1      40.391 -14.104   6.120  1.00  0.00    -0.102 SA
BRANCH  11  12
HETATM   12  C   UNL     1      39.322 -12.633   5.910  1.00  0.00     0.184 C 
BRANCH  12  13
HETATM   13  C   UNL     1      40.193 -11.436   6.245  1.00  0.00     0.231 C 
HETATM   14  N   UNL     1      39.926 -10.919   7.499  1.00  0.00    -0.324 N 
HETATM   15  H   UNL     1      38.972 -10.917   7.847  1.00  0.00     0.169 HD
HETATM   16  O   UNL     1      41.117 -11.074   5.521  1.00  0.00    -0.272 OA
BRANCH  14  17
HETATM   17  C   UNL     1      40.903 -10.657   8.487  1.00  0.00     0.071 A 
HETATM   18  C   UNL     1      40.450 -10.342   9.778  1.00  0.00     0.096 A 
HETATM   19  C   UNL     1      41.363 -10.244  10.826  1.00  0.00     0.065 A 
HETATM   20  C   UNL     1      42.726 -10.443  10.581  1.00  0.00     0.070 A 
HETATM   21 CL   UNL     1      43.805 -10.357  11.933  1.00  0.00    -0.081 Cl
HETATM   22  C   UNL     1      43.197 -10.728   9.291  1.00  0.00     0.092 A 
HETATM   23  C   UNL     1      42.272 -10.821   8.246  1.00  0.00     0.071 A 
BRANCH  18  24
HETATM   24  O   UNL     1      39.088 -10.214   9.932  1.00  0.00    -0.354 OA
HETATM   25  C   UNL     1      38.667  -9.000  10.552  1.00  0.00     0.210 C 
ENDBRANCH  18  24
BRANCH  22  26
HETATM   26  O   UNL     1      44.545 -10.931   9.149  1.00  0.00    -0.354 OA
HETATM   27  C   UNL     1      44.986 -12.252   8.847  1.00  0.00     0.210 C 
ENDBRANCH  22  26
ENDBRANCH  14  17
ENDBRANCH  12  13
ENDBRANCH  11  12
ENDBRANCH   4  11
BRANCH   8  28
HETATM   28  C   UNL     1      42.820 -16.502   2.594  1.00  0.00    -0.044 A 
HETATM   29  C   UNL     1      43.761 -16.930   1.640  1.00  0.00     0.008 A 
HETATM   30  C   UNL     1      44.259 -18.233   1.663  1.00  0.00     0.001 A 
HETATM   31  C   UNL     1      43.814 -19.131   2.630  1.00  0.00     0.000 A 
HETATM   32  C   UNL     1      42.872 -18.727   3.573  1.00  0.00     0.001 A 
HETATM   33  C   UNL     1      42.374 -17.423   3.556  1.00  0.00     0.008 A 
ENDBRANCH   8  28
BRANCH   9  34
HETATM   34  C   UNL     1      41.236 -14.742   0.196  1.00  0.00     0.255 C 
HETATM   35  N   UNL     1      41.382 -13.426  -0.173  1.00  0.00    -0.323 N 
HETATM   36  H   UNL     1      41.432 -12.728   0.559  1.00  0.00     0.169 HD
HETATM   37  O   UNL     1      41.201 -15.710  -0.557  1.00  0.00    -0.268 OA
BRANCH  35  38
HETATM   38  C   UNL     1      41.442 -12.906  -1.485  1.00  0.00     0.035 A 
HETATM   39  C   UNL     1      42.628 -12.581  -2.145  1.00  0.00     0.029 A 
HETATM   40  C   UNL     1      42.600 -12.092  -3.454  1.00  0.00     0.002 A 
HETATM   41  C   UNL     1      41.387 -11.931  -4.119  1.00  0.00     0.000 A 
HETATM   42  C   UNL     1      40.197 -12.252  -3.469  1.00  0.00     0.002 A 
HETATM   43  C   UNL     1      40.225 -12.729  -2.157  1.00  0.00     0.029 A 
ENDBRANCH  35  38
ENDBRANCH   9  34
TORSDOF 9
ENDMDL
MODEL 3
REMARK VINA RESULT:      -8.9      2.866      5.140
REMARK  9 active torsions:
REMARK  status: ('A' for Active; 'I' for Inactive)
REMARK    1  A    between atoms: C_4  and  S_5 
REMARK    2  A    between atoms: S_5  and  C_6 
REMARK    3  A    between atoms: C_6  and  C_7 
REMARK       I    between atoms: C_7  and  N_8 
REMARK    4  A    between atoms: N_8  and  C_9 
REMARK    5  A    between atoms: C_10  and  O_11 
REMARK    6  A    between atoms: C_16  and  O_17 
REMARK    7  A    between atoms: C_24  and  C_25 
REMARK    8  A    between atoms: C_31  and  C_32 
REMARK       I    between atoms: C_32  and  N_33 
REMARK    9  A    between atoms: N_33  and  C_34 
ROOT
HETATM    1  C   UNL     1      40.767 -15.746   3.239  1.00  0.00     0.069 C 
HETATM    2  C   UNL     1      41.889 -15.423   4.192  1.00  0.00     0.019 C 
HETATM    3  N   UNL     1      41.707 -14.302   4.990  1.00  0.00    -0.353 N 
HETATM    4  C   UNL     1      42.725 -13.666   5.680  1.00  0.00     0.087 C 
HETATM    5  C   UNL     1      43.900 -14.310   5.850  1.00  0.00     0.055 C 
HETATM    6  C   UNL     1      45.117 -13.657   6.484  1.00  0.00     0.019 C 
HETATM    7  N   UNL     1      46.127 -13.116   7.010  1.00  0.00    -0.096 N 
HETATM    8  C   UNL     1      44.083 -15.738   5.345  1.00  0.00     0.104 C 
HETATM    9  C   UNL     1      43.035 -16.140   4.307  1.00  0.00     0.046 C 
HETATM   10  H   UNL     1      40.868 -13.747   4.845  1.00  0.00     0.166 HD
ENDROOT
BRANCH   4  11
HETATM   11  S   UNL     1      42.469 -12.078   6.345  1.00  0.00    -0.102 SA
BRANCH  11  12
HETATM   12  C   UNL     1      40.650 -12.078   6.552  1.00  0.00     0.184 C 
BRANCH  12  13
HETATM   13  C   UNL     1      40.347 -10.982   7.558  1.00  0.00     0.231 C 
HETATM   14  N   UNL     1      40.430 -11.424   8.865  1.00  0.00    -0.324 N 
HETATM   15  H   UNL     1      40.134 -12.367   9.095  1.00  0.00     0.169 HD
HETATM   16  O   UNL     1      40.184  -9.811   7.224  1.00  0.00    -0.272 OA
BRANCH  14  17
HETATM   17  C   UNL     1      41.177 -10.788   9.884  1.00  0.00     0.071 A 
HETATM   18  C   UNL     1      40.461 -10.106  10.881  1.00  0.00     0.096 A 
HETATM   19  C   UNL     1      41.133  -9.609  11.996  1.00  0.00     0.065 A 
HETATM   20  C   UNL     1      42.517  -9.778  12.106  1.00  0.00     0.070 A 
HETATM   21 CL   UNL     1      43.287  -9.183  13.538  1.00  0.00    -0.081 Cl
HETATM   22  C   UNL     1      43.250 -10.430  11.103  1.00  0.00     0.092 A 
HETATM   23  C   UNL     1      42.567 -10.921   9.987  1.00  0.00     0.071 A 
BRANCH  18  24
HETATM   24  O   UNL     1      39.097 -10.033  10.711  1.00  0.00    -0.354 OA
HETATM   25  C   UNL     1      38.592  -8.720  10.477  1.00  0.00     0.210 C 
ENDBRANCH  18  24
BRANCH  22  26
HETATM   26  O   UNL     1      44.598 -10.571  11.307  1.00  0.00    -0.354 OA
HETATM   27  C   UNL     1      45.403 -10.919  10.184  1.00  0.00     0.210 C 
ENDBRANCH  22  26
ENDBRANCH  14  17
ENDBRANCH  12  13
ENDBRANCH  11  12
ENDBRANCH   4  11
BRANCH   8  28
HETATM   28  C   UNL     1      44.118 -16.695   6.543  1.00  0.00    -0.044 A 
HETATM   29  C   UNL     1      44.930 -17.844   6.538  1.00  0.00     0.008 A 
HETATM   30  C   UNL     1      44.940 -18.715   7.628  1.00  0.00     0.001 A 
HETATM   31  C   UNL     1      44.130 -18.459   8.731  1.00  0.00     0.000 A 
HETATM   32  C   UNL     1      43.310 -17.333   8.745  1.00  0.00     0.001 A 
HETATM   33  C   UNL     1      43.300 -16.456   7.659  1.00  0.00     0.008 A 
ENDBRANCH   8  28
BRANCH   9  34
HETATM   34  C   UNL     1      43.396 -17.176   3.286  1.00  0.00     0.255 C 
HETATM   35  N   UNL     1      43.161 -18.471   3.682  1.00  0.00    -0.323 N 
HETATM   36  H   UNL     1      42.686 -18.621   4.563  1.00  0.00     0.169 HD
HETATM   37  O   UNL     1      43.919 -16.819   2.234  1.00  0.00    -0.268 OA
BRANCH  35  38
HETATM   38  C   UNL     1      43.535 -19.654   3.008  1.00  0.00     0.035 A 
HETATM   39  C   UNL     1      42.850 -20.182   1.913  1.00  0.00     0.029 A 
HETATM   40  C   UNL     1      43.302 -21.349   1.288  1.00  0.00     0.002 A 
HETATM   41  C   UNL     1      44.448 -21.993   1.746  1.00  0.00     0.000 A 
HETATM   42  C   UNL     1      45.140 -21.475   2.839  1.00  0.00     0.002 A 
HETATM   43  C   UNL     1      44.681 -20.316   3.470  1.00  0.00     0.029 A 
ENDBRANCH  35  38
ENDBRANCH   9  34
TORSDOF 9
ENDMDL
MODEL 4
REMARK VINA RESULT:      -8.8      4.158      8.005
REMARK  9 active torsions:
REMARK  status: ('A' for Active; 'I' for Inactive)
REMARK    1  A    between atoms: C_4  and  S_5 
REMARK    2  A    between atoms: S_5  and  C_6 
REMARK    3  A    between atoms: C_6  and  C_7 
REMARK       I    between atoms: C_7  and  N_8 
REMARK    4  A    between atoms: N_8  and  C_9 
REMARK    5  A    between atoms: C_10  and  O_11 
REMARK    6  A    between atoms: C_16  and  O_17 
REMARK    7  A    between atoms: C_24  and  C_25 
REMARK    8  A    between atoms: C_31  and  C_32 
REMARK       I    between atoms: C_32  and  N_33 
REMARK    9  A    between atoms: N_33  and  C_34 
ROOT
HETATM    1  C   UNL     1      40.938 -10.486   1.182  1.00  0.00     0.069 C 
HETATM    2  C   UNL     1      41.103 -11.944   0.838  1.00  0.00     0.019 C 
HETATM    3  N   UNL     1      40.705 -12.848   1.813  1.00  0.00    -0.353 N 
HETATM    4  C   UNL     1      41.063 -14.185   1.825  1.00  0.00     0.087 C 
HETATM    5  C   UNL     1      41.568 -14.736   0.701  1.00  0.00     0.055 C 
HETATM    6  C   UNL     1      42.102 -16.158   0.643  1.00  0.00     0.019 C 
HETATM    7  N   UNL     1      42.546 -17.337   0.595  1.00  0.00    -0.096 N 
HETATM    8  C   UNL     1      41.685 -13.916  -0.580  1.00  0.00     0.104 C 
HETATM    9  C   UNL     1      41.609 -12.409  -0.330  1.00  0.00     0.046 C 
HETATM   10  H   UNL     1      40.384 -12.477   2.704  1.00  0.00     0.166 HD
ENDROOT
BRANCH   4  11
HETATM   11  S   UNL     1      40.826 -15.140   3.262  1.00  0.00    -0.102 SA
BRANCH  11  12
HETATM   12  C   UNL     1      41.682 -14.108   4.509  1.00  0.00     0.184 C 
BRANCH  12  13
HETATM   13  C   UNL     1      42.318 -15.081   5.487  1.00  0.00     0.231 C 
HETATM   14  N   UNL     1      41.917 -16.386   5.272  1.00  0.00    -0.324 N 
HETATM   15  H   UNL     1      40.966 -16.575   4.973  1.00  0.00     0.169 HD
HETATM   16  O   UNL     1      43.190 -14.737   6.280  1.00  0.00    -0.272 OA
BRANCH  14  17
HETATM   17  C   UNL     1      42.796 -17.486   5.137  1.00  0.00     0.071 A 
HETATM   18  C   UNL     1      43.111 -18.209   6.299  1.00  0.00     0.096 A 
HETATM   19  C   UNL     1      43.832 -19.397   6.199  1.00  0.00     0.065 A 
HETATM   20  C   UNL     1      44.250 -19.853   4.944  1.00  0.00     0.070 A 
HETATM   21 CL   UNL     1      45.098 -21.361   4.880  1.00  0.00    -0.081 Cl
HETATM   22  C   UNL     1      43.969 -19.126   3.778  1.00  0.00     0.092 A 
HETATM   23  C   UNL     1      43.249 -17.932   3.890  1.00  0.00     0.071 A 
BRANCH  18  24
HETATM   24  O   UNL     1      42.614 -17.709   7.481  1.00  0.00    -0.354 OA
HETATM   25  C   UNL     1      43.596 -17.458   8.485  1.00  0.00     0.210 C 
ENDBRANCH  18  24
BRANCH  22  26
HETATM   26  O   UNL     1      44.398 -19.660   2.590  1.00  0.00    -0.354 OA
HETATM   27  C   UNL     1      43.522 -20.557   1.915  1.00  0.00     0.210 C 
ENDBRANCH  22  26
ENDBRANCH  14  17
ENDBRANCH  12  13
ENDBRANCH  11  12
ENDBRANCH   4  11
BRANCH   8  28
HETATM   28  C   UNL     1      40.629 -14.397  -1.584  1.00  0.00    -0.044 A 
HETATM   29  C   UNL     1      39.300 -13.942  -1.523  1.00  0.00     0.008 A 
HETATM   30  C   UNL     1      38.346 -14.400  -2.433  1.00  0.00     0.001 A 
HETATM   31  C   UNL     1      38.703 -15.329  -3.406  1.00  0.00     0.000 A 
HETATM   32  C   UNL     1      40.012 -15.801  -3.471  1.00  0.00     0.001 A 
HETATM   33  C   UNL     1      40.970 -15.341  -2.566  1.00  0.00     0.008 A 
ENDBRANCH   8  28
BRANCH   9  34
HETATM   34  C   UNL     1      42.304 -11.488  -1.286  1.00  0.00     0.255 C 
HETATM   35  N   UNL     1      41.480 -10.913  -2.224  1.00  0.00    -0.323 N 
HETATM   36  H   UNL     1      40.483 -11.070  -2.143  1.00  0.00     0.169 HD
HETATM   37  O   UNL     1      43.523 -11.364  -1.213  1.00  0.00    -0.268 OA
BRANCH  35  38
HETATM   38  C   UNL     1      41.863 -10.131  -3.335  1.00  0.00     0.035 A 
HETATM   39  C   UNL     1      42.065  -8.751  -3.290  1.00  0.00     0.029 A 
HETATM   40  C   UNL     1      42.466  -8.054  -4.434  1.00  0.00     0.002 A 
HETATM   41  C   UNL     1      42.676  -8.732  -5.632  1.00  0.00     0.000 A 
HETATM   42  C   UNL     1      42.477 -10.109  -5.689  1.00  0.00     0.002 A 
HETATM   43  C   UNL     1      42.064 -10.803  -4.549  1.00  0.00     0.029 A 
ENDBRANCH  35  38
ENDBRANCH   9  34
TORSDOF 9
ENDMDL
MODEL 5
REMARK VINA RESULT:      -8.8      4.734      8.727
REMARK  9 active torsions:
REMARK  status: ('A' for Active; 'I' for Inactive)
REMARK    1  A    between atoms: C_4  and  S_5 
REMARK    2  A    between atoms: S_5  and  C_6 
REMARK    3  A    between atoms: C_6  and  C_7 
REMARK       I    between atoms: C_7  and  N_8 
REMARK    4  A    between atoms: N_8  and  C_9 
REMARK    5  A    between atoms: C_10  and  O_11 
REMARK    6  A    between atoms: C_16  and  O_17 
REMARK    7  A    between atoms: C_24  and  C_25 
REMARK    8  A    between atoms: C_31  and  C_32 
REMARK       I    between atoms: C_32  and  N_33 
REMARK    9  A    between atoms: N_33  and  C_34 
ROOT
HETATM    1  C   UNL     1      41.194 -15.325  -2.525  1.00  0.00     0.069 C 
HETATM    2  C   UNL     1      41.215 -14.211  -1.511  1.00  0.00     0.019 C 
HETATM    3  N   UNL     1      41.913 -14.468  -0.339  1.00  0.00    -0.353 N 
HETATM    4  C   UNL     1      41.786 -13.722   0.820  1.00  0.00     0.087 C 
HETATM    5  C   UNL     1      41.198 -12.508   0.754  1.00  0.00     0.055 C 
HETATM    6  C   UNL     1      40.902 -11.664   1.983  1.00  0.00     0.019 C 
HETATM    7  N   UNL     1      40.655 -10.964   3.002  1.00  0.00    -0.096 N 
HETATM    8  C   UNL     1      40.736 -11.941  -0.585  1.00  0.00     0.104 C 
HETATM    9  C   UNL     1      40.604 -13.011  -1.669  1.00  0.00     0.046 C 
HETATM   10  H   UNL     1      42.312 -15.395  -0.217  1.00  0.00     0.166 HD
ENDROOT
BRANCH   4  11
HETATM   11  S   UNL     1      42.413 -14.333   2.325  1.00  0.00    -0.102 SA
BRANCH  11  12
HETATM   12  C   UNL     1      41.278 -15.738   2.628  1.00  0.00     0.184 C 
BRANCH  12  13
HETATM   13  C   UNL     1      41.998 -16.972   2.115  1.00  0.00     0.231 C 
HETATM   14  N   UNL     1      43.290 -17.070   2.595  1.00  0.00    -0.324 N 
HETATM   15  H   UNL     1      43.840 -16.228   2.730  1.00  0.00     0.169 HD
HETATM   16  O   UNL     1      41.427 -17.839   1.457  1.00  0.00    -0.272 OA
BRANCH  14  17
HETATM   17  C   UNL     1      43.834 -18.221   3.211  1.00  0.00     0.071 A 
HETATM   18  C   UNL     1      43.990 -18.196   4.607  1.00  0.00     0.096 A 
HETATM   19  C   UNL     1      44.359 -19.358   5.281  1.00  0.00     0.065 A 
HETATM   20  C   UNL     1      44.587 -20.537   4.563  1.00  0.00     0.070 A 
HETATM   21 CL   UNL     1      44.993 -21.959   5.463  1.00  0.00    -0.081 Cl
HETATM   22  C   UNL     1      44.465 -20.569   3.167  1.00  0.00     0.092 A 
HETATM   23  C   UNL     1      44.098 -19.397   2.499  1.00  0.00     0.071 A 
BRANCH  18  24
HETATM   24  O   UNL     1      43.695 -17.006   5.232  1.00  0.00    -0.354 OA
HETATM   25  C   UNL     1      44.223 -16.875   6.550  1.00  0.00     0.210 C 
ENDBRANCH  18  24
BRANCH  22  26
HETATM   26  O   UNL     1      44.684 -21.773   2.548  1.00  0.00    -0.354 OA
HETATM   27  C   UNL     1      44.013 -22.015   1.316  1.00  0.00     0.210 C 
ENDBRANCH  22  26
ENDBRANCH  14  17
ENDBRANCH  12  13
ENDBRANCH  11  12
ENDBRANCH   4  11
BRANCH   8  28
HETATM   28  C   UNL     1      41.674 -10.800  -0.998  1.00  0.00    -0.044 A 
HETATM   29  C   UNL     1      43.065 -10.989  -1.082  1.00  0.00     0.008 A 
HETATM   30  C   UNL     1      43.908  -9.937  -1.444  1.00  0.00     0.001 A 
HETATM   31  C   UNL     1      43.375  -8.680  -1.713  1.00  0.00     0.000 A 
HETATM   32  C   UNL     1      42.001  -8.472  -1.621  1.00  0.00     0.001 A 
HETATM   33  C   UNL     1      41.153  -9.523  -1.264  1.00  0.00     0.008 A 
ENDBRANCH   8  28
BRANCH   9  34
HETATM   34  C   UNL     1      39.618 -12.793  -2.776  1.00  0.00     0.255 C 
HETATM   35  N   UNL     1      38.330 -13.166  -2.474  1.00  0.00    -0.323 N 
HETATM   36  H   UNL     1      38.129 -13.458  -1.526  1.00  0.00     0.169 HD
HETATM   37  O   UNL     1      40.021 -12.375  -3.858  1.00  0.00    -0.268 OA
BRANCH  35  38
HETATM   38  C   UNL     1      37.226 -13.221  -3.352  1.00  0.00     0.035 A 
HETATM   39  C   UNL     1      36.862 -14.354  -4.082  1.00  0.00     0.029 A 
HETATM   40  C   UNL     1      35.739 -14.331  -4.915  1.00  0.00     0.002 A 
HETATM   41  C   UNL     1      34.965 -13.179  -5.018  1.00  0.00     0.000 A 
HETATM   42  C   UNL     1      35.319 -12.042  -4.295  1.00  0.00     0.002 A 
HETATM   43  C   UNL     1      36.448 -12.062  -3.473  1.00  0.00     0.029 A 
ENDBRANCH  35  38
ENDBRANCH   9  34
TORSDOF 9
ENDMDL
MODEL 6
REMARK VINA RESULT:      -8.6      4.525      8.726
REMARK  9 active torsions:
REMARK  status: ('A' for Active; 'I' for Inactive)
REMARK    1  A    between atoms: C_4  and  S_5 
REMARK    2  A    between atoms: S_5  and  C_6 
REMARK    3  A    between atoms: C_6  and  C_7 
REMARK       I    between atoms: C_7  and  N_8 
REMARK    4  A    between atoms: N_8  and  C_9 
REMARK    5  A    between atoms: C_10  and  O_11 
REMARK    6  A    between atoms: C_16  and  O_17 
REMARK    7  A    between atoms: C_24  and  C_25 
REMARK    8  A    between atoms: C_31  and  C_32 
REMARK       I    between atoms: C_32  and  N_33 
REMARK    9  A    between atoms: N_33  and  C_34 
ROOT
HETATM    1  C   UNL     1      41.098 -15.463  -2.938  1.00  0.00     0.069 C 
HETATM    2  C   UNL     1      41.092 -14.573  -1.722  1.00  0.00     0.019 C 
HETATM    3  N   UNL     1      41.752 -15.064  -0.605  1.00  0.00    -0.353 N 
HETATM    4  C   UNL     1      41.592 -14.561   0.675  1.00  0.00     0.087 C 
HETATM    5  C   UNL     1      41.011 -13.352   0.834  1.00  0.00     0.055 C 
HETATM    6  C   UNL     1      40.680 -12.765   2.197  1.00  0.00     0.019 C 
HETATM    7  N   UNL     1      40.404 -12.278   3.326  1.00  0.00    -0.096 N 
HETATM    8  C   UNL     1      40.593 -12.527  -0.379  1.00  0.00     0.104 C 
HETATM    9  C   UNL     1      40.491 -13.359  -1.658  1.00  0.00     0.046 C 
HETATM   10  H   UNL     1      42.144 -16.000  -0.657  1.00  0.00     0.166 HD
ENDROOT
BRANCH   4  11
HETATM   11  S   UNL     1      42.169 -15.464   2.047  1.00  0.00    -0.102 SA
BRANCH  11  12
HETATM   12  C   UNL     1      43.426 -16.534   1.254  1.00  0.00     0.184 C 
BRANCH  12  13
HETATM   13  C   UNL     1      43.170 -17.935   1.780  1.00  0.00     0.231 C 
HETATM   14  N   UNL     1      44.154 -18.362   2.652  1.00  0.00    -0.324 N 
HETATM   15  H   UNL     1      45.119 -18.090   2.491  1.00  0.00     0.169 HD
HETATM   16  O   UNL     1      42.129 -18.543   1.546  1.00  0.00    -0.272 OA
BRANCH  14  17
HETATM   17  C   UNL     1      43.911 -18.904   3.935  1.00  0.00     0.071 A 
HETATM   18  C   UNL     1      44.416 -20.187   4.202  1.00  0.00     0.096 A 
HETATM   19  C   UNL     1      44.355 -20.697   5.497  1.00  0.00     0.065 A 
HETATM   20  C   UNL     1      43.778 -19.936   6.519  1.00  0.00     0.070 A 
HETATM   21 CL   UNL     1      43.778 -20.604   8.116  1.00  0.00    -0.081 Cl
HETATM   22  C   UNL     1      43.242 -18.665   6.261  1.00  0.00     0.092 A 
HETATM   23  C   UNL     1      43.304 -18.164   4.957  1.00  0.00     0.071 A 
BRANCH  18  24
HETATM   24  O   UNL     1      45.011 -20.840   3.146  1.00  0.00    -0.354 OA
HETATM   25  C   UNL     1      44.412 -22.088   2.801  1.00  0.00     0.210 C 
ENDBRANCH  18  24
BRANCH  22  26
HETATM   26  O   UNL     1      42.717 -17.981   7.326  1.00  0.00    -0.354 OA
HETATM   27  C   UNL     1      43.431 -16.841   7.795  1.00  0.00     0.210 C 
ENDBRANCH  22  26
ENDBRANCH  14  17
ENDBRANCH  12  13
ENDBRANCH  11  12
ENDBRANCH   4  11
BRANCH   8  28
HETATM   28  C   UNL     1      41.548 -11.335  -0.530  1.00  0.00    -0.044 A 
HETATM   29  C   UNL     1      42.784 -11.466  -1.187  1.00  0.00     0.008 A 
HETATM   30  C   UNL     1      43.650 -10.378  -1.303  1.00  0.00     0.001 A 
HETATM   31  C   UNL     1      43.299  -9.149  -0.752  1.00  0.00     0.000 A 
HETATM   32  C   UNL     1      42.085  -9.006  -0.085  1.00  0.00     0.001 A 
HETATM   33  C   UNL     1      41.214 -10.091   0.029  1.00  0.00     0.008 A 
ENDBRANCH   8  28
BRANCH   9  34
HETATM   34  C   UNL     1      39.541 -12.916  -2.729  1.00  0.00     0.255 C 
HETATM   35  N   UNL     1      38.234 -13.288  -2.520  1.00  0.00    -0.323 N 
HETATM   36  H   UNL     1      38.000 -13.734  -1.642  1.00  0.00     0.169 HD
HETATM   37  O   UNL     1      39.984 -12.331  -3.713  1.00  0.00    -0.268 OA
BRANCH  35  38
HETATM   38  C   UNL     1      37.152 -13.150  -3.416  1.00  0.00     0.035 A 
HETATM   39  C   UNL     1      36.450 -11.961  -3.620  1.00  0.00     0.029 A 
HETATM   40  C   UNL     1      35.402 -11.905  -4.544  1.00  0.00     0.002 A 
HETATM   41  C   UNL     1      35.052 -13.034  -5.279  1.00  0.00     0.000 A 
HETATM   42  C   UNL     1      35.745 -14.226  -5.083  1.00  0.00     0.002 A 
HETATM   43  C   UNL     1      36.784 -14.285  -4.151  1.00  0.00     0.029 A 
ENDBRANCH  35  38
ENDBRANCH   9  34
TORSDOF 9
ENDMDL
MODEL 7
REMARK VINA RESULT:      -8.6      2.897      7.946
REMARK  9 active torsions:
REMARK  status: ('A' for Active; 'I' for Inactive)
REMARK    1  A    between atoms: C_4  and  S_5 
REMARK    2  A    between atoms: S_5  and  C_6 
REMARK    3  A    between atoms: C_6  and  C_7 
REMARK       I    between atoms: C_7  and  N_8 
REMARK    4  A    between atoms: N_8  and  C_9 
REMARK    5  A    between atoms: C_10  and  O_11 
REMARK    6  A    between atoms: C_16  and  O_17 
REMARK    7  A    between atoms: C_24  and  C_25 
REMARK    8  A    between atoms: C_31  and  C_32 
REMARK       I    between atoms: C_32  and  N_33 
REMARK    9  A    between atoms: N_33  and  C_34 
ROOT
HETATM    1  C   UNL     1      40.446 -15.661   5.440  1.00  0.00     0.069 C 
HETATM    2  C   UNL     1      40.537 -15.067   4.058  1.00  0.00     0.019 C 
HETATM    3  N   UNL     1      40.592 -15.974   3.008  1.00  0.00    -0.353 N 
HETATM    4  C   UNL     1      40.992 -15.651   1.723  1.00  0.00     0.087 C 
HETATM    5  C   UNL     1      41.049 -14.350   1.364  1.00  0.00     0.055 C 
HETATM    6  C   UNL     1      41.588 -13.884   0.022  1.00  0.00     0.019 C 
HETATM    7  N   UNL     1      42.036 -13.497  -1.091  1.00  0.00    -0.096 N 
HETATM    8  C   UNL     1      40.620 -13.257   2.339  1.00  0.00     0.104 C 
HETATM    9  C   UNL     1      40.574 -13.739   3.789  1.00  0.00     0.046 C 
HETATM   10  H   UNL     1      40.623 -16.964   3.236  1.00  0.00     0.166 HD
ENDROOT
BRANCH   4  11
HETATM   11  S   UNL     1      41.376 -16.911   0.585  1.00  0.00    -0.102 SA
BRANCH  11  12
HETATM   12  C   UNL     1      43.147 -17.189   0.960  1.00  0.00     0.184 C 
BRANCH  12  13
HETATM   13  C   UNL     1      43.185 -18.333   1.959  1.00  0.00     0.231 C 
HETATM   14  N   UNL     1      44.219 -18.209   2.867  1.00  0.00    -0.324 N 
HETATM   15  H   UNL     1      45.107 -17.820   2.566  1.00  0.00     0.169 HD
HETATM   16  O   UNL     1      42.302 -19.185   2.014  1.00  0.00    -0.272 OA
BRANCH  14  17
HETATM   17  C   UNL     1      44.072 -18.297   4.271  1.00  0.00     0.071 A 
HETATM   18  C   UNL     1      44.395 -19.521   4.880  1.00  0.00     0.096 A 
HETATM   19  C   UNL     1      44.432 -19.611   6.270  1.00  0.00     0.065 A 
HETATM   20  C   UNL     1      44.133 -18.488   7.048  1.00  0.00     0.070 A 
HETATM   21 CL   UNL     1      44.246 -18.651   8.768  1.00  0.00    -0.081 Cl
HETATM   22  C   UNL     1      43.779 -17.268   6.454  1.00  0.00     0.092 A 
HETATM   23  C   UNL     1      43.740 -17.189   5.059  1.00  0.00     0.071 A 
BRANCH  18  24
HETATM   24  O   UNL     1      44.724 -20.555   4.034  1.00  0.00    -0.354 OA
HETATM   25  C   UNL     1      44.864 -21.825   4.667  1.00  0.00     0.210 C 
ENDBRANCH  18  24
BRANCH  22  26
HETATM   26  O   UNL     1      43.525 -16.215   7.294  1.00  0.00    -0.354 OA
HETATM   27  C   UNL     1      44.146 -14.968   6.997  1.00  0.00     0.210 C 
ENDBRANCH  22  26
ENDBRANCH  14  17
ENDBRANCH  12  13
ENDBRANCH  11  12
ENDBRANCH   4  11
BRANCH   8  28
HETATM   28  C   UNL     1      39.284 -12.664   1.875  1.00  0.00    -0.044 A 
HETATM   29  C   UNL     1      38.939 -11.329   2.153  1.00  0.00     0.008 A 
HETATM   30  C   UNL     1      37.713 -10.807   1.740  1.00  0.00     0.001 A 
HETATM   31  C   UNL     1      36.809 -11.615   1.055  1.00  0.00     0.000 A 
HETATM   32  C   UNL     1      37.129 -12.943   0.784  1.00  0.00     0.001 A 
HETATM   33  C   UNL     1      38.357 -13.468   1.192  1.00  0.00     0.008 A 
ENDBRANCH   8  28
BRANCH   9  34
HETATM   34  C   UNL     1      40.799 -12.741   4.885  1.00  0.00     0.255 C 
HETATM   35  N   UNL     1      39.652 -12.313   5.510  1.00  0.00    -0.323 N 
HETATM   36  H   UNL     1      38.778 -12.760   5.261  1.00  0.00     0.169 HD
HETATM   37  O   UNL     1      41.939 -12.338   5.098  1.00  0.00    -0.268 OA
BRANCH  35  38
HETATM   38  C   UNL     1      39.531 -11.278   6.462  1.00  0.00     0.035 A 
HETATM   39  C   UNL     1      39.538  -9.918   6.146  1.00  0.00     0.029 A 
HETATM   40  C   UNL     1      39.391  -8.956   7.150  1.00  0.00     0.002 A 
HETATM   41  C   UNL     1      39.227  -9.344   8.477  1.00  0.00     0.000 A 
HETATM   42  C   UNL     1      39.219 -10.698   8.804  1.00  0.00     0.002 A 
HETATM   43  C   UNL     1      39.378 -11.658   7.802  1.00  0.00     0.029 A 
ENDBRANCH  35  38
ENDBRANCH   9  34
TORSDOF 9
ENDMDL
MODEL 8
REMARK VINA RESULT:      -8.5      4.902      7.283
REMARK  9 active torsions:
REMARK  status: ('A' for Active; 'I' for Inactive)
REMARK    1  A    between atoms: C_4  and  S_5 
REMARK    2  A    between atoms: S_5  and  C_6 
REMARK    3  A    between atoms: C_6  and  C_7 
REMARK       I    between atoms: C_7  and  N_8 
REMARK    4  A    between atoms: N_8  and  C_9 
REMARK    5  A    between atoms: C_10  and  O_11 
REMARK    6  A    between atoms: C_16  and  O_17 
REMARK    7  A    between atoms: C_24  and  C_25 
REMARK    8  A    between atoms: C_31  and  C_32 
REMARK       I    between atoms: C_32  and  N_33 
REMARK    9  A    between atoms: N_33  and  C_34 
ROOT
HETATM    1  C   UNL     1      43.780 -14.074   3.614  1.00  0.00     0.069 C 
HETATM    2  C   UNL     1      42.531 -14.136   2.774  1.00  0.00     0.019 C 
HETATM    3  N   UNL     1      41.625 -13.100   2.952  1.00  0.00    -0.353 N 
HETATM    4  C   UNL     1      40.308 -13.138   2.527  1.00  0.00     0.087 C 
HETATM    5  C   UNL     1      39.937 -14.079   1.634  1.00  0.00     0.055 C 
HETATM    6  C   UNL     1      38.496 -14.283   1.196  1.00  0.00     0.019 C 
HETATM    7  N   UNL     1      37.301 -14.453   0.833  1.00  0.00    -0.096 N 
HETATM    8  C   UNL     1      40.964 -15.047   1.055  1.00  0.00     0.104 C 
HETATM    9  C   UNL     1      42.247 -15.119   1.884  1.00  0.00     0.046 C 
HETATM   10  H   UNL     1      41.831 -12.406   3.666  1.00  0.00     0.166 HD
ENDROOT
BRANCH   4  11
HETATM   11  S   UNL     1      39.168 -11.960   3.115  1.00  0.00    -0.102 SA
BRANCH  11  12
HETATM   12  C   UNL     1      39.292 -10.678   1.813  1.00  0.00     0.184 C 
BRANCH  12  13
HETATM   13  C   UNL     1      37.936 -10.648   1.130  1.00  0.00     0.231 C 
HETATM   14  N   UNL     1      38.018 -10.264  -0.196  1.00  0.00    -0.324 N 
HETATM   15  H   UNL     1      38.699  -9.564  -0.473  1.00  0.00     0.169 HD
HETATM   16  O   UNL     1      36.916 -11.057   1.679  1.00  0.00    -0.272 OA
BRANCH  14  17
HETATM   17  C   UNL     1      37.444 -10.973  -1.276  1.00  0.00     0.071 A 
HETATM   18  C   UNL     1      36.301 -10.421  -1.878  1.00  0.00     0.096 A 
HETATM   19  C   UNL     1      35.797 -10.984  -3.048  1.00  0.00     0.065 A 
HETATM   20  C   UNL     1      36.422 -12.104  -3.606  1.00  0.00     0.070 A 
HETATM   21 CL   UNL     1      35.778 -12.727  -5.088  1.00  0.00    -0.081 Cl
HETATM   22  C   UNL     1      37.545 -12.685  -3.000  1.00  0.00     0.092 A 
HETATM   23  C   UNL     1      38.041 -12.115  -1.823  1.00  0.00     0.071 A 
BRANCH  18  24
HETATM   24  O   UNL     1      35.786  -9.290  -1.285  1.00  0.00    -0.354 OA
HETATM   25  C   UNL     1      35.712  -8.149  -2.138  1.00  0.00     0.210 C 
ENDBRANCH  18  24
BRANCH  22  26
HETATM   26  O   UNL     1      38.106 -13.766  -3.630  1.00  0.00    -0.354 OA
HETATM   27  C   UNL     1      37.600 -15.057  -3.303  1.00  0.00     0.210 C 
ENDBRANCH  22  26
ENDBRANCH  14  17
ENDBRANCH  12  13
ENDBRANCH  11  12
ENDBRANCH   4  11
BRANCH   8  28
HETATM   28  C   UNL     1      41.234 -14.678  -0.410  1.00  0.00    -0.044 A 
HETATM   29  C   UNL     1      41.718 -13.407  -0.767  1.00  0.00     0.008 A 
HETATM   30  C   UNL     1      41.943 -13.079  -2.105  1.00  0.00     0.001 A 
HETATM   31  C   UNL     1      41.675 -14.011  -3.104  1.00  0.00     0.000 A 
HETATM   32  C   UNL     1      41.182 -15.270  -2.768  1.00  0.00     0.001 A 
HETATM   33  C   UNL     1      40.960 -15.603  -1.430  1.00  0.00     0.008 A 
ENDBRANCH   8  28
BRANCH   9  34
HETATM   34  C   UNL     1      43.046 -16.387   1.861  1.00  0.00     0.255 C 
HETATM   35  N   UNL     1      42.597 -17.359   2.722  1.00  0.00    -0.323 N 
HETATM   36  H   UNL     1      41.732 -17.192   3.220  1.00  0.00     0.169 HD
HETATM   37  O   UNL     1      44.047 -16.446   1.152  1.00  0.00    -0.268 OA
BRANCH  35  38
HETATM   38  C   UNL     1      43.225 -18.586   3.030  1.00  0.00     0.035 A 
HETATM   39  C   UNL     1      43.339 -19.653   2.139  1.00  0.00     0.029 A 
HETATM   40  C   UNL     1      43.997 -20.827   2.518  1.00  0.00     0.002 A 
HETATM   41  C   UNL     1      44.556 -20.941   3.789  1.00  0.00     0.000 A 
HETATM   42  C   UNL     1      44.447 -19.882   4.687  1.00  0.00     0.002 A 
HETATM   43  C   UNL     1      43.779 -18.714   4.312  1.00  0.00     0.029 A 
ENDBRANCH  35  38
ENDBRANCH   9  34
TORSDOF 9
ENDMDL
MODEL 9
REMARK VINA RESULT:      -8.3      2.873      7.844
REMARK  9 active torsions:
REMARK  status: ('A' for Active; 'I' for Inactive)
REMARK    1  A    between atoms: C_4  and  S_5 
REMARK    2  A    between atoms: S_5  and  C_6 
REMARK    3  A    between atoms: C_6  and  C_7 
REMARK       I    between atoms: C_7  and  N_8 
REMARK    4  A    between atoms: N_8  and  C_9 
REMARK    5  A    between atoms: C_10  and  O_11 
REMARK    6  A    between atoms: C_16  and  O_17 
REMARK    7  A    between atoms: C_24  and  C_25 
REMARK    8  A    between atoms: C_31  and  C_32 
REMARK       I    between atoms: C_32  and  N_33 
REMARK    9  A    between atoms: N_33  and  C_34 
ROOT
HETATM    1  C   UNL     1      40.067 -14.811   5.615  1.00  0.00     0.069 C 
HETATM    2  C   UNL     1      40.249 -14.188   4.255  1.00  0.00     0.019 C 
HETATM    3  N   UNL     1      40.722 -15.030   3.258  1.00  0.00    -0.353 N 
HETATM    4  C   UNL     1      41.250 -14.591   2.056  1.00  0.00     0.087 C 
HETATM    5  C   UNL     1      41.035 -13.313   1.676  1.00  0.00     0.055 C 
HETATM    6  C   UNL     1      41.669 -12.699   0.438  1.00  0.00     0.019 C 
HETATM    7  N   UNL     1      42.195 -12.190  -0.587  1.00  0.00    -0.096 N 
HETATM    8  C   UNL     1      40.173 -12.385   2.527  1.00  0.00     0.104 C 
HETATM    9  C   UNL     1      39.992 -12.890   3.959  1.00  0.00     0.046 C 
HETATM   10  H   UNL     1      40.964 -15.983   3.516  1.00  0.00     0.166 HD
ENDROOT
BRANCH   4  11
HETATM   11  S   UNL     1      42.142 -15.689   1.041  1.00  0.00    -0.102 SA
BRANCH  11  12
HETATM   12  C   UNL     1      41.360 -17.284   1.484  1.00  0.00     0.184 C 
BRANCH  12  13
HETATM   13  C   UNL     1      42.469 -18.143   2.065  1.00  0.00     0.231 C 
HETATM   14  N   UNL     1      43.330 -17.424   2.873  1.00  0.00    -0.324 N 
HETATM   15  H   UNL     1      43.556 -16.463   2.634  1.00  0.00     0.169 HD
HETATM   16  O   UNL     1      42.496 -19.363   1.926  1.00  0.00    -0.272 OA
BRANCH  14  17
HETATM   17  C   UNL     1      43.703 -17.797   4.185  1.00  0.00     0.071 A 
HETATM   18  C   UNL     1      43.691 -16.796   5.170  1.00  0.00     0.096 A 
HETATM   19  C   UNL     1      43.882 -17.141   6.507  1.00  0.00     0.065 A 
HETATM   20  C   UNL     1      44.101 -18.477   6.856  1.00  0.00     0.070 A 
HETATM   21 CL   UNL     1      44.282 -18.848   8.537  1.00  0.00    -0.081 Cl
HETATM   22  C   UNL     1      44.146 -19.483   5.879  1.00  0.00     0.092 A 
HETATM   23  C   UNL     1      43.957 -19.126   4.541  1.00  0.00     0.071 A 
BRANCH  18  24
HETATM   24  O   UNL     1      43.417 -15.518   4.738  1.00  0.00    -0.354 OA
HETATM   25  C   UNL     1      43.749 -14.488   5.668  1.00  0.00     0.210 C 
ENDBRANCH  18  24
BRANCH  22  26
HETATM   26  O   UNL     1      44.342 -20.768   6.315  1.00  0.00    -0.354 OA
HETATM   27  C   UNL     1      44.720 -21.743   5.348  1.00  0.00     0.210 C 
ENDBRANCH  22  26
ENDBRANCH  14  17
ENDBRANCH  12  13
ENDBRANCH  11  12
ENDBRANCH   4  11
BRANCH   8  28
HETATM   28  C   UNL     1      38.835 -12.148   1.816  1.00  0.00    -0.044 A 
HETATM   29  C   UNL     1      38.201 -10.893   1.849  1.00  0.00     0.008 A 
HETATM   30  C   UNL     1      36.976 -10.695   1.212  1.00  0.00     0.001 A 
HETATM   31  C   UNL     1      36.361 -11.750   0.544  1.00  0.00     0.000 A 
HETATM   32  C   UNL     1      36.968 -13.002   0.513  1.00  0.00     0.001 A 
HETATM   33  C   UNL     1      38.197 -13.204   1.146  1.00  0.00     0.008 A 
ENDBRANCH   8  28
BRANCH   9  34
HETATM   34  C   UNL     1      39.753 -11.888   5.048  1.00  0.00     0.255 C 
HETATM   35  N   UNL     1      40.891 -11.277   5.519  1.00  0.00    -0.323 N 
HETATM   36  H   UNL     1      41.765 -11.469   5.046  1.00  0.00     0.169 HD
HETATM   37  O   UNL     1      38.613 -11.735   5.476  1.00  0.00    -0.268 OA
BRANCH  35  38
HETATM   38  C   UNL     1      41.001 -10.414   6.631  1.00  0.00     0.035 A 
HETATM   39  C   UNL     1      40.999  -9.021   6.544  1.00  0.00     0.029 A 
HETATM   40  C   UNL     1      41.091  -8.238   7.699  1.00  0.00     0.002 A 
HETATM   41  C   UNL     1      41.175  -8.840   8.952  1.00  0.00     0.000 A 
HETATM   42  C   UNL     1      41.179 -10.230   9.050  1.00  0.00     0.002 A 
HETATM   43  C   UNL     1      41.100 -11.011   7.895  1.00  0.00     0.029 A 
ENDBRANCH  35  38
ENDBRANCH   9  34
TORSDOF 9
ENDMDL
MODEL 10
REMARK VINA RESULT:      -8.1      3.569      6.938
REMARK  9 active torsions:
REMARK  status: ('A' for Active; 'I' for Inactive)
REMARK    1  A    between atoms: C_4  and  S_5 
REMARK    2  A    between atoms: S_5  and  C_6 
REMARK    3  A    between atoms: C_6  and  C_7 
REMARK       I    between atoms: C_7  and  N_8 
REMARK    4  A    between atoms: N_8  and  C_9 
REMARK    5  A    between atoms: C_10  and  O_11 
REMARK    6  A    between atoms: C_16  and  O_17 
REMARK    7  A    between atoms: C_24  and  C_25 
REMARK    8  A    between atoms: C_31  and  C_32 
REMARK       I    between atoms: C_32  and  N_33 
REMARK    9  A    between atoms: N_33  and  C_34 
ROOT
HETATM    1  C   UNL     1      38.535 -14.796   1.569  1.00  0.00     0.069 C 
HETATM    2  C   UNL     1      39.840 -14.876   2.318  1.00  0.00     0.019 C 
HETATM    3  N   UNL     1      39.756 -14.769   3.700  1.00  0.00    -0.353 N 
HETATM    4  C   UNL     1      40.834 -14.501   4.525  1.00  0.00     0.087 C 
HETATM    5  C   UNL     1      42.084 -14.641   4.033  1.00  0.00     0.055 C 
HETATM    6  C   UNL     1      43.330 -14.258   4.815  1.00  0.00     0.019 C 
HETATM    7  N   UNL     1      44.363 -13.939   5.463  1.00  0.00    -0.096 N 
HETATM    8  C   UNL     1      42.306 -15.147   2.611  1.00  0.00     0.104 C 
HETATM    9  C   UNL     1      41.055 -15.034   1.739  1.00  0.00     0.046 C 
HETATM   10  H   UNL     1      38.842 -14.591   4.108  1.00  0.00     0.166 HD
ENDROOT
BRANCH   4  11
HETATM   11  S   UNL     1      40.571 -14.027   6.179  1.00  0.00    -0.102 SA
BRANCH  11  12
HETATM   12  C   UNL     1      40.683 -12.205   6.041  1.00  0.00     0.184 C 
BRANCH  12  13
HETATM   13  C   UNL     1      39.334 -11.744   5.516  1.00  0.00     0.231 C 
HETATM   14  N   UNL     1      39.409 -10.537   4.847  1.00  0.00    -0.324 N 
HETATM   15  H   UNL     1      40.055  -9.824   5.170  1.00  0.00     0.169 HD
HETATM   16  O   UNL     1      38.332 -12.451   5.576  1.00  0.00    -0.272 OA
BRANCH  14  17
HETATM   17  C   UNL     1      38.883 -10.299   3.556  1.00  0.00     0.071 A 
HETATM   18  C   UNL     1      37.708  -9.535   3.467  1.00  0.00     0.096 A 
HETATM   19  C   UNL     1      37.242  -9.128   2.219  1.00  0.00     0.065 A 
HETATM   20  C   UNL     1      37.939  -9.496   1.062  1.00  0.00     0.070 A 
HETATM   21 CL   UNL     1      37.338  -8.916  -0.454  1.00  0.00    -0.081 Cl
HETATM   22  C   UNL     1      39.096 -10.284   1.134  1.00  0.00     0.092 A 
HETATM   23  C   UNL     1      39.553 -10.692   2.391  1.00  0.00     0.071 A 
BRANCH  18  24
HETATM   24  O   UNL     1      37.121  -9.179   4.660  1.00  0.00    -0.354 OA
HETATM   25  C   UNL     1      35.935  -8.396   4.533  1.00  0.00     0.210 C 
ENDBRANCH  18  24
BRANCH  22  26
HETATM   26  O   UNL     1      39.726 -10.577  -0.048  1.00  0.00    -0.354 OA
HETATM   27  C   UNL     1      40.720  -9.667  -0.510  1.00  0.00     0.210 C 
ENDBRANCH  22  26
ENDBRANCH  14  17
ENDBRANCH  12  13
ENDBRANCH  11  12
ENDBRANCH   4  11
BRANCH   8  28
HETATM   28  C   UNL     1      42.855 -16.578   2.665  1.00  0.00    -0.044 A 
HETATM   29  C   UNL     1      43.754 -17.055   1.694  1.00  0.00     0.008 A 
HETATM   30  C   UNL     1      44.233 -18.364   1.746  1.00  0.00     0.001 A 
HETATM   31  C   UNL     1      43.811 -19.219   2.760  1.00  0.00     0.000 A 
HETATM   32  C   UNL     1      42.911 -18.767   3.722  1.00  0.00     0.001 A 
HETATM   33  C   UNL     1      42.433 -17.457   3.676  1.00  0.00     0.008 A 
ENDBRANCH   8  28
BRANCH   9  34
HETATM   34  C   UNL     1      41.225 -14.873   0.258  1.00  0.00     0.255 C 
HETATM   35  N   UNL     1      41.323 -13.569  -0.165  1.00  0.00    -0.323 N 
HETATM   36  H   UNL     1      41.371 -12.842   0.537  1.00  0.00     0.169 HD
HETATM   37  O   UNL     1      41.200 -15.872  -0.456  1.00  0.00    -0.268 OA
BRANCH  35  38
HETATM   38  C   UNL     1      41.337 -13.100  -1.497  1.00  0.00     0.035 A 
HETATM   39  C   UNL     1      40.230 -13.121  -2.346  1.00  0.00     0.029 A 
HETATM   40  C   UNL     1      40.323 -12.616  -3.647  1.00  0.00     0.002 A 
HETATM   41  C   UNL     1      41.521 -12.077  -4.107  1.00  0.00     0.000 A 
HETATM   42  C   UNL     1      42.633 -12.052  -3.269  1.00  0.00     0.002 A 
HETATM   43  C   UNL     1      42.543 -12.568  -1.974  1.00  0.00     0.029 A 
ENDBRANCH  35  38
ENDBRANCH   9  34
TORSDOF 9
ENDMDL
