MODEL 1
REMARK VINA RESULT:      -9.4      0.000      0.000
REMARK  7 active torsions:
REMARK  status: ('A' for Active; 'I' for Inactive)
REMARK    1  A    between atoms: O_2  and  C_3 
REMARK    2  A    between atoms: C_6  and  C_7 
REMARK    3  A    between atoms: C_11  and  C_12 
REMARK       I    between atoms: C_12  and  N_13 
REMARK    4  A    between atoms: N_13  and  N_14 
REMARK       I    between atoms: N_14  and  C_15 
REMARK    5  A    between atoms: C_15  and  C_16 
REMARK    6  A    between atoms: C_16  and  C_17 
REMARK    7  A    between atoms: C_17  and  C_18 
ROOT
HETATM    1  C   UNL     1      45.118 -13.267   7.933  1.00  0.00     0.288 C 
HETATM    2  N   UNL     1      44.180 -14.251   7.702  1.00  0.00    -0.262 N 
HETATM    3  O   UNL     1      46.099 -13.124   7.205  1.00  0.00    -0.264 OA
HETATM    4  H   UNL     1      43.381 -14.433   8.304  1.00  0.00     0.190 HD
ENDROOT
BRANCH   1   5
HETATM    5  C   UNL     1      44.861 -12.422   9.063  1.00  0.00     0.121 A 
HETATM    6  N   UNL     1      45.665 -11.359   9.368  1.00  0.00    -0.272 N 
HETATM    7  N   UNL     1      45.275 -10.668  10.448  1.00  0.00    -0.174 NA
HETATM    8  H   UNL     1      46.497 -11.060   8.868  1.00  0.00     0.189 HD
HETATM    9  C   UNL     1      44.149 -11.274  10.853  1.00  0.00     0.089 A 
HETATM   10  C   UNL     1      43.868 -12.396  10.022  1.00  0.00     0.071 A 
BRANCH   9  11
HETATM   11  C   UNL     1      43.375 -10.790  11.998  1.00  0.00    -0.005 A 
HETATM   12  C   UNL     1      43.855  -9.752  12.807  1.00  0.00     0.016 A 
HETATM   13  C   UNL     1      43.102  -9.290  13.890  1.00  0.00     0.037 A 
HETATM   14  C   UNL     1      41.855  -9.845  14.180  1.00  0.00     0.068 A 
HETATM   15  C   UNL     1      41.378 -10.893  13.395  1.00  0.00     0.037 A 
HETATM   16  C   UNL     1      42.134 -11.362  12.312  1.00  0.00     0.016 A 
BRANCH  14  17
HETATM   17  O   UNL     1      41.217  -9.291  15.255  1.00  0.00    -0.356 OA
HETATM   18  C   UNL     1      42.040  -8.889  16.342  1.00  0.00     0.210 C 
ENDBRANCH  14  17
ENDBRANCH   9  11
ENDBRANCH   1   5
BRANCH   2  19
HETATM   19  N   UNL     1      44.316 -15.066   6.575  1.00  0.00    -0.267 N 
HETATM   20  C   UNL     1      43.931 -16.384   6.678  1.00  0.00     0.236 C 
HETATM   21  O   UNL     1      43.561 -16.878   7.742  1.00  0.00    -0.272 OA
HETATM   22  H   UNL     1      44.501 -14.589   5.694  1.00  0.00     0.190 HD
BRANCH  20  23
HETATM   23  C   UNL     1      43.908 -17.154   5.374  1.00  0.00     0.109 C 
BRANCH  23  24
HETATM   24  C   UNL     1      44.607 -18.510   5.460  1.00  0.00     0.048 C 
BRANCH  24  25
HETATM   25  C   UNL     1      44.359 -19.455   4.304  1.00  0.00    -0.055 A 
HETATM   26  C   UNL     1      44.713 -20.805   4.455  1.00  0.00     0.049 A 
HETATM   27  C   UNL     1      44.543 -21.701   3.404  1.00  0.00     0.116 A 
HETATM   28  F   UNL     1      44.887 -22.985   3.569  1.00  0.00    -0.206 F 
HETATM   29  C   UNL     1      44.031 -21.283   2.183  1.00  0.00     0.042 A 
HETATM   30  C   UNL     1      43.688 -19.945   2.011  1.00  0.00     0.003 A 
HETATM   31  C   UNL     1      43.856 -19.036   3.063  1.00  0.00     0.007 A 
ENDBRANCH  24  25
ENDBRANCH  23  24
ENDBRANCH  20  23
ENDBRANCH   2  19
TORSDOF 7
ENDMDL
MODEL 2
REMARK VINA RESULT:      -9.4      3.664     11.581
REMARK  7 active torsions:
REMARK  status: ('A' for Active; 'I' for Inactive)
REMARK    1  A    between atoms: O_2  and  C_3 
REMARK    2  A    between atoms: C_6  and  C_7 
REMARK    3  A    between atoms: C_11  and  C_12 
REMARK       I    between atoms: C_12  and  N_13 
REMARK    4  A    between atoms: N_13  and  N_14 
REMARK       I    between atoms: N_14  and  C_15 
REMARK    5  A    between atoms: C_15  and  C_16 
REMARK    6  A    between atoms: C_16  and  C_17 
REMARK    7  A    between atoms: C_17  and  C_18 
ROOT
HETATM    1  C   UNL     1      42.663 -13.273   6.066  1.00  0.00     0.288 C 
HETATM    2  N   UNL     1      43.441 -13.219   7.203  1.00  0.00    -0.262 N 
HETATM    3  O   UNL     1      41.808 -12.422   5.825  1.00  0.00    -0.264 OA
HETATM    4  H   UNL     1      44.125 -13.926   7.463  1.00  0.00     0.190 HD
ENDROOT
BRANCH   1   5
HETATM    5  C   UNL     1      42.930 -14.375   5.187  1.00  0.00     0.121 A 
HETATM    6  N   UNL     1      43.065 -14.207   3.837  1.00  0.00    -0.272 N 
HETATM    7  N   UNL     1      43.324 -15.338   3.166  1.00  0.00    -0.174 NA
HETATM    8  H   UNL     1      42.989 -13.336   3.321  1.00  0.00     0.189 HD
HETATM    9  C   UNL     1      43.400 -16.286   4.112  1.00  0.00     0.089 A 
HETATM   10  C   UNL     1      43.134 -15.725   5.394  1.00  0.00     0.071 A 
BRANCH   9  11
HETATM   11  C   UNL     1      43.716 -17.679   3.790  1.00  0.00    -0.005 A 
HETATM   12  C   UNL     1      43.546 -18.177   2.492  1.00  0.00     0.016 A 
HETATM   13  C   UNL     1      43.862 -19.506   2.195  1.00  0.00     0.037 A 
HETATM   14  C   UNL     1      44.362 -20.357   3.180  1.00  0.00     0.068 A 
HETATM   15  C   UNL     1      44.515 -19.879   4.480  1.00  0.00     0.037 A 
HETATM   16  C   UNL     1      44.192 -18.549   4.782  1.00  0.00     0.016 A 
BRANCH  14  17
HETATM   17  O   UNL     1      44.645 -21.625   2.753  1.00  0.00    -0.356 OA
HETATM   18  C   UNL     1      44.087 -22.012   1.503  1.00  0.00     0.210 C 
ENDBRANCH  14  17
ENDBRANCH   9  11
ENDBRANCH   1   5
BRANCH   2  19
HETATM   19  N   UNL     1      43.298 -12.134   8.072  1.00  0.00    -0.267 N 
HETATM   20  C   UNL     1      44.210 -11.996   9.094  1.00  0.00     0.236 C 
HETATM   21  O   UNL     1      45.081 -12.837   9.313  1.00  0.00    -0.272 OA
HETATM   22  H   UNL     1      42.650 -11.404   7.777  1.00  0.00     0.190 HD
BRANCH  20  23
HETATM   23  C   UNL     1      44.124 -10.697   9.866  1.00  0.00     0.109 C 
BRANCH  23  24
HETATM   24  C   UNL     1      44.538 -10.835  11.330  1.00  0.00     0.048 C 
BRANCH  24  25
HETATM   25  C   UNL     1      43.449 -10.584  12.351  1.00  0.00    -0.055 A 
HETATM   26  C   UNL     1      42.277 -11.354  12.283  1.00  0.00     0.049 A 
HETATM   27  C   UNL     1      41.232 -11.128  13.174  1.00  0.00     0.116 A 
HETATM   28  F   UNL     1      40.123 -11.875  13.092  1.00  0.00    -0.206 F 
HETATM   29  C   UNL     1      41.317 -10.134  14.139  1.00  0.00     0.042 A 
HETATM   30  C   UNL     1      42.465  -9.351  14.211  1.00  0.00     0.003 A 
HETATM   31  C   UNL     1      43.522  -9.571  13.319  1.00  0.00     0.007 A 
ENDBRANCH  24  25
ENDBRANCH  23  24
ENDBRANCH  20  23
ENDBRANCH   2  19
TORSDOF 7
ENDMDL
MODEL 3
REMARK VINA RESULT:      -8.8      2.210      2.570
REMARK  7 active torsions:
REMARK  status: ('A' for Active; 'I' for Inactive)
REMARK    1  A    between atoms: O_2  and  C_3 
REMARK    2  A    between atoms: C_6  and  C_7 
REMARK    3  A    between atoms: C_11  and  C_12 
REMARK       I    between atoms: C_12  and  N_13 
REMARK    4  A    between atoms: N_13  and  N_14 
REMARK       I    between atoms: N_14  and  C_15 
REMARK    5  A    between atoms: C_15  and  C_16 
REMARK    6  A    between atoms: C_16  and  C_17 
REMARK    7  A    between atoms: C_17  and  C_18 
ROOT
HETATM    1  C   UNL     1      45.056 -13.498   7.591  1.00  0.00     0.288 C 
HETATM    2  N   UNL     1      44.116 -14.504   7.668  1.00  0.00    -0.262 N 
HETATM    3  O   UNL     1      45.943 -13.504   6.739  1.00  0.00    -0.264 OA
HETATM    4  H   UNL     1      43.395 -14.561   8.384  1.00  0.00     0.190 HD
ENDROOT
BRANCH   1   5
HETATM    5  C   UNL     1      44.917 -12.448   8.559  1.00  0.00     0.121 A 
HETATM    6  N   UNL     1      45.918 -11.548   8.797  1.00  0.00    -0.272 N 
HETATM    7  N   UNL     1      45.619 -10.625   9.722  1.00  0.00    -0.174 NA
HETATM    8  H   UNL     1      46.831 -11.519   8.353  1.00  0.00     0.189 HD
HETATM    9  C   UNL     1      44.357 -10.903  10.084  1.00  0.00     0.089 A 
HETATM   10  C   UNL     1      43.889 -12.056   9.392  1.00  0.00     0.071 A 
BRANCH   9  11
HETATM   11  C   UNL     1      43.633 -10.086  11.061  1.00  0.00    -0.005 A 
HETATM   12  C   UNL     1      42.615  -9.212  10.658  1.00  0.00     0.016 A 
HETATM   13  C   UNL     1      41.923  -8.447  11.601  1.00  0.00     0.037 A 
HETATM   14  C   UNL     1      42.225  -8.546  12.960  1.00  0.00     0.068 A 
HETATM   15  C   UNL     1      43.250  -9.397  13.369  1.00  0.00     0.037 A 
HETATM   16  C   UNL     1      43.949 -10.160  12.425  1.00  0.00     0.016 A 
BRANCH  14  17
HETATM   17  O   UNL     1      41.463  -7.756  13.775  1.00  0.00    -0.356 OA
HETATM   18  C   UNL     1      40.259  -8.330  14.269  1.00  0.00     0.210 C 
ENDBRANCH  14  17
ENDBRANCH   9  11
ENDBRANCH   1   5
BRANCH   2  19
HETATM   19  N   UNL     1      44.134 -15.523   6.712  1.00  0.00    -0.267 N 
HETATM   20  C   UNL     1      43.646 -16.759   7.073  1.00  0.00     0.236 C 
HETATM   21  O   UNL     1      43.282 -17.011   8.221  1.00  0.00    -0.272 OA
HETATM   22  H   UNL     1      44.320 -15.236   5.752  1.00  0.00     0.190 HD
BRANCH  20  23
HETATM   23  C   UNL     1      43.502 -17.752   5.940  1.00  0.00     0.109 C 
BRANCH  23  24
HETATM   24  C   UNL     1      42.171 -17.635   5.198  1.00  0.00     0.048 C 
BRANCH  24  25
HETATM   25  C   UNL     1      42.264 -17.462   3.697  1.00  0.00    -0.055 A 
HETATM   26  C   UNL     1      43.536 -17.456   3.101  1.00  0.00     0.049 A 
HETATM   27  C   UNL     1      43.671 -17.256   1.731  1.00  0.00     0.116 A 
HETATM   28  F   UNL     1      44.893 -17.255   1.182  1.00  0.00    -0.206 F 
HETATM   29  C   UNL     1      42.560 -17.048   0.925  1.00  0.00     0.042 A 
HETATM   30  C   UNL     1      41.293 -17.037   1.501  1.00  0.00     0.003 A 
HETATM   31  C   UNL     1      41.147 -17.236   2.880  1.00  0.00     0.007 A 
ENDBRANCH  24  25
ENDBRANCH  23  24
ENDBRANCH  20  23
ENDBRANCH   2  19
TORSDOF 7
ENDMDL
MODEL 4
REMARK VINA RESULT:      -8.4      4.247     11.446
REMARK  7 active torsions:
REMARK  status: ('A' for Active; 'I' for Inactive)
REMARK    1  A    between atoms: O_2  and  C_3 
REMARK    2  A    between atoms: C_6  and  C_7 
REMARK    3  A    between atoms: C_11  and  C_12 
REMARK       I    between atoms: C_12  and  N_13 
REMARK    4  A    between atoms: N_13  and  N_14 
REMARK       I    between atoms: N_14  and  C_15 
REMARK    5  A    between atoms: C_15  and  C_16 
REMARK    6  A    between atoms: C_16  and  C_17 
REMARK    7  A    between atoms: C_17  and  C_18 
ROOT
HETATM    1  C   UNL     1      42.780 -13.329   6.309  1.00  0.00     0.288 C 
HETATM    2  N   UNL     1      41.558 -12.693   6.352  1.00  0.00    -0.262 N 
HETATM    3  O   UNL     1      43.729 -12.958   6.999  1.00  0.00    -0.264 OA
HETATM    4  H   UNL     1      40.764 -12.938   5.766  1.00  0.00     0.190 HD
ENDROOT
BRANCH   1   5
HETATM    5  C   UNL     1      42.862 -14.450   5.418  1.00  0.00     0.121 A 
HETATM    6  N   UNL     1      42.434 -14.376   4.121  1.00  0.00    -0.272 N 
HETATM    7  N   UNL     1      42.594 -15.510   3.425  1.00  0.00    -0.174 NA
HETATM    8  H   UNL     1      42.022 -13.571   3.660  1.00  0.00     0.189 HD
HETATM    9  C   UNL     1      43.184 -16.357   4.283  1.00  0.00     0.089 A 
HETATM   10  C   UNL     1      43.348 -15.735   5.553  1.00  0.00     0.071 A 
BRANCH   9  11
HETATM   11  C   UNL     1      43.574 -17.713   3.890  1.00  0.00    -0.005 A 
HETATM   12  C   UNL     1      43.306 -18.196   2.603  1.00  0.00     0.016 A 
HETATM   13  C   UNL     1      43.694 -19.489   2.236  1.00  0.00     0.037 A 
HETATM   14  C   UNL     1      44.362 -20.316   3.139  1.00  0.00     0.068 A 
HETATM   15  C   UNL     1      44.614 -19.853   4.429  1.00  0.00     0.037 A 
HETATM   16  C   UNL     1      44.221 -18.560   4.801  1.00  0.00     0.016 A 
BRANCH  14  17
HETATM   17  O   UNL     1      44.698 -21.547   2.648  1.00  0.00    -0.356 OA
HETATM   18  C   UNL     1      44.043 -21.953   1.453  1.00  0.00     0.210 C 
ENDBRANCH  14  17
ENDBRANCH   9  11
ENDBRANCH   1   5
BRANCH   2  19
HETATM   19  N   UNL     1      41.373 -11.640   7.253  1.00  0.00    -0.267 N 
HETATM   20  C   UNL     1      40.110 -11.437   7.763  1.00  0.00     0.236 C 
HETATM   21  O   UNL     1      39.138 -12.091   7.387  1.00  0.00    -0.272 OA
HETATM   22  H   UNL     1      42.220 -11.216   7.628  1.00  0.00     0.190 HD
BRANCH  20  23
HETATM   23  C   UNL     1      40.021 -10.422   8.882  1.00  0.00     0.109 C 
BRANCH  23  24
HETATM   24  C   UNL     1      40.127 -11.044  10.274  1.00  0.00     0.048 C 
BRANCH  24  25
HETATM   25  C   UNL     1      41.404 -10.752  11.033  1.00  0.00    -0.055 A 
HETATM   26  C   UNL     1      41.393 -10.869  12.432  1.00  0.00     0.049 A 
HETATM   27  C   UNL     1      42.531 -10.568  13.173  1.00  0.00     0.116 A 
HETATM   28  F   UNL     1      42.500 -10.687  14.507  1.00  0.00    -0.206 F 
HETATM   29  C   UNL     1      43.696 -10.137  12.553  1.00  0.00     0.042 A 
HETATM   30  C   UNL     1      43.720 -10.002  11.168  1.00  0.00     0.003 A 
HETATM   31  C   UNL     1      42.579 -10.301  10.413  1.00  0.00     0.007 A 
ENDBRANCH  24  25
ENDBRANCH  23  24
ENDBRANCH  20  23
ENDBRANCH   2  19
TORSDOF 7
ENDMDL
MODEL 5
REMARK VINA RESULT:      -8.4      4.687     11.552
REMARK  7 active torsions:
REMARK  status: ('A' for Active; 'I' for Inactive)
REMARK    1  A    between atoms: O_2  and  C_3 
REMARK    2  A    between atoms: C_6  and  C_7 
REMARK    3  A    between atoms: C_11  and  C_12 
REMARK       I    between atoms: C_12  and  N_13 
REMARK    4  A    between atoms: N_13  and  N_14 
REMARK       I    between atoms: N_14  and  C_15 
REMARK    5  A    between atoms: C_15  and  C_16 
REMARK    6  A    between atoms: C_16  and  C_17 
REMARK    7  A    between atoms: C_17  and  C_18 
ROOT
HETATM    1  C   UNL     1      39.654 -13.651   5.297  1.00  0.00     0.288 C 
HETATM    2  N   UNL     1      39.888 -13.686   6.655  1.00  0.00    -0.262 N 
HETATM    3  O   UNL     1      39.025 -12.733   4.771  1.00  0.00    -0.264 OA
HETATM    4  H   UNL     1      40.363 -14.446   7.135  1.00  0.00     0.190 HD
ENDROOT
BRANCH   1   5
HETATM    5  C   UNL     1      40.203 -14.744   4.547  1.00  0.00     0.121 A 
HETATM    6  N   UNL     1      39.760 -15.053   3.291  1.00  0.00    -0.272 N 
HETATM    7  N   UNL     1      40.388 -16.095   2.729  1.00  0.00    -0.174 NA
HETATM    8  H   UNL     1      39.026 -14.583   2.770  1.00  0.00     0.189 HD
HETATM    9  C   UNL     1      41.308 -16.466   3.632  1.00  0.00     0.089 A 
HETATM   10  C   UNL     1      41.207 -15.656   4.799  1.00  0.00     0.071 A 
BRANCH   9  11
HETATM   11  C   UNL     1      42.247 -17.562   3.378  1.00  0.00    -0.005 A 
HETATM   12  C   UNL     1      42.981 -18.139   4.421  1.00  0.00     0.016 A 
HETATM   13  C   UNL     1      43.866 -19.193   4.167  1.00  0.00     0.037 A 
HETATM   14  C   UNL     1      44.025 -19.694   2.875  1.00  0.00     0.068 A 
HETATM   15  C   UNL     1      43.315 -19.112   1.827  1.00  0.00     0.037 A 
HETATM   16  C   UNL     1      42.433 -18.052   2.078  1.00  0.00     0.016 A 
BRANCH  14  17
HETATM   17  O   UNL     1      44.907 -20.733   2.769  1.00  0.00    -0.356 OA
HETATM   18  C   UNL     1      44.429 -21.907   2.123  1.00  0.00     0.210 C 
ENDBRANCH  14  17
ENDBRANCH   9  11
ENDBRANCH   1   5
BRANCH   2  19
HETATM   19  N   UNL     1      39.455 -12.617   7.446  1.00  0.00    -0.267 N 
HETATM   20  C   UNL     1      40.275 -11.517   7.555  1.00  0.00     0.236 C 
HETATM   21  O   UNL     1      41.399 -11.484   7.055  1.00  0.00    -0.272 OA
HETATM   22  H   UNL     1      38.477 -12.636   7.729  1.00  0.00     0.190 HD
BRANCH  20  23
HETATM   23  C   UNL     1      39.661 -10.321   8.250  1.00  0.00     0.109 C 
BRANCH  23  24
HETATM   24  C   UNL     1      40.680  -9.476   9.015  1.00  0.00     0.048 C 
BRANCH  24  25
HETATM   25  C   UNL     1      41.356 -10.157  10.185  1.00  0.00    -0.055 A 
HETATM   26  C   UNL     1      40.551 -10.740  11.177  1.00  0.00     0.049 A 
HETATM   27  C   UNL     1      41.129 -11.338  12.293  1.00  0.00     0.116 A 
HETATM   28  F   UNL     1      40.342 -11.889  13.227  1.00  0.00    -0.206 F 
HETATM   29  C   UNL     1      42.507 -11.364  12.458  1.00  0.00     0.042 A 
HETATM   30  C   UNL     1      43.319 -10.778  11.491  1.00  0.00     0.003 A 
HETATM   31  C   UNL     1      42.747 -10.173  10.365  1.00  0.00     0.007 A 
ENDBRANCH  24  25
ENDBRANCH  23  24
ENDBRANCH  20  23
ENDBRANCH   2  19
TORSDOF 7
ENDMDL
MODEL 6
REMARK VINA RESULT:      -8.3      9.389     13.099
REMARK  7 active torsions:
REMARK  status: ('A' for Active; 'I' for Inactive)
REMARK    1  A    between atoms: O_2  and  C_3 
REMARK    2  A    between atoms: C_6  and  C_7 
REMARK    3  A    between atoms: C_11  and  C_12 
REMARK       I    between atoms: C_12  and  N_13 
REMARK    4  A    between atoms: N_13  and  N_14 
REMARK       I    between atoms: N_14  and  C_15 
REMARK    5  A    between atoms: C_15  and  C_16 
REMARK    6  A    between atoms: C_16  and  C_17 
REMARK    7  A    between atoms: C_17  and  C_18 
ROOT
HETATM    1  C   UNL     1      41.048 -14.203  -1.085  1.00  0.00     0.288 C 
HETATM    2  N   UNL     1      41.030 -15.281  -0.226  1.00  0.00    -0.262 N 
HETATM    3  O   UNL     1      42.097 -13.647  -1.406  1.00  0.00    -0.264 OA
HETATM    4  H   UNL     1      40.183 -15.740   0.100  1.00  0.00     0.190 HD
ENDROOT
BRANCH   1   5
HETATM    5  C   UNL     1      39.767 -13.790  -1.584  1.00  0.00     0.121 A 
HETATM    6  N   UNL     1      38.916 -13.022  -0.840  1.00  0.00    -0.272 N 
HETATM    7  N   UNL     1      37.768 -12.716  -1.461  1.00  0.00    -0.174 NA
HETATM    8  H   UNL     1      39.070 -12.678   0.103  1.00  0.00     0.189 HD
HETATM    9  C   UNL     1      37.880 -13.272  -2.677  1.00  0.00     0.089 A 
HETATM   10  C   UNL     1      39.112 -13.977  -2.784  1.00  0.00     0.071 A 
BRANCH   9  11
HETATM   11  C   UNL     1      36.835 -13.130  -3.694  1.00  0.00    -0.005 A 
HETATM   12  C   UNL     1      36.428 -14.223  -4.469  1.00  0.00     0.016 A 
HETATM   13  C   UNL     1      35.422 -14.077  -5.428  1.00  0.00     0.037 A 
HETATM   14  C   UNL     1      34.798 -12.845  -5.626  1.00  0.00     0.068 A 
HETATM   15  C   UNL     1      35.211 -11.745  -4.876  1.00  0.00     0.037 A 
HETATM   16  C   UNL     1      36.224 -11.888  -3.917  1.00  0.00     0.016 A 
BRANCH  14  17
HETATM   17  O   UNL     1      33.821 -12.843  -6.582  1.00  0.00    -0.356 OA
HETATM   18  C   UNL     1      34.188 -12.345  -7.862  1.00  0.00     0.210 C 
ENDBRANCH  14  17
ENDBRANCH   9  11
ENDBRANCH   1   5
BRANCH   2  19
HETATM   19  N   UNL     1      42.243 -15.795   0.242  1.00  0.00    -0.267 N 
HETATM   20  C   UNL     1      42.238 -17.045   0.819  1.00  0.00     0.236 C 
HETATM   21  O   UNL     1      41.200 -17.675   1.010  1.00  0.00    -0.272 OA
HETATM   22  H   UNL     1      43.084 -15.300  -0.052  1.00  0.00     0.190 HD
BRANCH  20  23
HETATM   23  C   UNL     1      43.605 -17.625   1.114  1.00  0.00     0.109 C 
BRANCH  23  24
HETATM   24  C   UNL     1      43.765 -18.094   2.560  1.00  0.00     0.048 C 
BRANCH  24  25
HETATM   25  C   UNL     1      43.973 -19.580   2.753  1.00  0.00    -0.055 A 
HETATM   26  C   UNL     1      44.507 -20.028   3.972  1.00  0.00     0.049 A 
HETATM   27  C   UNL     1      44.756 -21.382   4.177  1.00  0.00     0.116 A 
HETATM   28  F   UNL     1      45.266 -21.789   5.348  1.00  0.00    -0.206 F 
HETATM   29  C   UNL     1      44.495 -22.316   3.184  1.00  0.00     0.042 A 
HETATM   30  C   UNL     1      43.978 -21.888   1.965  1.00  0.00     0.003 A 
HETATM   31  C   UNL     1      43.725 -20.527   1.748  1.00  0.00     0.007 A 
ENDBRANCH  24  25
ENDBRANCH  23  24
ENDBRANCH  20  23
ENDBRANCH   2  19
TORSDOF 7
ENDMDL
MODEL 7
REMARK VINA RESULT:      -8.2      4.571     11.946
REMARK  7 active torsions:
REMARK  status: ('A' for Active; 'I' for Inactive)
REMARK    1  A    between atoms: O_2  and  C_3 
REMARK    2  A    between atoms: C_6  and  C_7 
REMARK    3  A    between atoms: C_11  and  C_12 
REMARK       I    between atoms: C_12  and  N_13 
REMARK    4  A    between atoms: N_13  and  N_14 
REMARK       I    between atoms: N_14  and  C_15 
REMARK    5  A    between atoms: C_15  and  C_16 
REMARK    6  A    between atoms: C_16  and  C_17 
REMARK    7  A    between atoms: C_17  and  C_18 
ROOT
HETATM    1  C   UNL     1      41.296 -12.939   5.915  1.00  0.00     0.288 C 
HETATM    2  N   UNL     1      42.094 -12.333   6.862  1.00  0.00    -0.262 N 
HETATM    3  O   UNL     1      40.097 -12.685   5.819  1.00  0.00    -0.264 OA
HETATM    4  H   UNL     1      43.077 -12.547   7.005  1.00  0.00     0.190 HD
ENDROOT
BRANCH   1   5
HETATM    5  C   UNL     1      41.964 -13.869   5.050  1.00  0.00     0.121 A 
HETATM    6  N   UNL     1      42.675 -13.458   3.957  1.00  0.00    -0.272 N 
HETATM    7  N   UNL     1      43.245 -14.455   3.266  1.00  0.00    -0.174 NA
HETATM    8  H   UNL     1      42.803 -12.503   3.637  1.00  0.00     0.189 HD
HETATM    9  C   UNL     1      42.929 -15.566   3.948  1.00  0.00     0.089 A 
HETATM   10  C   UNL     1      42.104 -15.242   5.063  1.00  0.00     0.071 A 
BRANCH   9  11
HETATM   11  C   UNL     1      43.405 -16.889   3.538  1.00  0.00    -0.005 A 
HETATM   12  C   UNL     1      43.643 -17.896   4.482  1.00  0.00     0.016 A 
HETATM   13  C   UNL     1      44.086 -19.159   4.077  1.00  0.00     0.037 A 
HETATM   14  C   UNL     1      44.289 -19.443   2.726  1.00  0.00     0.068 A 
HETATM   15  C   UNL     1      44.076 -18.443   1.780  1.00  0.00     0.037 A 
HETATM   16  C   UNL     1      43.638 -17.174   2.185  1.00  0.00     0.016 A 
BRANCH  14  17
HETATM   17  O   UNL     1      44.706 -20.719   2.466  1.00  0.00    -0.356 OA
HETATM   18  C   UNL     1      43.776 -21.568   1.804  1.00  0.00     0.210 C 
ENDBRANCH  14  17
ENDBRANCH   9  11
ENDBRANCH   1   5
BRANCH   2  19
HETATM   19  N   UNL     1      41.537 -11.355   7.692  1.00  0.00    -0.267 N 
HETATM   20  C   UNL     1      42.373 -10.686   8.556  1.00  0.00     0.236 C 
HETATM   21  O   UNL     1      43.561 -10.979   8.679  1.00  0.00    -0.272 OA
HETATM   22  H   UNL     1      40.588 -11.060   7.465  1.00  0.00     0.190 HD
BRANCH  20  23
HETATM   23  C   UNL     1      41.751  -9.506   9.272  1.00  0.00     0.109 C 
BRANCH  23  24
HETATM   24  C   UNL     1      40.927  -9.906  10.495  1.00  0.00     0.048 C 
BRANCH  24  25
HETATM   25  C   UNL     1      41.600  -9.717  11.837  1.00  0.00    -0.055 A 
HETATM   26  C   UNL     1      40.807  -9.366  12.941  1.00  0.00     0.049 A 
HETATM   27  C   UNL     1      41.390  -9.139  14.184  1.00  0.00     0.116 A 
HETATM   28  F   UNL     1      40.615  -8.806  15.225  1.00  0.00    -0.206 F 
HETATM   29  C   UNL     1      42.763  -9.243  14.360  1.00  0.00     0.042 A 
HETATM   30  C   UNL     1      43.566  -9.576  13.273  1.00  0.00     0.003 A 
HETATM   31  C   UNL     1      42.989  -9.805  12.018  1.00  0.00     0.007 A 
ENDBRANCH  24  25
ENDBRANCH  23  24
ENDBRANCH  20  23
ENDBRANCH   2  19
TORSDOF 7
ENDMDL
MODEL 8
REMARK VINA RESULT:      -8.2      8.248     12.204
REMARK  7 active torsions:
REMARK  status: ('A' for Active; 'I' for Inactive)
REMARK    1  A    between atoms: O_2  and  C_3 
REMARK    2  A    between atoms: C_6  and  C_7 
REMARK    3  A    between atoms: C_11  and  C_12 
REMARK       I    between atoms: C_12  and  N_13 
REMARK    4  A    between atoms: N_13  and  N_14 
REMARK       I    between atoms: N_14  and  C_15 
REMARK    5  A    between atoms: C_15  and  C_16 
REMARK    6  A    between atoms: C_16  and  C_17 
REMARK    7  A    between atoms: C_17  and  C_18 
ROOT
HETATM    1  C   UNL     1      41.745 -15.362   0.502  1.00  0.00     0.288 C 
HETATM    2  N   UNL     1      41.720 -16.691   0.869  1.00  0.00    -0.262 N 
HETATM    3  O   UNL     1      42.362 -14.521   1.155  1.00  0.00    -0.264 OA
HETATM    4  H   UNL     1      41.187 -17.408   0.385  1.00  0.00     0.190 HD
ENDROOT
BRANCH   1   5
HETATM    5  C   UNL     1      41.019 -15.037  -0.692  1.00  0.00     0.121 A 
HETATM    6  N   UNL     1      41.538 -15.261  -1.937  1.00  0.00    -0.272 N 
HETATM    7  N   UNL     1      40.723 -14.912  -2.942  1.00  0.00    -0.174 NA
HETATM    8  H   UNL     1      42.449 -15.652  -2.157  1.00  0.00     0.189 HD
HETATM    9  C   UNL     1      39.607 -14.475  -2.340  1.00  0.00     0.089 A 
HETATM   10  C   UNL     1      39.763 -14.515  -0.925  1.00  0.00     0.071 A 
BRANCH   9  11
HETATM   11  C   UNL     1      38.437 -14.033  -3.102  1.00  0.00    -0.005 A 
HETATM   12  C   UNL     1      37.579 -14.960  -3.708  1.00  0.00     0.016 A 
HETATM   13  C   UNL     1      36.458 -14.526  -4.422  1.00  0.00     0.037 A 
HETATM   14  C   UNL     1      36.167 -13.167  -4.538  1.00  0.00     0.068 A 
HETATM   15  C   UNL     1      37.027 -12.236  -3.958  1.00  0.00     0.037 A 
HETATM   16  C   UNL     1      38.154 -12.667  -3.246  1.00  0.00     0.016 A 
BRANCH  14  17
HETATM   17  O   UNL     1      35.035 -12.881  -5.248  1.00  0.00    -0.356 OA
HETATM   18  C   UNL     1      35.203 -12.090  -6.418  1.00  0.00     0.210 C 
ENDBRANCH  14  17
ENDBRANCH   9  11
ENDBRANCH   1   5
BRANCH   2  19
HETATM   19  N   UNL     1      42.467 -17.103   1.976  1.00  0.00    -0.267 N 
HETATM   20  C   UNL     1      41.813 -17.262   3.177  1.00  0.00     0.236 C 
HETATM   21  O   UNL     1      40.627 -16.971   3.321  1.00  0.00    -0.272 OA
HETATM   22  H   UNL     1      43.404 -17.451   1.781  1.00  0.00     0.190 HD
BRANCH  20  23
HETATM   23  C   UNL     1      42.631 -17.905   4.277  1.00  0.00     0.109 C 
BRANCH  23  24
HETATM   24  C   UNL     1      44.037 -18.305   3.831  1.00  0.00     0.048 C 
BRANCH  24  25
HETATM   25  C   UNL     1      44.288 -19.791   3.693  1.00  0.00    -0.055 A 
HETATM   26  C   UNL     1      44.054 -20.397   2.448  1.00  0.00     0.049 A 
HETATM   27  C   UNL     1      44.230 -21.768   2.288  1.00  0.00     0.116 A 
HETATM   28  F   UNL     1      44.002 -22.326   1.091  1.00  0.00    -0.206 F 
HETATM   29  C   UNL     1      44.627 -22.568   3.350  1.00  0.00     0.042 A 
HETATM   30  C   UNL     1      44.849 -21.987   4.595  1.00  0.00     0.003 A 
HETATM   31  C   UNL     1      44.675 -20.608   4.767  1.00  0.00     0.007 A 
ENDBRANCH  24  25
ENDBRANCH  23  24
ENDBRANCH  20  23
ENDBRANCH   2  19
TORSDOF 7
ENDMDL
MODEL 9
REMARK VINA RESULT:      -7.9      9.207     12.515
REMARK  7 active torsions:
REMARK  status: ('A' for Active; 'I' for Inactive)
REMARK    1  A    between atoms: O_2  and  C_3 
REMARK    2  A    between atoms: C_6  and  C_7 
REMARK    3  A    between atoms: C_11  and  C_12 
REMARK       I    between atoms: C_12  and  N_13 
REMARK    4  A    between atoms: N_13  and  N_14 
REMARK       I    between atoms: N_14  and  C_15 
REMARK    5  A    between atoms: C_15  and  C_16 
REMARK    6  A    between atoms: C_16  and  C_17 
REMARK    7  A    between atoms: C_17  and  C_18 
ROOT
HETATM    1  C   UNL     1      41.500 -14.470   0.007  1.00  0.00     0.288 C 
HETATM    2  N   UNL     1      40.793 -14.543  -1.175  1.00  0.00    -0.262 N 
HETATM    3  O   UNL     1      41.906 -13.398   0.454  1.00  0.00    -0.264 OA
HETATM    4  H   UNL     1      40.480 -15.411  -1.601  1.00  0.00     0.190 HD
ENDROOT
BRANCH   1   5
HETATM    5  C   UNL     1      41.712 -15.720   0.678  1.00  0.00     0.121 A 
HETATM    6  N   UNL     1      40.773 -16.714   0.667  1.00  0.00    -0.272 N 
HETATM    7  N   UNL     1      41.137 -17.820   1.332  1.00  0.00    -0.174 NA
HETATM    8  H   UNL     1      39.862 -16.688   0.220  1.00  0.00     0.189 HD
HETATM    9  C   UNL     1      42.380 -17.562   1.768  1.00  0.00     0.089 A 
HETATM   10  C   UNL     1      42.767 -16.243   1.398  1.00  0.00     0.071 A 
BRANCH   9  11
HETATM   11  C   UNL     1      43.161 -18.551   2.514  1.00  0.00    -0.005 A 
HETATM   12  C   UNL     1      43.521 -18.328   3.849  1.00  0.00     0.016 A 
HETATM   13  C   UNL     1      44.257 -19.285   4.555  1.00  0.00     0.037 A 
HETATM   14  C   UNL     1      44.637 -20.482   3.948  1.00  0.00     0.068 A 
HETATM   15  C   UNL     1      44.302 -20.705   2.613  1.00  0.00     0.037 A 
HETATM   16  C   UNL     1      43.570 -19.744   1.902  1.00  0.00     0.016 A 
BRANCH  14  17
HETATM   17  O   UNL     1      45.337 -21.336   4.753  1.00  0.00    -0.356 OA
HETATM   18  C   UNL     1      44.805 -22.647   4.902  1.00  0.00     0.210 C 
ENDBRANCH  14  17
ENDBRANCH   9  11
ENDBRANCH   1   5
BRANCH   2  19
HETATM   19  N   UNL     1      40.476 -13.360  -1.849  1.00  0.00    -0.267 N 
HETATM   20  C   UNL     1      40.736 -13.294  -3.199  1.00  0.00     0.236 C 
HETATM   21  O   UNL     1      41.311 -14.200  -3.802  1.00  0.00    -0.272 OA
HETATM   22  H   UNL     1      39.891 -12.697  -1.343  1.00  0.00     0.190 HD
BRANCH  20  23
HETATM   23  C   UNL     1      40.182 -12.075  -3.905  1.00  0.00     0.109 C 
BRANCH  23  24
HETATM   24  C   UNL     1      41.259 -11.225  -4.579  1.00  0.00     0.048 C 
BRANCH  24  25
HETATM   25  C   UNL     1      41.884 -10.147  -3.721  1.00  0.00    -0.055 A 
HETATM   26  C   UNL     1      42.860 -10.520  -2.783  1.00  0.00     0.049 A 
HETATM   27  C   UNL     1      43.430  -9.569  -1.942  1.00  0.00     0.116 A 
HETATM   28  F   UNL     1      44.361  -9.946  -1.055  1.00  0.00    -0.206 F 
HETATM   29  C   UNL     1      43.043  -8.237  -2.002  1.00  0.00     0.042 A 
HETATM   30  C   UNL     1      42.067  -7.852  -2.916  1.00  0.00     0.003 A 
HETATM   31  C   UNL     1      41.487  -8.802  -3.766  1.00  0.00     0.007 A 
ENDBRANCH  24  25
ENDBRANCH  23  24
ENDBRANCH  20  23
ENDBRANCH   2  19
TORSDOF 7
ENDMDL
MODEL 10
REMARK VINA RESULT:      -7.8      9.261     12.239
REMARK  7 active torsions:
REMARK  status: ('A' for Active; 'I' for Inactive)
REMARK    1  A    between atoms: O_2  and  C_3 
REMARK    2  A    between atoms: C_6  and  C_7 
REMARK    3  A    between atoms: C_11  and  C_12 
REMARK       I    between atoms: C_12  and  N_13 
REMARK    4  A    between atoms: N_13  and  N_14 
REMARK       I    between atoms: N_14  and  C_15 
REMARK    5  A    between atoms: C_15  and  C_16 
REMARK    6  A    between atoms: C_16  and  C_17 
REMARK    7  A    between atoms: C_17  and  C_18 
ROOT
HETATM    1  C   UNL     1      41.365 -14.890   0.235  1.00  0.00     0.288 C 
HETATM    2  N   UNL     1      40.213 -15.347  -0.369  1.00  0.00    -0.262 N 
HETATM    3  O   UNL     1      41.791 -13.752   0.041  1.00  0.00    -0.264 OA
HETATM    4  H   UNL     1      39.852 -16.292  -0.273  1.00  0.00     0.190 HD
ENDROOT
BRANCH   1   5
HETATM    5  C   UNL     1      42.018 -15.825   1.106  1.00  0.00     0.121 A 
HETATM    6  N   UNL     1      42.378 -15.493   2.382  1.00  0.00    -0.272 N 
HETATM    7  N   UNL     1      42.966 -16.487   3.063  1.00  0.00    -0.174 NA
HETATM    8  H   UNL     1      42.244 -14.596   2.840  1.00  0.00     0.189 HD
HETATM    9  C   UNL     1      42.962 -17.528   2.217  1.00  0.00     0.089 A 
HETATM   10  C   UNL     1      42.396 -17.145   0.967  1.00  0.00     0.071 A 
BRANCH   9  11
HETATM   11  C   UNL     1      43.486 -18.841   2.600  1.00  0.00    -0.005 A 
HETATM   12  C   UNL     1      44.170 -19.020   3.809  1.00  0.00     0.016 A 
HETATM   13  C   UNL     1      44.655 -20.281   4.169  1.00  0.00     0.037 A 
HETATM   14  C   UNL     1      44.458 -21.385   3.339  1.00  0.00     0.068 A 
HETATM   15  C   UNL     1      43.798 -21.213   2.124  1.00  0.00     0.037 A 
HETATM   16  C   UNL     1      43.316 -19.949   1.758  1.00  0.00     0.016 A 
BRANCH  14  17
HETATM   17  O   UNL     1      44.968 -22.560   3.817  1.00  0.00    -0.356 OA
HETATM   18  C   UNL     1      45.254 -22.607   5.209  1.00  0.00     0.210 C 
ENDBRANCH  14  17
ENDBRANCH   9  11
ENDBRANCH   1   5
BRANCH   2  19
HETATM   19  N   UNL     1      39.475 -14.471  -1.171  1.00  0.00    -0.267 N 
HETATM   20  C   UNL     1      39.596 -14.585  -2.537  1.00  0.00     0.236 C 
HETATM   21  O   UNL     1      40.390 -15.364  -3.063  1.00  0.00    -0.272 OA
HETATM   22  H   UNL     1      38.744 -13.939  -0.701  1.00  0.00     0.190 HD
BRANCH  20  23
HETATM   23  C   UNL     1      38.621 -13.754  -3.343  1.00  0.00     0.109 C 
BRANCH  23  24
HETATM   24  C   UNL     1      38.655 -12.267  -2.989  1.00  0.00     0.048 C 
BRANCH  24  25
HETATM   25  C   UNL     1      40.024 -11.624  -2.970  1.00  0.00    -0.055 A 
HETATM   26  C   UNL     1      40.845 -11.762  -4.101  1.00  0.00     0.049 A 
HETATM   27  C   UNL     1      42.128 -11.224  -4.111  1.00  0.00     0.116 A 
HETATM   28  F   UNL     1      42.894 -11.367  -5.201  1.00  0.00    -0.206 F 
HETATM   29  C   UNL     1      42.630 -10.551  -3.006  1.00  0.00     0.042 A 
HETATM   30  C   UNL     1      41.836 -10.417  -1.871  1.00  0.00     0.003 A 
HETATM   31  C   UNL     1      40.543 -10.955  -1.851  1.00  0.00     0.007 A 
ENDBRANCH  24  25
ENDBRANCH  23  24
ENDBRANCH  20  23
ENDBRANCH   2  19
TORSDOF 7
ENDMDL
