MODEL 1
REMARK VINA RESULT:      -8.5      0.000      0.000
REMARK  5 active torsions:
REMARK  status: ('A' for Active; 'I' for Inactive)
REMARK    1  A    between atoms: C_2  and  C_3 
REMARK    2  A    between atoms: C_3  and  C_4 
REMARK    3  A    between atoms: C_10  and  C_11 
REMARK    4  A    between atoms: C_12  and  O_13 
REMARK    5  A    between atoms: C_22  and  N_23 
ROOT
HETATM    1  C   UNL     1      44.555 -20.422   4.733  1.00  0.00     0.066 A 
HETATM    2  N   UNL     1      44.426 -21.603   5.363  1.00  0.00    -0.177 NA
HETATM    3  N   UNL     1      44.060 -21.274   6.619  1.00  0.00    -0.256 N 
HETATM    4  H   UNL     1      43.918 -22.014   7.297  1.00  0.00     0.191 HD
HETATM    5  C   UNL     1      43.966 -19.934   6.803  1.00  0.00     0.175 A 
HETATM    6  C   UNL     1      44.250 -19.344   5.598  1.00  0.00     0.035 A 
HETATM    7  C   UNL     1      44.252 -17.858   5.475  1.00  0.00     0.107 A 
HETATM    8  C   UNL     1      44.077 -17.225   6.855  1.00  0.00     0.067 A 
HETATM    9  C   UNL     1      44.314 -15.726   6.951  1.00  0.00     0.020 C 
HETATM   10  N   UNL     1      44.510 -14.483   7.030  1.00  0.00    -0.096 N 
HETATM   11  C   UNL     1      43.814 -17.940   7.982  1.00  0.00     0.139 A 
HETATM   12  O   UNL     1      43.687 -19.341   7.958  1.00  0.00    -0.279 OA
ENDROOT
BRANCH   7  13
HETATM   13  C   UNL     1      43.111 -17.512   4.527  1.00  0.00    -0.010 A 
HETATM   14  C   UNL     1      41.787 -17.459   4.989  1.00  0.00     0.073 A 
HETATM   15  C   UNL     1      40.725 -17.167   4.130  1.00  0.00     0.038 A 
HETATM   16  C   UNL     1      40.970 -16.926   2.779  1.00  0.00     0.022 A 
HETATM   17  C   UNL     1      42.274 -16.983   2.297  1.00  0.00     0.011 A 
HETATM   18 BR   UNL     1      42.612 -16.664   0.464  1.00  0.00    -0.051 Br
HETATM   19  C   UNL     1      43.336 -17.275   3.154  1.00  0.00     0.030 A 
BRANCH  14  20
HETATM   20  O   UNL     1      41.541 -17.702   6.310  1.00  0.00    -0.360 OA
HETATM   21  H   UNL     1      42.377 -17.923   6.755  1.00  0.00     0.217 HD
ENDBRANCH  14  20
ENDBRANCH   7  13
BRANCH  11  22
HETATM   22  N   UNL     1      43.658 -17.412   9.244  1.00  0.00    -0.282 NA
HETATM   23  H   UNL     1      44.485 -16.980   9.648  1.00  0.00     0.126 HD
HETATM   24  H   UNL     1      42.828 -16.830   9.316  1.00  0.00     0.126 HD
ENDBRANCH  11  22
BRANCH   1  25
HETATM   25  C   UNL     1      45.002 -20.378   3.309  1.00  0.00     0.061 C 
BRANCH  25  26
HETATM   26  C   UNL     1      43.859 -20.636   2.327  1.00  0.00     0.002 C 
HETATM   27  C   UNL     1      44.066 -21.936   1.565  1.00  0.00     0.005 C 
ENDBRANCH  25  26
ENDBRANCH   1  25
TORSDOF 5
ENDMDL
MODEL 2
REMARK VINA RESULT:      -8.2      6.039      8.372
REMARK  5 active torsions:
REMARK  status: ('A' for Active; 'I' for Inactive)
REMARK    1  A    between atoms: C_2  and  C_3 
REMARK    2  A    between atoms: C_3  and  C_4 
REMARK    3  A    between atoms: C_10  and  C_11 
REMARK    4  A    between atoms: C_12  and  O_13 
REMARK    5  A    between atoms: C_22  and  N_23 
ROOT
HETATM    1  C   UNL     1      40.957 -14.945  -2.682  1.00  0.00     0.066 A 
HETATM    2  N   UNL     1      41.826 -14.736  -3.686  1.00  0.00    -0.177 NA
HETATM    3  N   UNL     1      42.604 -13.724  -3.251  1.00  0.00    -0.256 N 
HETATM    4  H   UNL     1      43.337 -13.374  -3.857  1.00  0.00     0.191 HD
HETATM    5  C   UNL     1      42.249 -13.284  -2.018  1.00  0.00     0.175 A 
HETATM    6  C   UNL     1      41.204 -14.067  -1.600  1.00  0.00     0.035 A 
HETATM    7  C   UNL     1      40.567 -13.816  -0.275  1.00  0.00     0.107 A 
HETATM    8  C   UNL     1      41.139 -12.540   0.341  1.00  0.00     0.067 A 
HETATM    9  C   UNL     1      40.422 -11.995   1.566  1.00  0.00     0.020 C 
HETATM   10  N   UNL     1      39.827 -11.543   2.581  1.00  0.00    -0.096 N 
HETATM   11  C   UNL     1      42.178 -11.845  -0.197  1.00  0.00     0.139 A 
HETATM   12  O   UNL     1      42.808 -12.258  -1.386  1.00  0.00    -0.279 OA
ENDROOT
BRANCH   7  13
HETATM   13  C   UNL     1      40.852 -15.051   0.571  1.00  0.00    -0.010 A 
HETATM   14  C   UNL     1      39.847 -15.620   1.366  1.00  0.00     0.073 A 
HETATM   15  C   UNL     1      40.095 -16.737   2.167  1.00  0.00     0.038 A 
HETATM   16  C   UNL     1      41.368 -17.306   2.191  1.00  0.00     0.022 A 
HETATM   17  C   UNL     1      42.383 -16.751   1.417  1.00  0.00     0.011 A 
HETATM   18 BR   UNL     1      44.113 -17.513   1.452  1.00  0.00    -0.051 Br
HETATM   19  C   UNL     1      42.136 -15.634   0.618  1.00  0.00     0.030 A 
BRANCH  14  20
HETATM   20  O   UNL     1      38.600 -15.063   1.352  1.00  0.00    -0.360 OA
HETATM   21  H   UNL     1      38.453 -14.591   2.190  1.00  0.00     0.217 HD
ENDBRANCH  14  20
ENDBRANCH   7  13
BRANCH  11  22
HETATM   22  N   UNL     1      42.719 -10.690   0.319  1.00  0.00    -0.282 NA
HETATM   23  H   UNL     1      43.688 -10.506   0.070  1.00  0.00     0.126 HD
HETATM   24  H   UNL     1      42.111  -9.887   0.181  1.00  0.00     0.126 HD
ENDBRANCH  11  22
BRANCH   1  25
HETATM   25  C   UNL     1      39.889 -15.978  -2.818  1.00  0.00     0.061 C 
BRANCH  25  26
HETATM   26  C   UNL     1      39.037 -15.780  -4.072  1.00  0.00     0.002 C 
HETATM   27  C   UNL     1      37.672 -15.203  -3.729  1.00  0.00     0.005 C 
ENDBRANCH  25  26
ENDBRANCH   1  25
TORSDOF 5
ENDMDL
MODEL 3
REMARK VINA RESULT:      -7.5      4.230      5.545
REMARK  5 active torsions:
REMARK  status: ('A' for Active; 'I' for Inactive)
REMARK    1  A    between atoms: C_2  and  C_3 
REMARK    2  A    between atoms: C_3  and  C_4 
REMARK    3  A    between atoms: C_10  and  C_11 
REMARK    4  A    between atoms: C_12  and  O_13 
REMARK    5  A    between atoms: C_22  and  N_23 
ROOT
HETATM    1  C   UNL     1      42.198 -16.328   3.241  1.00  0.00     0.066 A 
HETATM    2  N   UNL     1      41.849 -17.504   3.791  1.00  0.00    -0.177 NA
HETATM    3  N   UNL     1      41.011 -17.170   4.793  1.00  0.00    -0.256 N 
HETATM    4  H   UNL     1      40.624 -17.906   5.373  1.00  0.00     0.191 HD
HETATM    5  C   UNL     1      40.829 -15.830   4.899  1.00  0.00     0.175 A 
HETATM    6  C   UNL     1      41.557 -15.248   3.894  1.00  0.00     0.035 A 
HETATM    7  C   UNL     1      41.583 -13.764   3.754  1.00  0.00     0.107 A 
HETATM    8  C   UNL     1      40.866 -13.120   4.940  1.00  0.00     0.067 A 
HETATM    9  C   UNL     1      41.020 -11.615   5.094  1.00  0.00     0.020 C 
HETATM   10  N   UNL     1      41.148 -10.367   5.220  1.00  0.00    -0.096 N 
HETATM   11  C   UNL     1      40.189 -13.828   5.885  1.00  0.00     0.139 A 
HETATM   12  O   UNL     1      40.105 -15.232   5.838  1.00  0.00    -0.279 OA
ENDROOT
BRANCH   7  13
HETATM   13  C   UNL     1      40.905 -13.453   2.425  1.00  0.00    -0.010 A 
HETATM   14  C   UNL     1      41.579 -12.729   1.431  1.00  0.00     0.073 A 
HETATM   15  C   UNL     1      40.966 -12.414   0.216  1.00  0.00     0.038 A 
HETATM   16  C   UNL     1      39.653 -12.817  -0.025  1.00  0.00     0.022 A 
HETATM   17  C   UNL     1      38.962 -13.528   0.951  1.00  0.00     0.011 A 
HETATM   18 BR   UNL     1      37.179 -14.070   0.633  1.00  0.00    -0.051 Br
HETATM   19  C   UNL     1      39.574 -13.842   2.166  1.00  0.00     0.030 A 
BRANCH  14  20
HETATM   20  O   UNL     1      42.862 -12.325   1.665  1.00  0.00    -0.360 OA
HETATM   21  H   UNL     1      43.472 -13.039   1.412  1.00  0.00     0.217 HD
ENDBRANCH  14  20
ENDBRANCH   7  13
BRANCH  11  22
HETATM   22  N   UNL     1      39.538 -13.291   6.971  1.00  0.00    -0.282 NA
HETATM   23  H   UNL     1      39.965 -13.471   7.876  1.00  0.00     0.126 HD
HETATM   24  H   UNL     1      39.299 -12.313   6.830  1.00  0.00     0.126 HD
ENDBRANCH  11  22
BRANCH   1  25
HETATM   25  C   UNL     1      43.171 -16.289   2.110  1.00  0.00     0.061 C 
BRANCH  25  26
HETATM   26  C   UNL     1      42.691 -17.083   0.895  1.00  0.00     0.002 C 
HETATM   27  C   UNL     1      41.504 -16.408   0.225  1.00  0.00     0.005 C 
ENDBRANCH  25  26
ENDBRANCH   1  25
TORSDOF 5
ENDMDL
MODEL 4
REMARK VINA RESULT:      -7.4      8.280     10.738
REMARK  5 active torsions:
REMARK  status: ('A' for Active; 'I' for Inactive)
REMARK    1  A    between atoms: C_2  and  C_3 
REMARK    2  A    between atoms: C_3  and  C_4 
REMARK    3  A    between atoms: C_10  and  C_11 
REMARK    4  A    between atoms: C_12  and  O_13 
REMARK    5  A    between atoms: C_22  and  N_23 
ROOT
HETATM    1  C   UNL     1      40.553 -14.179  -0.469  1.00  0.00     0.066 A 
HETATM    2  N   UNL     1      41.649 -14.947  -0.339  1.00  0.00    -0.177 NA
HETATM    3  N   UNL     1      41.670 -15.693  -1.462  1.00  0.00    -0.256 N 
HETATM    4  H   UNL     1      42.411 -16.374  -1.584  1.00  0.00     0.191 HD
HETATM    5  C   UNL     1      40.625 -15.429  -2.286  1.00  0.00     0.175 A 
HETATM    6  C   UNL     1      39.893 -14.433  -1.694  1.00  0.00     0.035 A 
HETATM    7  C   UNL     1      38.652 -13.928  -2.350  1.00  0.00     0.107 A 
HETATM    8  C   UNL     1      38.323 -14.790  -3.569  1.00  0.00     0.067 A 
HETATM    9  C   UNL     1      36.958 -14.581  -4.202  1.00  0.00     0.020 C 
HETATM   10  N   UNL     1      35.825 -14.407  -4.728  1.00  0.00    -0.096 N 
HETATM   11  C   UNL     1      39.143 -15.769  -4.040  1.00  0.00     0.139 A 
HETATM   12  O   UNL     1      40.373 -16.066  -3.424  1.00  0.00    -0.279 OA
ENDROOT
BRANCH   7  13
HETATM   13  C   UNL     1      38.930 -12.477  -2.721  1.00  0.00    -0.010 A 
HETATM   14  C   UNL     1      38.114 -11.445  -2.234  1.00  0.00     0.073 A 
HETATM   15  C   UNL     1      38.339 -10.111  -2.582  1.00  0.00     0.038 A 
HETATM   16  C   UNL     1      39.391  -9.784  -3.437  1.00  0.00     0.022 A 
HETATM   17  C   UNL     1      40.207 -10.793  -3.940  1.00  0.00     0.011 A 
HETATM   18 BR   UNL     1      41.630 -10.356  -5.105  1.00  0.00    -0.051 Br
HETATM   19  C   UNL     1      39.982 -12.126  -3.593  1.00  0.00     0.030 A 
BRANCH  14  20
HETATM   20  O   UNL     1      37.078 -11.761  -1.402  1.00  0.00    -0.360 OA
HETATM   21  H   UNL     1      36.647 -10.942  -1.104  1.00  0.00     0.217 HD
ENDBRANCH  14  20
ENDBRANCH   7  13
BRANCH  11  22
HETATM   22  N   UNL     1      38.884 -16.572  -5.127  1.00  0.00    -0.282 NA
HETATM   23  H   UNL     1      38.263 -17.360  -4.956  1.00  0.00     0.126 HD
HETATM   24  H   UNL     1      38.629 -16.033  -5.950  1.00  0.00     0.126 HD
ENDBRANCH  11  22
BRANCH   1  25
HETATM   25  C   UNL     1      40.166 -13.236   0.622  1.00  0.00     0.061 C 
BRANCH  25  26
HETATM   26  C   UNL     1      38.861 -13.637   1.309  1.00  0.00     0.002 C 
HETATM   27  C   UNL     1      38.927 -15.062   1.835  1.00  0.00     0.005 C 
ENDBRANCH  25  26
ENDBRANCH   1  25
TORSDOF 5
ENDMDL
MODEL 5
REMARK VINA RESULT:      -7.4      3.913      5.795
REMARK  5 active torsions:
REMARK  status: ('A' for Active; 'I' for Inactive)
REMARK    1  A    between atoms: C_2  and  C_3 
REMARK    2  A    between atoms: C_3  and  C_4 
REMARK    3  A    between atoms: C_10  and  C_11 
REMARK    4  A    between atoms: C_12  and  O_13 
REMARK    5  A    between atoms: C_22  and  N_23 
ROOT
HETATM    1  C   UNL     1      41.940 -16.678   2.019  1.00  0.00     0.066 A 
HETATM    2  N   UNL     1      42.551 -16.473   0.839  1.00  0.00    -0.177 NA
HETATM    3  N   UNL     1      42.564 -15.132   0.697  1.00  0.00    -0.256 N 
HETATM    4  H   UNL     1      42.966 -14.732  -0.142  1.00  0.00     0.191 HD
HETATM    5  C   UNL     1      41.974 -14.490   1.736  1.00  0.00     0.175 A 
HETATM    6  C   UNL     1      41.582 -15.453   2.630  1.00  0.00     0.035 A 
HETATM    7  C   UNL     1      40.875 -15.066   3.884  1.00  0.00     0.107 A 
HETATM    8  C   UNL     1      40.559 -13.570   3.859  1.00  0.00     0.067 A 
HETATM    9  C   UNL     1      39.616 -13.056   4.934  1.00  0.00     0.020 C 
HETATM   10  N   UNL     1      38.835 -12.629   5.827  1.00  0.00    -0.096 N 
HETATM   11  C   UNL     1      41.003 -12.724   2.889  1.00  0.00     0.139 A 
HETATM   12  O   UNL     1      41.795 -13.177   1.817  1.00  0.00    -0.279 OA
ENDROOT
BRANCH   7  13
HETATM   13  C   UNL     1      41.806 -15.445   5.029  1.00  0.00    -0.010 A 
HETATM   14  C   UNL     1      41.544 -16.573   5.820  1.00  0.00     0.073 A 
HETATM   15  C   UNL     1      42.373 -16.923   6.889  1.00  0.00     0.038 A 
HETATM   16  C   UNL     1      43.486 -16.139   7.191  1.00  0.00     0.022 A 
HETATM   17  C   UNL     1      43.759 -15.010   6.425  1.00  0.00     0.011 A 
HETATM   18 BR   UNL     1      45.262 -13.939   6.835  1.00  0.00    -0.051 Br
HETATM   19  C   UNL     1      42.931 -14.659   5.358  1.00  0.00     0.030 A 
BRANCH  14  20
HETATM   20  O   UNL     1      40.451 -17.339   5.533  1.00  0.00    -0.360 OA
HETATM   21  H   UNL     1      40.497 -17.625   4.605  1.00  0.00     0.217 HD
ENDBRANCH  14  20
ENDBRANCH   7  13
BRANCH  11  22
HETATM   22  N   UNL     1      40.736 -11.376   2.823  1.00  0.00    -0.282 NA
HETATM   23  H   UNL     1      39.961 -11.050   3.395  1.00  0.00     0.126 HD
HETATM   24  H   UNL     1      41.576 -10.813   2.931  1.00  0.00     0.126 HD
ENDBRANCH  11  22
BRANCH   1  25
HETATM   25  C   UNL     1      41.697 -18.069   2.504  1.00  0.00     0.061 C 
BRANCH  25  26
HETATM   26  C   UNL     1      42.987 -18.878   2.639  1.00  0.00     0.002 C 
HETATM   27  C   UNL     1      43.917 -18.268   3.676  1.00  0.00     0.005 C 
ENDBRANCH  25  26
ENDBRANCH   1  25
TORSDOF 5
ENDMDL
MODEL 6
REMARK VINA RESULT:      -7.3      2.159      2.775
REMARK  5 active torsions:
REMARK  status: ('A' for Active; 'I' for Inactive)
REMARK    1  A    between atoms: C_2  and  C_3 
REMARK    2  A    between atoms: C_3  and  C_4 
REMARK    3  A    between atoms: C_10  and  C_11 
REMARK    4  A    between atoms: C_12  and  O_13 
REMARK    5  A    between atoms: C_22  and  N_23 
ROOT
HETATM    1  C   UNL     1      43.733 -17.915   3.479  1.00  0.00     0.066 A 
HETATM    2  N   UNL     1      43.547 -19.243   3.571  1.00  0.00    -0.177 NA
HETATM    3  N   UNL     1      43.343 -19.463   4.885  1.00  0.00    -0.256 N 
HETATM    4  H   UNL     1      43.193 -20.412   5.206  1.00  0.00     0.191 HD
HETATM    5  C   UNL     1      43.405 -18.325   5.622  1.00  0.00     0.175 A 
HETATM    6  C   UNL     1      43.627 -17.294   4.746  1.00  0.00     0.035 A 
HETATM    7  C   UNL     1      43.769 -15.899   5.254  1.00  0.00     0.107 A 
HETATM    8  C   UNL     1      43.797 -15.906   6.783  1.00  0.00     0.067 A 
HETATM    9  C   UNL     1      44.194 -14.606   7.462  1.00  0.00     0.020 C 
HETATM   10  N   UNL     1      44.523 -13.527   8.025  1.00  0.00    -0.096 N 
HETATM   11  C   UNL     1      43.575 -17.019   7.534  1.00  0.00     0.139 A 
HETATM   12  O   UNL     1      43.303 -18.269   6.945  1.00  0.00    -0.279 OA
ENDROOT
BRANCH   7  13
HETATM   13  C   UNL     1      42.581 -15.125   4.698  1.00  0.00    -0.010 A 
HETATM   14  C   UNL     1      41.297 -15.299   5.236  1.00  0.00     0.073 A 
HETATM   15  C   UNL     1      40.192 -14.616   4.724  1.00  0.00     0.038 A 
HETATM   16  C   UNL     1      40.353 -13.742   3.649  1.00  0.00     0.022 A 
HETATM   17  C   UNL     1      41.615 -13.561   3.093  1.00  0.00     0.011 A 
HETATM   18 BR   UNL     1      41.837 -12.384   1.630  1.00  0.00    -0.051 Br
HETATM   19  C   UNL     1      42.720 -14.244   3.604  1.00  0.00     0.030 A 
BRANCH  14  20
HETATM   20  O   UNL     1      41.134 -16.159   6.284  1.00  0.00    -0.360 OA
HETATM   21  H   UNL     1      42.004 -16.368   6.664  1.00  0.00     0.217 HD
ENDBRANCH  14  20
ENDBRANCH   7  13
BRANCH  11  22
HETATM   22  N   UNL     1      43.599 -17.072   8.908  1.00  0.00    -0.282 NA
HETATM   23  H   UNL     1      43.966 -17.931   9.311  1.00  0.00     0.126 HD
HETATM   24  H   UNL     1      44.004 -16.235   9.318  1.00  0.00     0.126 HD
ENDBRANCH  11  22
BRANCH   1  25
HETATM   25  C   UNL     1      44.039 -17.291   2.157  1.00  0.00     0.061 C 
BRANCH  25  26
HETATM   26  C   UNL     1      43.045 -17.700   1.071  1.00  0.00     0.002 C 
HETATM   27  C   UNL     1      41.861 -16.747   1.016  1.00  0.00     0.005 C 
ENDBRANCH  25  26
ENDBRANCH   1  25
TORSDOF 5
ENDMDL
MODEL 7
REMARK VINA RESULT:      -7.3      5.555      7.430
REMARK  5 active torsions:
REMARK  status: ('A' for Active; 'I' for Inactive)
REMARK    1  A    between atoms: C_2  and  C_3 
REMARK    2  A    between atoms: C_3  and  C_4 
REMARK    3  A    between atoms: C_10  and  C_11 
REMARK    4  A    between atoms: C_12  and  O_13 
REMARK    5  A    between atoms: C_22  and  N_23 
ROOT
HETATM    1  C   UNL     1      41.381 -16.345   1.145  1.00  0.00     0.066 A 
HETATM    2  N   UNL     1      40.571 -17.238   1.740  1.00  0.00    -0.177 NA
HETATM    3  N   UNL     1      39.502 -16.514   2.129  1.00  0.00    -0.256 N 
HETATM    4  H   UNL     1      38.750 -16.978   2.625  1.00  0.00     0.191 HD
HETATM    5  C   UNL     1      39.616 -15.200   1.811  1.00  0.00     0.175 A 
HETATM    6  C   UNL     1      40.806 -15.052   1.146  1.00  0.00     0.035 A 
HETATM    7  C   UNL     1      41.237 -13.704   0.677  1.00  0.00     0.107 A 
HETATM    8  C   UNL     1      40.273 -12.640   1.204  1.00  0.00     0.067 A 
HETATM    9  C   UNL     1      40.704 -11.192   1.040  1.00  0.00     0.020 C 
HETATM   10  N   UNL     1      41.060  -9.990   0.904  1.00  0.00    -0.096 N 
HETATM   11  C   UNL     1      39.124 -12.932   1.871  1.00  0.00     0.139 A 
HETATM   12  O   UNL     1      38.736 -14.259   2.134  1.00  0.00    -0.279 OA
ENDROOT
BRANCH   7  13
HETATM   13  C   UNL     1      41.255 -13.771  -0.845  1.00  0.00    -0.010 A 
HETATM   14  C   UNL     1      42.182 -13.021  -1.583  1.00  0.00     0.073 A 
HETATM   15  C   UNL     1      42.198 -13.051  -2.979  1.00  0.00     0.038 A 
HETATM   16  C   UNL     1      41.273 -13.836  -3.668  1.00  0.00     0.022 A 
HETATM   17  C   UNL     1      40.338 -14.581  -2.956  1.00  0.00     0.011 A 
HETATM   18 BR   UNL     1      39.078 -15.640  -3.885  1.00  0.00    -0.051 Br
HETATM   19  C   UNL     1      40.321 -14.550  -1.561  1.00  0.00     0.030 A 
BRANCH  14  20
HETATM   20  O   UNL     1      43.084 -12.245  -0.914  1.00  0.00    -0.360 OA
HETATM   21  H   UNL     1      43.827 -12.800  -0.621  1.00  0.00     0.217 HD
ENDBRANCH  14  20
ENDBRANCH   7  13
BRANCH  11  22
HETATM   22  N   UNL     1      38.234 -12.008   2.369  1.00  0.00    -0.282 NA
HETATM   23  H   UNL     1      38.646 -11.186   2.802  1.00  0.00     0.126 HD
HETATM   24  H   UNL     1      37.501 -11.783   1.701  1.00  0.00     0.126 HD
ENDBRANCH  11  22
BRANCH   1  25
HETATM   25  C   UNL     1      42.710 -16.775   0.618  1.00  0.00     0.061 C 
BRANCH  25  26
HETATM   26  C   UNL     1      43.732 -17.016   1.728  1.00  0.00     0.002 C 
HETATM   27  C   UNL     1      43.966 -18.502   1.952  1.00  0.00     0.005 C 
ENDBRANCH  25  26
ENDBRANCH   1  25
TORSDOF 5
ENDMDL
MODEL 8
REMARK VINA RESULT:      -7.2      8.145     10.599
REMARK  5 active torsions:
REMARK  status: ('A' for Active; 'I' for Inactive)
REMARK    1  A    between atoms: C_2  and  C_3 
REMARK    2  A    between atoms: C_3  and  C_4 
REMARK    3  A    between atoms: C_10  and  C_11 
REMARK    4  A    between atoms: C_12  and  O_13 
REMARK    5  A    between atoms: C_22  and  N_23 
ROOT
HETATM    1  C   UNL     1      41.602 -11.108  12.472  1.00  0.00     0.066 A 
HETATM    2  N   UNL     1      40.643 -11.867  13.031  1.00  0.00    -0.177 NA
HETATM    3  N   UNL     1      39.755 -12.071  12.037  1.00  0.00    -0.256 N 
HETATM    4  H   UNL     1      38.920 -12.612  12.229  1.00  0.00     0.191 HD
HETATM    5  C   UNL     1      40.115 -11.460  10.881  1.00  0.00     0.175 A 
HETATM    6  C   UNL     1      41.320 -10.849  11.110  1.00  0.00     0.035 A 
HETATM    7  C   UNL     1      41.979 -10.066  10.026  1.00  0.00     0.107 A 
HETATM    8  C   UNL     1      41.040  -9.954   8.825  1.00  0.00     0.067 A 
HETATM    9  C   UNL     1      41.444  -8.975   7.734  1.00  0.00     0.020 C 
HETATM   10  N   UNL     1      41.779  -8.163   6.830  1.00  0.00    -0.096 N 
HETATM   11  C   UNL     1      39.850 -10.608   8.737  1.00  0.00     0.139 A 
HETATM   12  O   UNL     1      39.389 -11.448   9.769  1.00  0.00    -0.279 OA
ENDROOT
BRANCH   7  13
HETATM   13  C   UNL     1      43.267 -10.808   9.691  1.00  0.00    -0.010 A 
HETATM   14  C   UNL     1      44.480 -10.442  10.293  1.00  0.00     0.073 A 
HETATM   15  C   UNL     1      45.675 -11.095   9.981  1.00  0.00     0.038 A 
HETATM   16  C   UNL     1      45.678 -12.131   9.047  1.00  0.00     0.022 A 
HETATM   17  C   UNL     1      44.487 -12.503   8.431  1.00  0.00     0.011 A 
HETATM   18 BR   UNL     1      44.487 -13.902   7.159  1.00  0.00    -0.051 Br
HETATM   19  C   UNL     1      43.293 -11.851   8.741  1.00  0.00     0.030 A 
BRANCH  14  20
HETATM   20  O   UNL     1      44.484  -9.423  11.201  1.00  0.00    -0.360 OA
HETATM   21  H   UNL     1      43.571  -9.247  11.486  1.00  0.00     0.217 HD
ENDBRANCH  14  20
ENDBRANCH   7  13
BRANCH  11  22
HETATM   22  N   UNL     1      38.972 -10.530   7.681  1.00  0.00    -0.282 NA
HETATM   23  H   UNL     1      39.207  -9.851   6.960  1.00  0.00     0.126 HD
HETATM   24  H   UNL     1      38.741 -11.447   7.306  1.00  0.00     0.126 HD
ENDBRANCH  11  22
BRANCH   1  25
HETATM   25  C   UNL     1      42.754 -10.633  13.294  1.00  0.00     0.061 C 
BRANCH  25  26
HETATM   26  C   UNL     1      42.442  -9.341  14.050  1.00  0.00     0.002 C 
HETATM   27  C   UNL     1      42.107  -9.620  15.507  1.00  0.00     0.005 C 
ENDBRANCH  25  26
ENDBRANCH   1  25
TORSDOF 5
ENDMDL
MODEL 9
REMARK VINA RESULT:      -7.1      3.765      4.873
REMARK  5 active torsions:
REMARK  status: ('A' for Active; 'I' for Inactive)
REMARK    1  A    between atoms: C_2  and  C_3 
REMARK    2  A    between atoms: C_3  and  C_4 
REMARK    3  A    between atoms: C_10  and  C_11 
REMARK    4  A    between atoms: C_12  and  O_13 
REMARK    5  A    between atoms: C_22  and  N_23 
ROOT
HETATM    1  C   UNL     1      41.832 -16.617   3.388  1.00  0.00     0.066 A 
HETATM    2  N   UNL     1      41.186 -17.784   3.557  1.00  0.00    -0.177 NA
HETATM    3  N   UNL     1      41.339 -18.065   4.867  1.00  0.00    -0.256 N 
HETATM    4  H   UNL     1      40.944 -18.923   5.233  1.00  0.00     0.191 HD
HETATM    5  C   UNL     1      42.064 -17.125   5.523  1.00  0.00     0.175 A 
HETATM    6  C   UNL     1      42.379 -16.153   4.608  1.00  0.00     0.035 A 
HETATM    7  C   UNL     1      43.200 -14.978   5.018  1.00  0.00     0.107 A 
HETATM    8  C   UNL     1      43.704 -15.174   6.448  1.00  0.00     0.067 A 
HETATM    9  C   UNL     1      44.765 -14.200   6.935  1.00  0.00     0.020 C 
HETATM   10  N   UNL     1      45.644 -13.391   7.339  1.00  0.00    -0.096 N 
HETATM   11  C   UNL     1      43.319 -16.206   7.247  1.00  0.00     0.139 A 
HETATM   12  O   UNL     1      42.415 -17.189   6.802  1.00  0.00    -0.279 OA
ENDROOT
BRANCH   7  13
HETATM   13  C   UNL     1      42.294 -13.761   4.881  1.00  0.00    -0.010 A 
HETATM   14  C   UNL     1      42.398 -12.914   3.767  1.00  0.00     0.073 A 
HETATM   15  C   UNL     1      41.593 -11.781   3.636  1.00  0.00     0.038 A 
HETATM   16  C   UNL     1      40.665 -11.467   4.629  1.00  0.00     0.022 A 
HETATM   17  C   UNL     1      40.553 -12.288   5.747  1.00  0.00     0.011 A 
HETATM   18 BR   UNL     1      39.303 -11.864   7.101  1.00  0.00    -0.051 Br
HETATM   19  C   UNL     1      41.357 -13.421   5.880  1.00  0.00     0.030 A 
BRANCH  14  20
HETATM   20  O   UNL     1      43.310 -13.212   2.796  1.00  0.00    -0.360 OA
HETATM   21  H   UNL     1      42.914 -13.044   1.924  1.00  0.00     0.217 HD
ENDBRANCH  14  20
ENDBRANCH   7  13
BRANCH  11  22
HETATM   22  N   UNL     1      43.752 -16.424   8.534  1.00  0.00    -0.282 NA
HETATM   23  H   UNL     1      43.030 -16.419   9.251  1.00  0.00     0.126 HD
HETATM   24  H   UNL     1      44.373 -17.227   8.599  1.00  0.00     0.126 HD
ENDBRANCH  11  22
BRANCH   1  25
HETATM   25  C   UNL     1      41.921 -16.000   2.031  1.00  0.00     0.061 C 
BRANCH  25  26
HETATM   26  C   UNL     1      40.548 -15.743   1.411  1.00  0.00     0.002 C 
HETATM   27  C   UNL     1      39.704 -14.833   2.291  1.00  0.00     0.005 C 
ENDBRANCH  25  26
ENDBRANCH   1  25
TORSDOF 5
ENDMDL
MODEL 10
REMARK VINA RESULT:      -7.0      7.600      9.346
REMARK  5 active torsions:
REMARK  status: ('A' for Active; 'I' for Inactive)
REMARK    1  A    between atoms: C_2  and  C_3 
REMARK    2  A    between atoms: C_3  and  C_4 
REMARK    3  A    between atoms: C_10  and  C_11 
REMARK    4  A    between atoms: C_12  and  O_13 
REMARK    5  A    between atoms: C_22  and  N_23 
ROOT
HETATM    1  C   UNL     1      40.823 -14.136  -3.010  1.00  0.00     0.066 A 
HETATM    2  N   UNL     1      41.940 -14.481  -3.675  1.00  0.00    -0.177 NA
HETATM    3  N   UNL     1      42.906 -13.720  -3.124  1.00  0.00    -0.256 N 
HETATM    4  H   UNL     1      43.852 -13.794  -3.481  1.00  0.00     0.191 HD
HETATM    5  C   UNL     1      42.437 -12.903  -2.148  1.00  0.00     0.175 A 
HETATM    6  C   UNL     1      41.096 -13.162  -2.021  1.00  0.00     0.035 A 
HETATM    7  C   UNL     1      40.278 -12.401  -1.034  1.00  0.00     0.107 A 
HETATM    8  C   UNL     1      41.121 -11.286  -0.414  1.00  0.00     0.067 A 
HETATM    9  C   UNL     1      40.377 -10.254   0.418  1.00  0.00     0.020 C 
HETATM   10  N   UNL     1      39.760  -9.398   1.108  1.00  0.00    -0.096 N 
HETATM   11  C   UNL     1      42.453 -11.134  -0.644  1.00  0.00     0.139 A 
HETATM   12  O   UNL     1      43.163 -12.008  -1.489  1.00  0.00    -0.279 OA
ENDROOT
BRANCH   7  13
HETATM   13  C   UNL     1      39.809 -13.418  -0.001  1.00  0.00    -0.010 A 
HETATM   14  C   UNL     1      38.445 -13.560   0.294  1.00  0.00     0.073 A 
HETATM   15  C   UNL     1      37.997 -14.470   1.255  1.00  0.00     0.038 A 
HETATM   16  C   UNL     1      38.917 -15.257   1.948  1.00  0.00     0.022 A 
HETATM   17  C   UNL     1      40.275 -15.126   1.678  1.00  0.00     0.011 A 
HETATM   18 BR   UNL     1      41.526 -16.185   2.620  1.00  0.00    -0.051 Br
HETATM   19  C   UNL     1      40.723 -14.216   0.719  1.00  0.00     0.030 A 
BRANCH  14  20
HETATM   20  O   UNL     1      37.542 -12.786  -0.376  1.00  0.00    -0.360 OA
HETATM   21  H   UNL     1      36.931 -12.382   0.264  1.00  0.00     0.217 HD
ENDBRANCH  14  20
ENDBRANCH   7  13
BRANCH  11  22
HETATM   22  N   UNL     1      43.247 -10.142  -0.115  1.00  0.00    -0.282 NA
HETATM   23  H   UNL     1      43.251  -9.261  -0.623  1.00  0.00     0.126 HD
HETATM   24  H   UNL     1      43.101 -10.026   0.884  1.00  0.00     0.126 HD
ENDBRANCH  11  22
BRANCH   1  25
HETATM   25  C   UNL     1      39.512 -14.748  -3.380  1.00  0.00     0.061 C 
BRANCH  25  26
HETATM   26  C   UNL     1      38.409 -13.706  -3.566  1.00  0.00     0.002 C 
HETATM   27  C   UNL     1      37.069 -14.364  -3.855  1.00  0.00     0.005 C 
ENDBRANCH  25  26
ENDBRANCH   1  25
TORSDOF 5
ENDMDL
