MODEL 1
REMARK VINA RESULT:      -8.4      0.000      0.000
REMARK  3 active torsions:
REMARK  status: ('A' for Active; 'I' for Inactive)
REMARK    1  A    between atoms: C_2  and  N_3 
REMARK       I    between atoms: N_3  and  C_4 
REMARK    2  A    between atoms: C_4  and  C_5 
REMARK    3  A    between atoms: C_20  and  C_21 
REMARK       I    between atoms: C_21  and  N_22 
ROOT
HETATM    1  C   UNL     1      39.851 -15.356   2.043  1.00  0.00     0.032 A 
HETATM    2  C   UNL     1      40.871 -16.040   1.377  1.00  0.00     0.036 A 
HETATM    3  C   UNL     1      41.214 -15.663   0.067  1.00  0.00     0.046 A 
HETATM    4  C   UNL     1      40.525 -14.606  -0.562  1.00  0.00     0.030 A 
HETATM    5  C   UNL     1      39.514 -13.959   0.133  1.00  0.00     0.063 A 
HETATM    6  N   UNL     1      39.038 -13.004  -0.723  1.00  0.00    -0.277 N 
HETATM    7  H   UNL     1      38.290 -12.344  -0.550  1.00  0.00     0.189 HD
HETATM    8  N   UNL     1      39.661 -12.968  -1.915  1.00  0.00    -0.168 NA
HETATM    9  C   UNL     1      40.583 -13.951  -1.828  1.00  0.00     0.156 A 
HETATM   10  C   UNL     1      39.148 -14.304   1.435  1.00  0.00     0.034 A 
ENDROOT
BRANCH   2  11
HETATM   11  N   UNL     1      41.603 -17.110   1.939  1.00  0.00    -0.323 N 
HETATM   12  C   UNL     1      42.888 -17.068   2.450  1.00  0.00     0.256 C 
HETATM   13  O   UNL     1      43.612 -16.085   2.542  1.00  0.00    -0.267 OA
HETATM   14  H   UNL     1      41.089 -17.977   2.018  1.00  0.00     0.169 HD
BRANCH  12  15
HETATM   15  C   UNL     1      43.417 -18.359   2.968  1.00  0.00     0.038 A 
HETATM   16  C   UNL     1      43.747 -19.422   2.130  1.00  0.00     0.061 A 
HETATM   17  C   UNL     1      44.238 -20.569   2.724  1.00  0.00     0.128 A 
HETATM   18 CL   UNL     1      44.663 -21.932   1.774  1.00  0.00    -0.062 Cl
HETATM   19  N   UNL     1      44.425 -20.730   4.045  1.00  0.00    -0.225 NA
HETATM   20  C   UNL     1      44.118 -19.673   4.818  1.00  0.00     0.128 A 
HETATM   21 CL   UNL     1      44.387 -19.912   6.494  1.00  0.00    -0.062 Cl
HETATM   22  C   UNL     1      43.619 -18.477   4.345  1.00  0.00     0.061 A 
ENDBRANCH  12  15
ENDBRANCH   2  11
BRANCH   9  23
HETATM   23  C   UNL     1      41.497 -14.250  -2.939  1.00  0.00     0.270 C 
HETATM   24  N   UNL     1      42.681 -13.566  -2.888  1.00  0.00    -0.365 N 
HETATM   25  H   UNL     1      42.841 -12.929  -2.118  1.00  0.00     0.159 HD
HETATM   26  H   UNL     1      43.376 -13.709  -3.604  1.00  0.00     0.159 HD
HETATM   27  O   UNL     1      41.251 -15.040  -3.845  1.00  0.00    -0.266 OA
ENDBRANCH   9  23
TORSDOF 3
ENDMDL
MODEL 2
REMARK VINA RESULT:      -8.4      0.149      1.808
REMARK  3 active torsions:
REMARK  status: ('A' for Active; 'I' for Inactive)
REMARK    1  A    between atoms: C_2  and  N_3 
REMARK       I    between atoms: N_3  and  C_4 
REMARK    2  A    between atoms: C_4  and  C_5 
REMARK    3  A    between atoms: C_20  and  C_21 
REMARK       I    between atoms: C_21  and  N_22 
ROOT
HETATM    1  C   UNL     1      39.821 -15.372   2.030  1.00  0.00     0.032 A 
HETATM    2  C   UNL     1      40.847 -16.047   1.365  1.00  0.00     0.036 A 
HETATM    3  C   UNL     1      41.193 -15.662   0.058  1.00  0.00     0.046 A 
HETATM    4  C   UNL     1      40.501 -14.606  -0.569  1.00  0.00     0.030 A 
HETATM    5  C   UNL     1      39.483 -13.968   0.125  1.00  0.00     0.063 A 
HETATM    6  N   UNL     1      39.006 -13.012  -0.728  1.00  0.00    -0.277 N 
HETATM    7  H   UNL     1      38.253 -12.356  -0.554  1.00  0.00     0.189 HD
HETATM    8  N   UNL     1      39.632 -12.966  -1.917  1.00  0.00    -0.168 NA
HETATM    9  C   UNL     1      40.559 -13.945  -1.832  1.00  0.00     0.156 A 
HETATM   10  C   UNL     1      39.115 -14.321   1.425  1.00  0.00     0.034 A 
ENDROOT
BRANCH   2  11
HETATM   11  N   UNL     1      41.583 -17.116   1.924  1.00  0.00    -0.323 N 
HETATM   12  C   UNL     1      42.881 -17.080   2.399  1.00  0.00     0.256 C 
HETATM   13  O   UNL     1      43.618 -16.104   2.456  1.00  0.00    -0.267 OA
HETATM   14  H   UNL     1      41.062 -17.977   2.031  1.00  0.00     0.169 HD
BRANCH  12  15
HETATM   15  C   UNL     1      43.411 -18.369   2.924  1.00  0.00     0.038 A 
HETATM   16  C   UNL     1      43.651 -18.581   4.281  1.00  0.00     0.061 A 
HETATM   17  C   UNL     1      44.135 -19.821   4.652  1.00  0.00     0.128 A 
HETATM   18 CL   UNL     1      44.468 -20.171   6.298  1.00  0.00    -0.062 Cl
HETATM   19  N   UNL     1      44.384 -20.834   3.805  1.00  0.00    -0.225 NA
HETATM   20  C   UNL     1      44.117 -20.597   2.508  1.00  0.00     0.128 A 
HETATM   21 CL   UNL     1      44.432 -21.919   1.462  1.00  0.00    -0.062 Cl
HETATM   22  C   UNL     1      43.634 -19.403   2.014  1.00  0.00     0.061 A 
ENDBRANCH  12  15
ENDBRANCH   2  11
BRANCH   9  23
HETATM   23  C   UNL     1      41.479 -14.234  -2.940  1.00  0.00     0.270 C 
HETATM   24  N   UNL     1      42.668 -13.560  -2.871  1.00  0.00    -0.365 N 
HETATM   25  H   UNL     1      42.827 -12.936  -2.089  1.00  0.00     0.159 HD
HETATM   26  H   UNL     1      43.367 -13.697  -3.584  1.00  0.00     0.159 HD
HETATM   27  O   UNL     1      41.233 -15.007  -3.861  1.00  0.00    -0.266 OA
ENDBRANCH   9  23
TORSDOF 3
ENDMDL
MODEL 3
REMARK VINA RESULT:      -8.0      3.732      8.233
REMARK  3 active torsions:
REMARK  status: ('A' for Active; 'I' for Inactive)
REMARK    1  A    between atoms: C_2  and  N_3 
REMARK       I    between atoms: N_3  and  C_4 
REMARK    2  A    between atoms: C_4  and  C_5 
REMARK    3  A    between atoms: C_20  and  C_21 
REMARK       I    between atoms: C_21  and  N_22 
ROOT
HETATM    1  C   UNL     1      44.028 -18.985   2.259  1.00  0.00     0.032 A 
HETATM    2  C   UNL     1      43.369 -17.817   2.646  1.00  0.00     0.036 A 
HETATM    3  C   UNL     1      43.108 -17.591   4.009  1.00  0.00     0.046 A 
HETATM    4  C   UNL     1      43.508 -18.545   4.968  1.00  0.00     0.030 A 
HETATM    5  C   UNL     1      44.153 -19.695   4.538  1.00  0.00     0.063 A 
HETATM    6  N   UNL     1      44.405 -20.415   5.672  1.00  0.00    -0.277 N 
HETATM    7  H   UNL     1      44.864 -21.317   5.737  1.00  0.00     0.189 HD
HETATM    8  N   UNL     1      43.987 -19.827   6.807  1.00  0.00    -0.168 NA
HETATM    9  C   UNL     1      43.432 -18.670   6.386  1.00  0.00     0.156 A 
HETATM   10  C   UNL     1      44.431 -19.951   3.194  1.00  0.00     0.034 A 
ENDROOT
BRANCH   2  11
HETATM   11  N   UNL     1      42.934 -16.818   1.746  1.00  0.00    -0.323 N 
HETATM   12  C   UNL     1      41.772 -16.815   0.996  1.00  0.00     0.256 C 
HETATM   13  O   UNL     1      40.889 -17.663   1.003  1.00  0.00    -0.267 OA
HETATM   14  H   UNL     1      43.526 -15.998   1.708  1.00  0.00     0.169 HD
BRANCH  12  15
HETATM   15  C   UNL     1      41.577 -15.630   0.116  1.00  0.00     0.038 A 
HETATM   16  C   UNL     1      41.117 -15.741  -1.195  1.00  0.00     0.061 A 
HETATM   17  C   UNL     1      40.966 -14.570  -1.914  1.00  0.00     0.128 A 
HETATM   18 CL   UNL     1      40.413 -14.609  -3.537  1.00  0.00    -0.062 Cl
HETATM   19  N   UNL     1      41.224 -13.339  -1.441  1.00  0.00    -0.225 NA
HETATM   20  C   UNL     1      41.643 -13.273  -0.165  1.00  0.00     0.128 A 
HETATM   21 CL   UNL     1      41.944 -11.685   0.406  1.00  0.00    -0.062 Cl
HETATM   22  C   UNL     1      41.833 -14.367   0.653  1.00  0.00     0.061 A 
ENDBRANCH  12  15
ENDBRANCH   2  11
BRANCH   9  23
HETATM   23  C   UNL     1      42.845 -17.709   7.330  1.00  0.00     0.270 C 
HETATM   24  N   UNL     1      43.466 -17.671   8.548  1.00  0.00    -0.365 N 
HETATM   25  H   UNL     1      44.258 -18.281   8.709  1.00  0.00     0.159 HD
HETATM   26  H   UNL     1      43.138 -17.037   9.261  1.00  0.00     0.159 HD
HETATM   27  O   UNL     1      41.884 -16.988   7.076  1.00  0.00    -0.266 OA
ENDBRANCH   9  23
TORSDOF 3
ENDMDL
MODEL 4
REMARK VINA RESULT:      -7.9      3.707      8.422
REMARK  3 active torsions:
REMARK  status: ('A' for Active; 'I' for Inactive)
REMARK    1  A    between atoms: C_2  and  N_3 
REMARK       I    between atoms: N_3  and  C_4 
REMARK    2  A    between atoms: C_4  and  C_5 
REMARK    3  A    between atoms: C_20  and  C_21 
REMARK       I    between atoms: C_21  and  N_22 
ROOT
HETATM    1  C   UNL     1      44.039 -19.067   2.255  1.00  0.00     0.032 A 
HETATM    2  C   UNL     1      43.409 -17.888   2.657  1.00  0.00     0.036 A 
HETATM    3  C   UNL     1      43.168 -17.665   4.024  1.00  0.00     0.046 A 
HETATM    4  C   UNL     1      43.557 -18.634   4.972  1.00  0.00     0.030 A 
HETATM    5  C   UNL     1      44.174 -19.795   4.528  1.00  0.00     0.063 A 
HETATM    6  N   UNL     1      44.422 -20.528   5.655  1.00  0.00    -0.277 N 
HETATM    7  H   UNL     1      44.862 -21.439   5.708  1.00  0.00     0.189 HD
HETATM    8  N   UNL     1      44.029 -19.939   6.798  1.00  0.00    -0.168 NA
HETATM    9  C   UNL     1      43.494 -18.767   6.390  1.00  0.00     0.156 A 
HETATM   10  C   UNL     1      44.432 -20.048   3.179  1.00  0.00     0.034 A 
ENDROOT
BRANCH   2  11
HETATM   11  N   UNL     1      42.986 -16.874   1.768  1.00  0.00    -0.323 N 
HETATM   12  C   UNL     1      41.745 -16.748   1.171  1.00  0.00     0.256 C 
HETATM   13  O   UNL     1      40.772 -17.474   1.334  1.00  0.00    -0.267 OA
HETATM   14  H   UNL     1      43.665 -16.139   1.612  1.00  0.00     0.169 HD
BRANCH  12  15
HETATM   15  C   UNL     1      41.583 -15.580   0.262  1.00  0.00     0.038 A 
HETATM   16  C   UNL     1      41.879 -14.277   0.659  1.00  0.00     0.061 A 
HETATM   17  C   UNL     1      41.698 -13.274  -0.274  1.00  0.00     0.128 A 
HETATM   18 CL   UNL     1      42.028 -11.639   0.126  1.00  0.00    -0.062 Cl
HETATM   19  N   UNL     1      41.265 -13.464  -1.532  1.00  0.00    -0.225 NA
HETATM   20  C   UNL     1      41.012 -14.737  -1.883  1.00  0.00     0.128 A 
HETATM   21 CL   UNL     1      40.479 -14.939  -3.500  1.00  0.00    -0.062 Cl
HETATM   22  C   UNL     1      41.153 -15.823  -1.044  1.00  0.00     0.061 A 
ENDBRANCH  12  15
ENDBRANCH   2  11
BRANCH   9  23
HETATM   23  C   UNL     1      42.938 -17.800   7.346  1.00  0.00     0.270 C 
HETATM   24  N   UNL     1      43.567 -17.789   8.561  1.00  0.00    -0.365 N 
HETATM   25  H   UNL     1      44.344 -18.421   8.711  1.00  0.00     0.159 HD
HETATM   26  H   UNL     1      43.260 -17.154   9.282  1.00  0.00     0.159 HD
HETATM   27  O   UNL     1      41.995 -17.052   7.106  1.00  0.00    -0.266 OA
ENDBRANCH   9  23
TORSDOF 3
ENDMDL
MODEL 5
REMARK VINA RESULT:      -7.5      3.653      8.090
REMARK  3 active torsions:
REMARK  status: ('A' for Active; 'I' for Inactive)
REMARK    1  A    between atoms: C_2  and  N_3 
REMARK       I    between atoms: N_3  and  C_4 
REMARK    2  A    between atoms: C_4  and  C_5 
REMARK    3  A    between atoms: C_20  and  C_21 
REMARK       I    between atoms: C_21  and  N_22 
ROOT
HETATM    1  C   UNL     1      43.536 -16.858   4.263  1.00  0.00     0.032 A 
HETATM    2  C   UNL     1      43.362 -17.346   2.966  1.00  0.00     0.036 A 
HETATM    3  C   UNL     1      43.610 -18.704   2.701  1.00  0.00     0.046 A 
HETATM    4  C   UNL     1      44.034 -19.556   3.741  1.00  0.00     0.030 A 
HETATM    5  C   UNL     1      44.201 -19.028   5.013  1.00  0.00     0.063 A 
HETATM    6  N   UNL     1      44.617 -20.074   5.789  1.00  0.00    -0.277 N 
HETATM    7  H   UNL     1      44.840 -20.054   6.777  1.00  0.00     0.189 HD
HETATM    8  N   UNL     1      44.726 -21.243   5.133  1.00  0.00    -0.168 NA
HETATM    9  C   UNL     1      44.368 -20.937   3.866  1.00  0.00     0.156 A 
HETATM   10  C   UNL     1      43.962 -17.686   5.314  1.00  0.00     0.034 A 
ENDROOT
BRANCH   2  11
HETATM   11  N   UNL     1      42.944 -16.555   1.873  1.00  0.00    -0.323 N 
HETATM   12  C   UNL     1      41.647 -16.332   1.449  1.00  0.00     0.256 C 
HETATM   13  O   UNL     1      40.620 -16.752   1.967  1.00  0.00    -0.267 OA
HETATM   14  H   UNL     1      43.690 -16.060   1.400  1.00  0.00     0.169 HD
BRANCH  12  15
HETATM   15  C   UNL     1      41.502 -15.460   0.251  1.00  0.00     0.038 A 
HETATM   16  C   UNL     1      41.898 -14.124   0.247  1.00  0.00     0.061 A 
HETATM   17  C   UNL     1      41.723 -13.414  -0.926  1.00  0.00     0.128 A 
HETATM   18 CL   UNL     1      42.174 -11.762  -1.023  1.00  0.00    -0.062 Cl
HETATM   19  N   UNL     1      41.205 -13.919  -2.059  1.00  0.00    -0.225 NA
HETATM   20  C   UNL     1      40.857 -15.217  -2.022  1.00  0.00     0.128 A 
HETATM   21 CL   UNL     1      40.218 -15.828  -3.491  1.00  0.00    -0.062 Cl
HETATM   22  C   UNL     1      40.982 -16.029  -0.913  1.00  0.00     0.061 A 
ENDBRANCH  12  15
ENDBRANCH   2  11
BRANCH   9  23
HETATM   23  C   UNL     1      44.346 -21.953   2.805  1.00  0.00     0.270 C 
HETATM   24  N   UNL     1      43.595 -21.608   1.715  1.00  0.00    -0.365 N 
HETATM   25  H   UNL     1      43.128 -20.710   1.712  1.00  0.00     0.159 HD
HETATM   26  H   UNL     1      43.525 -22.239   0.932  1.00  0.00     0.159 HD
HETATM   27  O   UNL     1      44.940 -23.026   2.861  1.00  0.00    -0.266 OA
ENDBRANCH   9  23
TORSDOF 3
ENDMDL
MODEL 6
REMARK VINA RESULT:      -7.5      4.685      5.601
REMARK  3 active torsions:
REMARK  status: ('A' for Active; 'I' for Inactive)
REMARK    1  A    between atoms: C_2  and  N_3 
REMARK       I    between atoms: N_3  and  C_4 
REMARK    2  A    between atoms: C_4  and  C_5 
REMARK    3  A    between atoms: C_20  and  C_21 
REMARK       I    between atoms: C_21  and  N_22 
ROOT
HETATM    1  C   UNL     1      44.673 -15.594   6.553  1.00  0.00     0.032 A 
HETATM    2  C   UNL     1      43.749 -16.236   5.725  1.00  0.00     0.036 A 
HETATM    3  C   UNL     1      42.570 -15.566   5.356  1.00  0.00     0.046 A 
HETATM    4  C   UNL     1      42.330 -14.259   5.826  1.00  0.00     0.030 A 
HETATM    5  C   UNL     1      43.271 -13.661   6.652  1.00  0.00     0.063 A 
HETATM    6  N   UNL     1      42.765 -12.425   6.944  1.00  0.00    -0.277 N 
HETATM    7  H   UNL     1      43.187 -11.712   7.529  1.00  0.00     0.189 HD
HETATM    8  N   UNL     1      41.578 -12.161   6.370  1.00  0.00    -0.168 NA
HETATM    9  C   UNL     1      41.298 -13.286   5.676  1.00  0.00     0.156 A 
HETATM   10  C   UNL     1      44.453 -14.295   7.037  1.00  0.00     0.034 A 
ENDROOT
BRANCH   2  11
HETATM   11  N   UNL     1      43.918 -17.544   5.218  1.00  0.00    -0.323 N 
HETATM   12  C   UNL     1      43.962 -17.927   3.890  1.00  0.00     0.256 C 
HETATM   13  O   UNL     1      43.901 -17.196   2.910  1.00  0.00    -0.267 OA
HETATM   14  H   UNL     1      44.079 -18.253   5.922  1.00  0.00     0.169 HD
BRANCH  12  15
HETATM   15  C   UNL     1      44.137 -19.385   3.645  1.00  0.00     0.038 A 
HETATM   16  C   UNL     1      43.928 -19.964   2.395  1.00  0.00     0.061 A 
HETATM   17  C   UNL     1      44.128 -21.327   2.285  1.00  0.00     0.128 A 
HETATM   18 CL   UNL     1      43.888 -22.128   0.788  1.00  0.00    -0.062 Cl
HETATM   19  N   UNL     1      44.515 -22.130   3.291  1.00  0.00    -0.225 NA
HETATM   20  C   UNL     1      44.729 -21.530   4.476  1.00  0.00     0.128 A 
HETATM   21 CL   UNL     1      45.238 -22.584   5.729  1.00  0.00    -0.062 Cl
HETATM   22  C   UNL     1      44.562 -20.181   4.711  1.00  0.00     0.061 A 
ENDBRANCH  12  15
ENDBRANCH   2  11
BRANCH   9  23
HETATM   23  C   UNL     1      40.066 -13.417   4.885  1.00  0.00     0.270 C 
HETATM   24  N   UNL     1      39.205 -14.375   5.344  1.00  0.00    -0.365 N 
HETATM   25  H   UNL     1      39.463 -14.905   6.168  1.00  0.00     0.159 HD
HETATM   26  H   UNL     1      38.330 -14.535   4.871  1.00  0.00     0.159 HD
HETATM   27  O   UNL     1      39.804 -12.739   3.895  1.00  0.00    -0.266 OA
ENDBRANCH   9  23
TORSDOF 3
ENDMDL
MODEL 7
REMARK VINA RESULT:      -7.4      4.297      8.461
REMARK  3 active torsions:
REMARK  status: ('A' for Active; 'I' for Inactive)
REMARK    1  A    between atoms: C_2  and  N_3 
REMARK       I    between atoms: N_3  and  C_4 
REMARK    2  A    between atoms: C_4  and  C_5 
REMARK    3  A    between atoms: C_20  and  C_21 
REMARK       I    between atoms: C_21  and  N_22 
ROOT
HETATM    1  C   UNL     1      42.993 -18.357   1.971  1.00  0.00     0.032 A 
HETATM    2  C   UNL     1      42.375 -17.644   3.000  1.00  0.00     0.036 A 
HETATM    3  C   UNL     1      42.631 -17.999   4.336  1.00  0.00     0.046 A 
HETATM    4  C   UNL     1      43.500 -19.071   4.623  1.00  0.00     0.030 A 
HETATM    5  C   UNL     1      44.087 -19.757   3.570  1.00  0.00     0.063 A 
HETATM    6  N   UNL     1      44.856 -20.726   4.151  1.00  0.00    -0.277 N 
HETATM    7  H   UNL     1      45.427 -21.420   3.682  1.00  0.00     0.189 HD
HETATM    8  N   UNL     1      44.829 -20.724   5.496  1.00  0.00    -0.168 NA
HETATM    9  C   UNL     1      43.995 -19.705   5.801  1.00  0.00     0.156 A 
HETATM   10  C   UNL     1      43.859 -19.431   2.232  1.00  0.00     0.034 A 
ENDROOT
BRANCH   2  11
HETATM   11  N   UNL     1      41.490 -16.562   2.792  1.00  0.00    -0.323 N 
HETATM   12  C   UNL     1      41.801 -15.214   2.791  1.00  0.00     0.256 C 
HETATM   13  O   UNL     1      42.910 -14.714   2.933  1.00  0.00    -0.267 OA
HETATM   14  H   UNL     1      40.542 -16.830   2.564  1.00  0.00     0.169 HD
BRANCH  12  15
HETATM   15  C   UNL     1      40.659 -14.289   2.557  1.00  0.00     0.038 A 
HETATM   16  C   UNL     1      39.570 -14.634   1.758  1.00  0.00     0.061 A 
HETATM   17  C   UNL     1      38.563 -13.697   1.620  1.00  0.00     0.128 A 
HETATM   18 CL   UNL     1      37.188 -14.029   0.650  1.00  0.00    -0.062 Cl
HETATM   19  N   UNL     1      38.555 -12.486   2.204  1.00  0.00    -0.225 NA
HETATM   20  C   UNL     1      39.612 -12.201   2.986  1.00  0.00     0.128 A 
HETATM   21 CL   UNL     1      39.556 -10.656   3.726  1.00  0.00    -0.062 Cl
HETATM   22  C   UNL     1      40.678 -13.051   3.200  1.00  0.00     0.061 A 
ENDBRANCH  12  15
ENDBRANCH   2  11
BRANCH   9  23
HETATM   23  C   UNL     1      43.687 -19.351   7.193  1.00  0.00     0.270 C 
HETATM   24  N   UNL     1      43.631 -20.422   8.043  1.00  0.00    -0.365 N 
HETATM   25  H   UNL     1      43.801 -21.348   7.669  1.00  0.00     0.159 HD
HETATM   26  H   UNL     1      43.431 -20.279   9.021  1.00  0.00     0.159 HD
HETATM   27  O   UNL     1      43.495 -18.206   7.590  1.00  0.00    -0.266 OA
ENDBRANCH   9  23
TORSDOF 3
ENDMDL
MODEL 8
REMARK VINA RESULT:      -7.4      3.707      8.013
REMARK  3 active torsions:
REMARK  status: ('A' for Active; 'I' for Inactive)
REMARK    1  A    between atoms: C_2  and  N_3 
REMARK       I    between atoms: N_3  and  C_4 
REMARK    2  A    between atoms: C_4  and  C_5 
REMARK    3  A    between atoms: C_20  and  C_21 
REMARK       I    between atoms: C_21  and  N_22 
ROOT
HETATM    1  C   UNL     1      42.036 -15.961   5.553  1.00  0.00     0.032 A 
HETATM    2  C   UNL     1      42.492 -16.511   4.354  1.00  0.00     0.036 A 
HETATM    3  C   UNL     1      43.171 -17.742   4.373  1.00  0.00     0.046 A 
HETATM    4  C   UNL     1      43.390 -18.404   5.598  1.00  0.00     0.030 A 
HETATM    5  C   UNL     1      42.926 -17.817   6.767  1.00  0.00     0.063 A 
HETATM    6  N   UNL     1      43.287 -18.674   7.770  1.00  0.00    -0.277 N 
HETATM    7  H   UNL     1      43.113 -18.563   8.762  1.00  0.00     0.189 HD
HETATM    8  N   UNL     1      43.937 -19.774   7.353  1.00  0.00    -0.168 NA
HETATM    9  C   UNL     1      44.007 -19.621   6.013  1.00  0.00     0.156 A 
HETATM   10  C   UNL     1      42.246 -16.599   6.786  1.00  0.00     0.034 A 
ENDROOT
BRANCH   2  11
HETATM   11  N   UNL     1      42.315 -15.906   3.088  1.00  0.00    -0.323 N 
HETATM   12  C   UNL     1      41.361 -16.219   2.137  1.00  0.00     0.256 C 
HETATM   13  O   UNL     1      40.471 -17.054   2.235  1.00  0.00    -0.267 OA
HETATM   14  H   UNL     1      42.929 -15.123   2.905  1.00  0.00     0.169 HD
BRANCH  12  15
HETATM   15  C   UNL     1      41.418 -15.423   0.881  1.00  0.00     0.038 A 
HETATM   16  C   UNL     1      41.149 -15.978  -0.369  1.00  0.00     0.061 A 
HETATM   17  C   UNL     1      41.225 -15.138  -1.464  1.00  0.00     0.128 A 
HETATM   18 CL   UNL     1      40.918 -15.734  -3.043  1.00  0.00    -0.062 Cl
HETATM   19  N   UNL     1      41.532 -13.831  -1.411  1.00  0.00    -0.225 NA
HETATM   20  C   UNL     1      41.762 -13.328  -0.185  1.00  0.00     0.128 A 
HETATM   21 CL   UNL     1      42.133 -11.655  -0.157  1.00  0.00    -0.062 Cl
HETATM   22  C   UNL     1      41.718 -14.063   0.982  1.00  0.00     0.061 A 
ENDBRANCH  12  15
ENDBRANCH   2  11
BRANCH   9  23
HETATM   23  C   UNL     1      44.650 -20.625   5.154  1.00  0.00     0.270 C 
HETATM   24  N   UNL     1      44.571 -21.904   5.633  1.00  0.00    -0.365 N 
HETATM   25  H   UNL     1      44.091 -22.065   6.510  1.00  0.00     0.159 HD
HETATM   26  H   UNL     1      44.979 -22.663   5.110  1.00  0.00     0.159 HD
HETATM   27  O   UNL     1      45.214 -20.370   4.094  1.00  0.00    -0.266 OA
ENDBRANCH   9  23
TORSDOF 3
ENDMDL
MODEL 9
REMARK VINA RESULT:      -7.4      2.444      3.544
REMARK  3 active torsions:
REMARK  status: ('A' for Active; 'I' for Inactive)
REMARK    1  A    between atoms: C_2  and  N_3 
REMARK       I    between atoms: N_3  and  C_4 
REMARK    2  A    between atoms: C_4  and  C_5 
REMARK    3  A    between atoms: C_20  and  C_21 
REMARK       I    between atoms: C_21  and  N_22 
ROOT
HETATM    1  C   UNL     1      42.131 -14.262   4.635  1.00  0.00     0.032 A 
HETATM    2  C   UNL     1      41.746 -15.361   3.864  1.00  0.00     0.036 A 
HETATM    3  C   UNL     1      40.734 -15.208   2.900  1.00  0.00     0.046 A 
HETATM    4  C   UNL     1      40.116 -13.953   2.724  1.00  0.00     0.030 A 
HETATM    5  C   UNL     1      40.524 -12.890   3.517  1.00  0.00     0.063 A 
HETATM    6  N   UNL     1      39.753 -11.830   3.127  1.00  0.00    -0.277 N 
HETATM    7  H   UNL     1      39.776 -10.887   3.496  1.00  0.00     0.189 HD
HETATM    8  N   UNL     1      38.883 -12.110   2.140  1.00  0.00    -0.168 NA
HETATM    9  C   UNL     1      39.098 -13.419   1.881  1.00  0.00     0.156 A 
HETATM   10  C   UNL     1      41.526 -13.004   4.481  1.00  0.00     0.034 A 
ENDROOT
BRANCH   2  11
HETATM   11  N   UNL     1      42.315 -16.649   3.984  1.00  0.00    -0.323 N 
HETATM   12  C   UNL     1      43.318 -17.197   3.205  1.00  0.00     0.256 C 
HETATM   13  O   UNL     1      43.921 -16.651   2.290  1.00  0.00    -0.267 OA
HETATM   14  H   UNL     1      41.976 -17.189   4.770  1.00  0.00     0.169 HD
BRANCH  12  15
HETATM   15  C   UNL     1      43.714 -18.590   3.551  1.00  0.00     0.038 A 
HETATM   16  C   UNL     1      43.777 -19.043   4.868  1.00  0.00     0.061 A 
HETATM   17  C   UNL     1      44.150 -20.359   5.067  1.00  0.00     0.128 A 
HETATM   18 CL   UNL     1      44.264 -21.004   6.652  1.00  0.00    -0.062 Cl
HETATM   19  N   UNL     1      44.447 -21.230   4.088  1.00  0.00    -0.225 NA
HETATM   20  C   UNL     1      44.351 -20.761   2.831  1.00  0.00     0.128 A 
HETATM   21 CL   UNL     1      44.721 -21.907   1.611  1.00  0.00    -0.062 Cl
HETATM   22  C   UNL     1      43.992 -19.470   2.504  1.00  0.00     0.061 A 
ENDBRANCH  12  15
ENDBRANCH   2  11
BRANCH   9  23
HETATM   23  C   UNL     1      38.341 -14.133   0.844  1.00  0.00     0.270 C 
HETATM   24  N   UNL     1      39.082 -14.475  -0.254  1.00  0.00    -0.365 N 
HETATM   25  H   UNL     1      40.063 -14.225  -0.275  1.00  0.00     0.159 HD
HETATM   26  H   UNL     1      38.651 -14.974  -1.017  1.00  0.00     0.159 HD
HETATM   27  O   UNL     1      37.150 -14.415   0.927  1.00  0.00    -0.266 OA
ENDBRANCH   9  23
TORSDOF 3
ENDMDL
MODEL 10
REMARK VINA RESULT:      -7.3      4.943      8.317
REMARK  3 active torsions:
REMARK  status: ('A' for Active; 'I' for Inactive)
REMARK    1  A    between atoms: C_2  and  N_3 
REMARK       I    between atoms: N_3  and  C_4 
REMARK    2  A    between atoms: C_4  and  C_5 
REMARK    3  A    between atoms: C_20  and  C_21 
REMARK       I    between atoms: C_21  and  N_22 
ROOT
HETATM    1  C   UNL     1      42.562 -17.103   1.961  1.00  0.00     0.032 A 
HETATM    2  C   UNL     1      42.228 -16.810   3.285  1.00  0.00     0.036 A 
HETATM    3  C   UNL     1      42.713 -17.632   4.317  1.00  0.00     0.046 A 
HETATM    4  C   UNL     1      43.522 -18.744   4.008  1.00  0.00     0.030 A 
HETATM    5  C   UNL     1      43.822 -19.003   2.678  1.00  0.00     0.063 A 
HETATM    6  N   UNL     1      44.602 -20.126   2.695  1.00  0.00    -0.277 N 
HETATM    7  H   UNL     1      45.003 -20.606   1.897  1.00  0.00     0.189 HD
HETATM    8  N   UNL     1      44.845 -20.616   3.924  1.00  0.00    -0.168 NA
HETATM    9  C   UNL     1      44.184 -19.770   4.744  1.00  0.00     0.156 A 
HETATM   10  C   UNL     1      43.362 -18.207   1.628  1.00  0.00     0.034 A 
ENDROOT
BRANCH   2  11
HETATM   11  N   UNL     1      41.420 -15.717   3.673  1.00  0.00    -0.323 N 
HETATM   12  C   UNL     1      41.806 -14.396   3.804  1.00  0.00     0.256 C 
HETATM   13  O   UNL     1      42.912 -13.925   3.570  1.00  0.00    -0.267 OA
HETATM   14  H   UNL     1      40.443 -15.942   3.809  1.00  0.00     0.169 HD
BRANCH  12  15
HETATM   15  C   UNL     1      40.741 -13.454   4.245  1.00  0.00     0.038 A 
HETATM   16  C   UNL     1      39.951 -12.742   3.344  1.00  0.00     0.061 A 
HETATM   17  C   UNL     1      38.987 -11.904   3.870  1.00  0.00     0.128 A 
HETATM   18 CL   UNL     1      37.974 -10.981   2.838  1.00  0.00    -0.062 Cl
HETATM   19  N   UNL     1      38.753 -11.731   5.182  1.00  0.00    -0.225 NA
HETATM   20  C   UNL     1      39.519 -12.454   6.019  1.00  0.00     0.128 A 
HETATM   21 CL   UNL     1      39.177 -12.219   7.682  1.00  0.00    -0.062 Cl
HETATM   22  C   UNL     1      40.513 -13.321   5.616  1.00  0.00     0.061 A 
ENDBRANCH  12  15
ENDBRANCH   2  11
BRANCH   9  23
HETATM   23  C   UNL     1      44.194 -19.947   6.203  1.00  0.00     0.270 C 
HETATM   24  N   UNL     1      43.853 -21.206   6.616  1.00  0.00    -0.365 N 
HETATM   25  H   UNL     1      43.630 -21.903   5.916  1.00  0.00     0.159 HD
HETATM   26  H   UNL     1      43.838 -21.426   7.600  1.00  0.00     0.159 HD
HETATM   27  O   UNL     1      44.479 -19.064   7.006  1.00  0.00    -0.266 OA
ENDBRANCH   9  23
TORSDOF 3
ENDMDL
