MODEL 1
REMARK VINA RESULT:      -7.9      0.000      0.000
REMARK  5 active torsions:
REMARK  status: ('A' for Active; 'I' for Inactive)
REMARK    1  A    between atoms: C_4  and  N_5 
REMARK       I    between atoms: N_5  and  C_6 
REMARK    2  A    between atoms: C_6  and  C_7 
REMARK    3  A    between atoms: C_7  and  N_8 
REMARK    4  A    between atoms: N_8  and  C_11 
REMARK    5  A    between atoms: C_11  and  C_12 
ROOT
HETATM    1  N   UNL     1      44.111 -18.316   5.728  1.00  0.00    -0.324 N 
HETATM    2  C   UNL     1      43.091 -17.853   6.516  1.00  0.00     0.248 C 
HETATM    3  O   UNL     1      41.909 -17.716   6.211  1.00  0.00    -0.271 OA
HETATM    4  H   UNL     1      45.078 -18.316   6.064  1.00  0.00     0.169 HD
ENDROOT
BRANCH   1   5
HETATM    5  C   UNL     1      44.051 -18.754   4.379  1.00  0.00     0.065 A 
HETATM    6  C   UNL     1      43.788 -17.908   3.295  1.00  0.00     0.038 A 
HETATM    7  C   UNL     1      43.749 -18.422   1.995  1.00  0.00    -0.059 A 
HETATM    8  C   UNL     1      43.464 -17.531   0.820  1.00  0.00     0.048 C 
HETATM    9  C   UNL     1      43.982 -19.786   1.793  1.00  0.00     0.020 A 
HETATM   10  C   UNL     1      44.246 -20.638   2.877  1.00  0.00    -0.005 A 
HETATM   11  C   UNL     1      44.279 -20.125   4.189  1.00  0.00     0.093 A 
HETATM   12  C   UNL     1      44.488 -22.005   2.699  1.00  0.00     0.015 A 
HETATM   13  N   UNL     1      44.530 -20.908   5.268  1.00  0.00    -0.258 NA
HETATM   14  C   UNL     1      44.759 -22.224   5.049  1.00  0.00     0.117 A 
HETATM   15  C   UNL     1      44.749 -22.812   3.799  1.00  0.00     0.020 A 
ENDBRANCH   1   5
BRANCH   2  16
HETATM   16  C   UNL     1      43.531 -17.448   7.924  1.00  0.00     0.335 C 
BRANCH  16  17
HETATM   17  N   UNL     1      43.581 -15.943   8.061  1.00  0.00    -0.059 N 
HETATM   18  H   UNL     1      42.635 -15.542   8.133  1.00  0.00     0.278 HD
HETATM   19  H   UNL     1      44.055 -15.747   8.963  1.00  0.00     0.278 HD
BRANCH  17  20
HETATM   20  C   UNL     1      44.380 -15.218   6.980  1.00  0.00     0.349 C 
BRANCH  20  21
HETATM   21  C   UNL     1      44.610 -13.747   7.343  1.00  0.00     0.411 C 
HETATM   22  F   UNL     1      45.814 -13.356   6.865  1.00  0.00    -0.169 F 
HETATM   23  F   UNL     1      43.670 -12.976   6.756  1.00  0.00    -0.169 F 
HETATM   24  F   UNL     1      44.582 -13.546   8.669  1.00  0.00    -0.169 F 
ENDBRANCH  20  21
ENDBRANCH  17  20
ENDBRANCH  16  17
ENDBRANCH   2  16
TORSDOF 5
ENDMDL
MODEL 2
REMARK VINA RESULT:      -7.7      4.229      5.991
REMARK  5 active torsions:
REMARK  status: ('A' for Active; 'I' for Inactive)
REMARK    1  A    between atoms: C_4  and  N_5 
REMARK       I    between atoms: N_5  and  C_6 
REMARK    2  A    between atoms: C_6  and  C_7 
REMARK    3  A    between atoms: C_7  and  N_8 
REMARK    4  A    between atoms: N_8  and  C_11 
REMARK    5  A    between atoms: C_11  and  C_12 
ROOT
HETATM    1  N   UNL     1      42.958 -17.060   1.874  1.00  0.00    -0.324 N 
HETATM    2  C   UNL     1      41.748 -16.889   1.257  1.00  0.00     0.248 C 
HETATM    3  O   UNL     1      40.855 -17.721   1.112  1.00  0.00    -0.271 OA
HETATM    4  H   UNL     1      43.661 -16.316   1.869  1.00  0.00     0.169 HD
ENDROOT
BRANCH   1   5
HETATM    5  C   UNL     1      43.470 -18.226   2.501  1.00  0.00     0.065 A 
HETATM    6  C   UNL     1      43.659 -19.446   1.843  1.00  0.00     0.038 A 
HETATM    7  C   UNL     1      44.171 -20.548   2.535  1.00  0.00    -0.059 A 
HETATM    8  C   UNL     1      44.376 -21.867   1.847  1.00  0.00     0.048 C 
HETATM    9  C   UNL     1      44.496 -20.412   3.888  1.00  0.00     0.020 A 
HETATM   10  C   UNL     1      44.309 -19.190   4.553  1.00  0.00    -0.005 A 
HETATM   11  C   UNL     1      43.786 -18.080   3.860  1.00  0.00     0.093 A 
HETATM   12  C   UNL     1      44.632 -19.029   5.906  1.00  0.00     0.015 A 
HETATM   13  N   UNL     1      43.587 -16.879   4.459  1.00  0.00    -0.258 NA
HETATM   14  C   UNL     1      43.915 -16.768   5.767  1.00  0.00     0.117 A 
HETATM   15  C   UNL     1      44.434 -17.800   6.524  1.00  0.00     0.020 A 
ENDBRANCH   1   5
BRANCH   2  16
HETATM   16  C   UNL     1      41.543 -15.492   0.670  1.00  0.00     0.335 C 
BRANCH  16  17
HETATM   17  N   UNL     1      40.250 -15.419  -0.110  1.00  0.00    -0.059 N 
HETATM   18  H   UNL     1      40.417 -15.527  -1.121  1.00  0.00     0.278 HD
HETATM   19  H   UNL     1      39.683 -16.237   0.185  1.00  0.00     0.278 HD
BRANCH  17  20
HETATM   20  C   UNL     1      39.400 -14.178   0.155  1.00  0.00     0.349 C 
BRANCH  20  21
HETATM   21  C   UNL     1      38.386 -14.421   1.279  1.00  0.00     0.411 C 
HETATM   22  F   UNL     1      38.473 -13.416   2.180  1.00  0.00    -0.169 F 
HETATM   23  F   UNL     1      37.133 -14.409   0.776  1.00  0.00    -0.169 F 
HETATM   24  F   UNL     1      38.600 -15.587   1.905  1.00  0.00    -0.169 F 
ENDBRANCH  20  21
ENDBRANCH  17  20
ENDBRANCH  16  17
ENDBRANCH   2  16
TORSDOF 5
ENDMDL
MODEL 3
REMARK VINA RESULT:      -7.7      3.135      4.529
REMARK  5 active torsions:
REMARK  status: ('A' for Active; 'I' for Inactive)
REMARK    1  A    between atoms: C_4  and  N_5 
REMARK       I    between atoms: N_5  and  C_6 
REMARK    2  A    between atoms: C_6  and  C_7 
REMARK    3  A    between atoms: C_7  and  N_8 
REMARK    4  A    between atoms: N_8  and  C_11 
REMARK    5  A    between atoms: C_11  and  C_12 
ROOT
HETATM    1  N   UNL     1      41.755 -17.574   2.569  1.00  0.00    -0.324 N 
HETATM    2  C   UNL     1      41.757 -16.667   1.544  1.00  0.00     0.248 C 
HETATM    3  O   UNL     1      42.605 -16.528   0.665  1.00  0.00    -0.271 OA
HETATM    4  H   UNL     1      41.032 -17.549   3.293  1.00  0.00     0.169 HD
ENDROOT
BRANCH   1   5
HETATM    5  C   UNL     1      42.720 -18.574   2.862  1.00  0.00     0.065 A 
HETATM    6  C   UNL     1      42.961 -19.686   2.049  1.00  0.00     0.038 A 
HETATM    7  C   UNL     1      43.934 -20.625   2.410  1.00  0.00    -0.059 A 
HETATM    8  C   UNL     1      44.204 -21.828   1.552  1.00  0.00     0.048 C 
HETATM    9  C   UNL     1      44.663 -20.433   3.588  1.00  0.00     0.020 A 
HETATM   10  C   UNL     1      44.423 -19.317   4.406  1.00  0.00    -0.005 A 
HETATM   11  C   UNL     1      43.440 -18.375   4.049  1.00  0.00     0.093 A 
HETATM   12  C   UNL     1      45.144 -19.102   5.587  1.00  0.00     0.015 A 
HETATM   13  N   UNL     1      43.173 -17.282   4.808  1.00  0.00    -0.258 NA
HETATM   14  C   UNL     1      43.894 -17.112   5.940  1.00  0.00     0.117 A 
HETATM   15  C   UNL     1      44.878 -17.983   6.367  1.00  0.00     0.020 A 
ENDBRANCH   1   5
BRANCH   2  16
HETATM   16  C   UNL     1      40.556 -15.719   1.552  1.00  0.00     0.335 C 
BRANCH  16  17
HETATM   17  N   UNL     1      39.843 -15.763   2.884  1.00  0.00    -0.059 N 
HETATM   18  H   UNL     1      38.868 -16.076   2.777  1.00  0.00     0.278 HD
HETATM   19  H   UNL     1      40.325 -16.487   3.451  1.00  0.00     0.278 HD
BRANCH  17  20
HETATM   20  C   UNL     1      39.896 -14.468   3.692  1.00  0.00     0.349 C 
BRANCH  20  21
HETATM   21  C   UNL     1      40.481 -14.701   5.090  1.00  0.00     0.411 C 
HETATM   22  F   UNL     1      41.794 -14.373   5.081  1.00  0.00    -0.169 F 
HETATM   23  F   UNL     1      39.868 -13.897   5.984  1.00  0.00    -0.169 F 
HETATM   24  F   UNL     1      40.355 -15.977   5.481  1.00  0.00    -0.169 F 
ENDBRANCH  20  21
ENDBRANCH  17  20
ENDBRANCH  16  17
ENDBRANCH   2  16
TORSDOF 5
ENDMDL
MODEL 4
REMARK VINA RESULT:      -7.7      5.079      6.944
REMARK  5 active torsions:
REMARK  status: ('A' for Active; 'I' for Inactive)
REMARK    1  A    between atoms: C_4  and  N_5 
REMARK       I    between atoms: N_5  and  C_6 
REMARK    2  A    between atoms: C_6  and  C_7 
REMARK    3  A    between atoms: C_7  and  N_8 
REMARK    4  A    between atoms: N_8  and  C_11 
REMARK    5  A    between atoms: C_11  and  C_12 
ROOT
HETATM    1  N   UNL     1      42.829 -17.119   1.831  1.00  0.00    -0.324 N 
HETATM    2  C   UNL     1      41.563 -16.944   1.342  1.00  0.00     0.248 C 
HETATM    3  O   UNL     1      40.643 -17.760   1.329  1.00  0.00    -0.271 OA
HETATM    4  H   UNL     1      43.542 -16.393   1.719  1.00  0.00     0.169 HD
ENDROOT
BRANCH   1   5
HETATM    5  C   UNL     1      43.384 -18.273   2.445  1.00  0.00     0.065 A 
HETATM    6  C   UNL     1      43.581 -19.490   1.783  1.00  0.00     0.038 A 
HETATM    7  C   UNL     1      44.137 -20.579   2.463  1.00  0.00    -0.059 A 
HETATM    8  C   UNL     1      44.352 -21.895   1.771  1.00  0.00     0.048 C 
HETATM    9  C   UNL     1      44.498 -20.433   3.806  1.00  0.00     0.020 A 
HETATM   10  C   UNL     1      44.302 -19.213   4.473  1.00  0.00    -0.005 A 
HETATM   11  C   UNL     1      43.735 -18.117   3.794  1.00  0.00     0.093 A 
HETATM   12  C   UNL     1      44.660 -19.042   5.816  1.00  0.00     0.015 A 
HETATM   13  N   UNL     1      43.527 -16.919   4.396  1.00  0.00    -0.258 NA
HETATM   14  C   UNL     1      43.889 -16.798   5.695  1.00  0.00     0.117 A 
HETATM   15  C   UNL     1      44.452 -17.817   6.438  1.00  0.00     0.020 A 
ENDBRANCH   1   5
BRANCH   2  16
HETATM   16  C   UNL     1      41.321 -15.565   0.726  1.00  0.00     0.335 C 
BRANCH  16  17
HETATM   17  N   UNL     1      41.669 -15.563  -0.745  1.00  0.00    -0.059 N 
HETATM   18  H   UNL     1      42.613 -15.184  -0.905  1.00  0.00     0.278 HD
HETATM   19  H   UNL     1      41.695 -16.558  -1.041  1.00  0.00     0.278 HD
BRANCH  17  20
HETATM   20  C   UNL     1      40.659 -14.862  -1.651  1.00  0.00     0.349 C 
BRANCH  20  21
HETATM   21  C   UNL     1      40.701 -15.422  -3.078  1.00  0.00     0.411 C 
HETATM   22  F   UNL     1      39.985 -14.613  -3.892  1.00  0.00    -0.169 F 
HETATM   23  F   UNL     1      41.972 -15.431  -3.530  1.00  0.00    -0.169 F 
HETATM   24  F   UNL     1      40.198 -16.663  -3.146  1.00  0.00    -0.169 F 
ENDBRANCH  20  21
ENDBRANCH  17  20
ENDBRANCH  16  17
ENDBRANCH   2  16
TORSDOF 5
ENDMDL
MODEL 5
REMARK VINA RESULT:      -7.6      4.503      5.804
REMARK  5 active torsions:
REMARK  status: ('A' for Active; 'I' for Inactive)
REMARK    1  A    between atoms: C_4  and  N_5 
REMARK       I    between atoms: N_5  and  C_6 
REMARK    2  A    between atoms: C_6  and  C_7 
REMARK    3  A    between atoms: C_7  and  N_8 
REMARK    4  A    between atoms: N_8  and  C_11 
REMARK    5  A    between atoms: C_11  and  C_12 
ROOT
HETATM    1  N   UNL     1      42.419 -17.596   2.544  1.00  0.00    -0.324 N 
HETATM    2  C   UNL     1      41.240 -16.950   2.806  1.00  0.00     0.248 C 
HETATM    3  O   UNL     1      40.686 -16.809   3.894  1.00  0.00    -0.271 OA
HETATM    4  H   UNL     1      42.750 -17.720   1.584  1.00  0.00     0.169 HD
ENDROOT
BRANCH   1   5
HETATM    5  C   UNL     1      43.287 -18.249   3.459  1.00  0.00     0.065 A 
HETATM    6  C   UNL     1      43.764 -17.662   4.636  1.00  0.00     0.038 A 
HETATM    7  C   UNL     1      44.615 -18.378   5.484  1.00  0.00    -0.059 A 
HETATM    8  C   UNL     1      45.141 -17.763   6.750  1.00  0.00     0.048 C 
HETATM    9  C   UNL     1      44.977 -19.685   5.144  1.00  0.00     0.020 A 
HETATM   10  C   UNL     1      44.500 -20.278   3.964  1.00  0.00    -0.005 A 
HETATM   11  C   UNL     1      43.648 -19.557   3.104  1.00  0.00     0.093 A 
HETATM   12  C   UNL     1      44.843 -21.587   3.606  1.00  0.00     0.015 A 
HETATM   13  N   UNL     1      43.162 -20.087   1.953  1.00  0.00    -0.258 NA
HETATM   14  C   UNL     1      43.519 -21.356   1.646  1.00  0.00     0.117 A 
HETATM   15  C   UNL     1      44.347 -22.137   2.430  1.00  0.00     0.020 A 
ENDBRANCH   1   5
BRANCH   2  16
HETATM   16  C   UNL     1      40.558 -16.378   1.563  1.00  0.00     0.335 C 
BRANCH  16  17
HETATM   17  N   UNL     1      39.168 -15.882   1.890  1.00  0.00    -0.059 N 
HETATM   18  H   UNL     1      38.454 -16.372   1.332  1.00  0.00     0.278 HD
HETATM   19  H   UNL     1      38.993 -16.135   2.882  1.00  0.00     0.278 HD
BRANCH  17  20
HETATM   20  C   UNL     1      38.975 -14.371   1.783  1.00  0.00     0.349 C 
BRANCH  20  21
HETATM   21  C   UNL     1      37.846 -14.017   0.807  1.00  0.00     0.411 C 
HETATM   22  F   UNL     1      36.775 -14.802   1.065  1.00  0.00    -0.169 F 
HETATM   23  F   UNL     1      37.465 -12.735   0.993  1.00  0.00    -0.169 F 
HETATM   24  F   UNL     1      38.214 -14.189  -0.471  1.00  0.00    -0.169 F 
ENDBRANCH  20  21
ENDBRANCH  17  20
ENDBRANCH  16  17
ENDBRANCH   2  16
TORSDOF 5
ENDMDL
MODEL 6
REMARK VINA RESULT:      -7.5      1.911      3.444
REMARK  5 active torsions:
REMARK  status: ('A' for Active; 'I' for Inactive)
REMARK    1  A    between atoms: C_4  and  N_5 
REMARK       I    between atoms: N_5  and  C_6 
REMARK    2  A    between atoms: C_6  and  C_7 
REMARK    3  A    between atoms: C_7  and  N_8 
REMARK    4  A    between atoms: N_8  and  C_11 
REMARK    5  A    between atoms: C_11  and  C_12 
ROOT
HETATM    1  N   UNL     1      44.353 -17.430   5.855  1.00  0.00    -0.324 N 
HETATM    2  C   UNL     1      43.534 -17.176   6.923  1.00  0.00     0.248 C 
HETATM    3  O   UNL     1      42.653 -17.899   7.383  1.00  0.00    -0.271 OA
HETATM    4  H   UNL     1      45.004 -16.720   5.510  1.00  0.00     0.169 HD
ENDROOT
BRANCH   1   5
HETATM    5  C   UNL     1      44.390 -18.585   5.030  1.00  0.00     0.065 A 
HETATM    6  C   UNL     1      44.699 -19.867   5.495  1.00  0.00     0.038 A 
HETATM    7  C   UNL     1      44.710 -20.953   4.613  1.00  0.00    -0.059 A 
HETATM    8  C   UNL     1      45.045 -22.336   5.094  1.00  0.00     0.048 C 
HETATM    9  C   UNL     1      44.404 -20.740   3.266  1.00  0.00     0.020 A 
HETATM   10  C   UNL     1      44.092 -19.454   2.794  1.00  0.00    -0.005 A 
HETATM   11  C   UNL     1      44.087 -18.358   3.679  1.00  0.00     0.093 A 
HETATM   12  C   UNL     1      43.777 -19.218   1.451  1.00  0.00     0.015 A 
HETATM   13  N   UNL     1      43.793 -17.098   3.271  1.00  0.00    -0.258 NA
HETATM   14  C   UNL     1      43.493 -16.916   1.963  1.00  0.00     0.117 A 
HETATM   15  C   UNL     1      43.471 -17.931   1.027  1.00  0.00     0.020 A 
ENDBRANCH   1   5
BRANCH   2  16
HETATM   16  C   UNL     1      43.764 -15.808   7.568  1.00  0.00     0.335 C 
BRANCH  16  17
HETATM   17  N   UNL     1      43.047 -14.722   6.800  1.00  0.00    -0.059 N 
HETATM   18  H   UNL     1      42.215 -15.091   6.318  1.00  0.00     0.278 HD
HETATM   19  H   UNL     1      42.704 -14.042   7.505  1.00  0.00     0.278 HD
BRANCH  17  20
HETATM   20  C   UNL     1      43.918 -13.937   5.821  1.00  0.00     0.349 C 
BRANCH  20  21
HETATM   21  C   UNL     1      43.192 -13.696   4.492  1.00  0.00     0.411 C 
HETATM   22  F   UNL     1      44.070 -13.846   3.474  1.00  0.00    -0.169 F 
HETATM   23  F   UNL     1      42.218 -14.617   4.328  1.00  0.00    -0.169 F 
HETATM   24  F   UNL     1      42.656 -12.469   4.427  1.00  0.00    -0.169 F 
ENDBRANCH  20  21
ENDBRANCH  17  20
ENDBRANCH  16  17
ENDBRANCH   2  16
TORSDOF 5
ENDMDL
MODEL 7
REMARK VINA RESULT:      -7.2      4.809      6.264
REMARK  5 active torsions:
REMARK  status: ('A' for Active; 'I' for Inactive)
REMARK    1  A    between atoms: C_4  and  N_5 
REMARK       I    between atoms: N_5  and  C_6 
REMARK    2  A    between atoms: C_6  and  C_7 
REMARK    3  A    between atoms: C_7  and  N_8 
REMARK    4  A    between atoms: N_8  and  C_11 
REMARK    5  A    between atoms: C_11  and  C_12 
ROOT
HETATM    1  N   UNL     1      42.919 -17.784   1.806  1.00  0.00    -0.324 N 
HETATM    2  C   UNL     1      41.661 -17.271   1.635  1.00  0.00     0.248 C 
HETATM    3  O   UNL     1      40.773 -17.162   2.478  1.00  0.00    -0.271 OA
HETATM    4  H   UNL     1      43.554 -17.898   1.011  1.00  0.00     0.169 HD
ENDROOT
BRANCH   1   5
HETATM    5  C   UNL     1      43.505 -18.304   2.990  1.00  0.00     0.065 A 
HETATM    6  C   UNL     1      43.739 -17.546   4.142  1.00  0.00     0.038 A 
HETATM    7  C   UNL     1      44.320 -18.138   5.268  1.00  0.00    -0.059 A 
HETATM    8  C   UNL     1      44.584 -17.339   6.513  1.00  0.00     0.048 C 
HETATM    9  C   UNL     1      44.655 -19.495   5.229  1.00  0.00     0.020 A 
HETATM   10  C   UNL     1      44.421 -20.260   4.075  1.00  0.00    -0.005 A 
HETATM   11  C   UNL     1      43.844 -19.664   2.937  1.00  0.00     0.093 A 
HETATM   12  C   UNL     1      44.743 -21.621   4.015  1.00  0.00     0.015 A 
HETATM   13  N   UNL     1      43.598 -20.362   1.799  1.00  0.00    -0.258 NA
HETATM   14  C   UNL     1      43.924 -21.675   1.785  1.00  0.00     0.117 A 
HETATM   15  C   UNL     1      44.491 -22.342   2.854  1.00  0.00     0.020 A 
ENDBRANCH   1   5
BRANCH   2  16
HETATM   16  C   UNL     1      41.364 -16.819   0.204  1.00  0.00     0.335 C 
BRANCH  16  17
HETATM   17  N   UNL     1      40.713 -15.455   0.193  1.00  0.00    -0.059 N 
HETATM   18  H   UNL     1      39.703 -15.524  -0.000  1.00  0.00     0.278 HD
HETATM   19  H   UNL     1      40.804 -15.080   1.157  1.00  0.00     0.278 HD
BRANCH  17  20
HETATM   20  C   UNL     1      41.361 -14.434  -0.738  1.00  0.00     0.349 C 
BRANCH  20  21
HETATM   21  C   UNL     1      40.788 -14.526  -2.158  1.00  0.00     0.411 C 
HETATM   22  F   UNL     1      41.383 -15.552  -2.809  1.00  0.00    -0.169 F 
HETATM   23  F   UNL     1      39.466 -14.791  -2.103  1.00  0.00    -0.169 F 
HETATM   24  F   UNL     1      40.985 -13.397  -2.854  1.00  0.00    -0.169 F 
ENDBRANCH  20  21
ENDBRANCH  17  20
ENDBRANCH  16  17
ENDBRANCH   2  16
TORSDOF 5
ENDMDL
MODEL 8
REMARK VINA RESULT:      -7.1      3.231      4.823
REMARK  5 active torsions:
REMARK  status: ('A' for Active; 'I' for Inactive)
REMARK    1  A    between atoms: C_4  and  N_5 
REMARK       I    between atoms: N_5  and  C_6 
REMARK    2  A    between atoms: C_6  and  C_7 
REMARK    3  A    between atoms: C_7  and  N_8 
REMARK    4  A    between atoms: N_8  and  C_11 
REMARK    5  A    between atoms: C_11  and  C_12 
ROOT
HETATM    1  N   UNL     1      42.924 -17.963   1.948  1.00  0.00    -0.324 N 
HETATM    2  C   UNL     1      41.717 -17.321   1.872  1.00  0.00     0.248 C 
HETATM    3  O   UNL     1      40.933 -17.083   2.788  1.00  0.00    -0.271 OA
HETATM    4  H   UNL     1      43.461 -18.176   1.103  1.00  0.00     0.169 HD
ENDROOT
BRANCH   1   5
HETATM    5  C   UNL     1      43.565 -18.499   3.096  1.00  0.00     0.065 A 
HETATM    6  C   UNL     1      43.851 -17.757   4.247  1.00  0.00     0.038 A 
HETATM    7  C   UNL     1      44.484 -18.364   5.336  1.00  0.00    -0.059 A 
HETATM    8  C   UNL     1      44.804 -17.583   6.579  1.00  0.00     0.048 C 
HETATM    9  C   UNL     1      44.821 -19.719   5.261  1.00  0.00     0.020 A 
HETATM   10  C   UNL     1      44.535 -20.467   4.108  1.00  0.00    -0.005 A 
HETATM   11  C   UNL     1      43.904 -19.857   3.006  1.00  0.00     0.093 A 
HETATM   12  C   UNL     1      44.858 -21.827   4.012  1.00  0.00     0.015 A 
HETATM   13  N   UNL     1      43.608 -20.538   1.871  1.00  0.00    -0.258 NA
HETATM   14  C   UNL     1      43.936 -21.850   1.822  1.00  0.00     0.117 A 
HETATM   15  C   UNL     1      44.554 -22.531   2.853  1.00  0.00     0.020 A 
ENDBRANCH   1   5
BRANCH   2  16
HETATM   16  C   UNL     1      41.330 -16.894   0.455  1.00  0.00     0.335 C 
BRANCH  16  17
HETATM   17  N   UNL     1      40.777 -15.487   0.447  1.00  0.00    -0.059 N 
HETATM   18  H   UNL     1      40.049 -15.375  -0.273  1.00  0.00     0.278 HD
HETATM   19  H   UNL     1      40.309 -15.352   1.364  1.00  0.00     0.278 HD
BRANCH  17  20
HETATM   20  C   UNL     1      41.820 -14.380   0.320  1.00  0.00     0.349 C 
BRANCH  20  21
HETATM   21  C   UNL     1      41.987 -13.611   1.636  1.00  0.00     0.411 C 
HETATM   22  F   UNL     1      40.851 -13.724   2.362  1.00  0.00    -0.169 F 
HETATM   23  F   UNL     1      42.988 -14.153   2.361  1.00  0.00    -0.169 F 
HETATM   24  F   UNL     1      42.244 -12.311   1.430  1.00  0.00    -0.169 F 
ENDBRANCH  20  21
ENDBRANCH  17  20
ENDBRANCH  16  17
ENDBRANCH   2  16
TORSDOF 5
ENDMDL
MODEL 9
REMARK VINA RESULT:      -6.9      4.298      6.247
REMARK  5 active torsions:
REMARK  status: ('A' for Active; 'I' for Inactive)
REMARK    1  A    between atoms: C_4  and  N_5 
REMARK       I    between atoms: N_5  and  C_6 
REMARK    2  A    between atoms: C_6  and  C_7 
REMARK    3  A    between atoms: C_7  and  N_8 
REMARK    4  A    between atoms: N_8  and  C_11 
REMARK    5  A    between atoms: C_11  and  C_12 
ROOT
HETATM    1  N   UNL     1      42.406 -18.306   5.017  1.00  0.00    -0.324 N 
HETATM    2  C   UNL     1      43.622 -18.412   5.636  1.00  0.00     0.248 C 
HETATM    3  O   UNL     1      44.380 -17.501   5.965  1.00  0.00    -0.271 OA
HETATM    4  H   UNL     1      41.893 -19.140   4.719  1.00  0.00     0.169 HD
ENDROOT
BRANCH   1   5
HETATM    5  C   UNL     1      41.723 -17.129   4.613  1.00  0.00     0.065 A 
HETATM    6  C   UNL     1      41.192 -16.191   5.504  1.00  0.00     0.038 A 
HETATM    7  C   UNL     1      40.534 -15.054   5.021  1.00  0.00    -0.059 A 
HETATM    8  C   UNL     1      39.953 -14.039   5.963  1.00  0.00     0.048 C 
HETATM    9  C   UNL     1      40.422 -14.867   3.640  1.00  0.00     0.020 A 
HETATM   10  C   UNL     1      40.954 -15.806   2.742  1.00  0.00    -0.005 A 
HETATM   11  C   UNL     1      41.609 -16.955   3.225  1.00  0.00     0.093 A 
HETATM   12  C   UNL     1      40.858 -15.636   1.356  1.00  0.00     0.015 A 
HETATM   13  N   UNL     1      42.140 -17.890   2.397  1.00  0.00    -0.258 NA
HETATM   14  C   UNL     1      42.025 -17.685   1.064  1.00  0.00     0.117 A 
HETATM   15  C   UNL     1      41.401 -16.588   0.502  1.00  0.00     0.020 A 
ENDBRANCH   1   5
BRANCH   2  16
HETATM   16  C   UNL     1      44.058 -19.853   5.905  1.00  0.00     0.335 C 
BRANCH  16  17
HETATM   17  N   UNL     1      45.045 -20.322   4.860  1.00  0.00    -0.059 N 
HETATM   18  H   UNL     1      45.394 -19.535   4.295  1.00  0.00     0.278 HD
HETATM   19  H   UNL     1      45.862 -20.700   5.377  1.00  0.00     0.278 HD
BRANCH  17  20
HETATM   20  C   UNL     1      44.544 -21.443   3.951  1.00  0.00     0.349 C 
BRANCH  20  21
HETATM   21  C   UNL     1      44.377 -20.960   2.505  1.00  0.00     0.411 C 
HETATM   22  F   UNL     1      45.030 -21.807   1.677  1.00  0.00    -0.169 F 
HETATM   23  F   UNL     1      43.071 -20.984   2.162  1.00  0.00    -0.169 F 
HETATM   24  F   UNL     1      44.859 -19.722   2.329  1.00  0.00    -0.169 F 
ENDBRANCH  20  21
ENDBRANCH  17  20
ENDBRANCH  16  17
ENDBRANCH   2  16
TORSDOF 5
ENDMDL
MODEL 10
REMARK VINA RESULT:      -6.9      3.806      5.402
REMARK  5 active torsions:
REMARK  status: ('A' for Active; 'I' for Inactive)
REMARK    1  A    between atoms: C_4  and  N_5 
REMARK       I    between atoms: N_5  and  C_6 
REMARK    2  A    between atoms: C_6  and  C_7 
REMARK    3  A    between atoms: C_7  and  N_8 
REMARK    4  A    between atoms: N_8  and  C_11 
REMARK    5  A    between atoms: C_11  and  C_12 
ROOT
HETATM    1  N   UNL     1      42.970 -16.267   4.035  1.00  0.00    -0.324 N 
HETATM    2  C   UNL     1      41.751 -15.651   4.134  1.00  0.00     0.248 C 
HETATM    3  O   UNL     1      40.824 -15.936   4.889  1.00  0.00    -0.271 OA
HETATM    4  H   UNL     1      43.642 -15.993   3.314  1.00  0.00     0.169 HD
ENDROOT
BRANCH   1   5
HETATM    5  C   UNL     1      43.459 -17.374   4.779  1.00  0.00     0.065 A 
HETATM    6  C   UNL     1      43.623 -17.368   6.168  1.00  0.00     0.038 A 
HETATM    7  C   UNL     1      44.110 -18.504   6.824  1.00  0.00    -0.059 A 
HETATM    8  C   UNL     1      44.297 -18.516   8.314  1.00  0.00     0.048 C 
HETATM    9  C   UNL     1      44.425 -19.642   6.075  1.00  0.00     0.020 A 
HETATM   10  C   UNL     1      44.262 -19.651   4.680  1.00  0.00    -0.005 A 
HETATM   11  C   UNL     1      43.779 -18.507   4.016  1.00  0.00     0.093 A 
HETATM   12  C   UNL     1      44.565 -20.781   3.910  1.00  0.00     0.015 A 
HETATM   13  N   UNL     1      43.604 -18.468   2.671  1.00  0.00    -0.258 NA
HETATM   14  C   UNL     1      43.909 -19.582   1.966  1.00  0.00     0.117 A 
HETATM   15  C   UNL     1      44.387 -20.748   2.533  1.00  0.00     0.020 A 
ENDBRANCH   1   5
BRANCH   2  16
HETATM   16  C   UNL     1      41.560 -14.494   3.152  1.00  0.00     0.335 C 
BRANCH  16  17
HETATM   17  N   UNL     1      42.441 -14.668   1.935  1.00  0.00    -0.059 N 
HETATM   18  H   UNL     1      43.139 -13.913   1.868  1.00  0.00     0.278 HD
HETATM   19  H   UNL     1      42.971 -15.548   2.081  1.00  0.00     0.278 HD
BRANCH  17  20
HETATM   20  C   UNL     1      41.696 -14.819   0.611  1.00  0.00     0.349 C 
BRANCH  20  21
HETATM   21  C   UNL     1      41.586 -16.290   0.192  1.00  0.00     0.411 C 
HETATM   22  F   UNL     1      40.717 -16.921   1.015  1.00  0.00    -0.169 F 
HETATM   23  F   UNL     1      41.094 -16.375  -1.062  1.00  0.00    -0.169 F 
HETATM   24  F   UNL     1      42.770 -16.918   0.247  1.00  0.00    -0.169 F 
ENDBRANCH  20  21
ENDBRANCH  17  20
ENDBRANCH  16  17
ENDBRANCH   2  16
TORSDOF 5
ENDMDL
