MODEL 1
REMARK VINA RESULT:      -7.3      0.000      0.000
REMARK  5 active torsions:
REMARK  status: ('A' for Active; 'I' for Inactive)
REMARK    1  A    between atoms: C_7  and  C_8 
REMARK    2  A    between atoms: C_8  and  N_9 
REMARK    3  A    between atoms: C_12  and  C_13 
REMARK    4  A    between atoms: C_13  and  C_14 
REMARK    5  A    between atoms: C_14  and  O_15 
ROOT
HETATM    1  C   UNL     1      44.077 -18.107   7.038  1.00  0.00     0.020 A 
HETATM    2  C   UNL     1      43.765 -16.952   6.357  1.00  0.00     0.117 A 
HETATM    3  N   UNL     1      43.686 -16.871   5.008  1.00  0.00    -0.260 NA
HETATM    4  C   UNL     1      43.898 -17.996   4.287  1.00  0.00     0.076 A 
HETATM    5  C   UNL     1      44.239 -19.234   4.882  1.00  0.00     0.011 A 
HETATM    6  C   UNL     1      44.321 -19.254   6.292  1.00  0.00     0.016 A 
HETATM    7  C   UNL     1      43.790 -17.913   2.894  1.00  0.00    -0.003 A 
HETATM    8  C   UNL     1      44.015 -19.037   2.085  1.00  0.00     0.012 A 
HETATM    9  C   UNL     1      44.362 -20.253   2.661  1.00  0.00     0.020 A 
HETATM   10  C   UNL     1      44.471 -20.355   4.048  1.00  0.00     0.023 A 
HETATM   11 BR   UNL     1      44.946 -22.064   4.737  1.00  0.00    -0.050 Br
ENDROOT
BRANCH   7  12
HETATM   12  C   UNL     1      43.372 -16.610   2.256  1.00  0.00     0.275 C 
BRANCH  12  13
HETATM   13  N   UNL     1      41.971 -16.620   1.707  1.00  0.00    -0.067 N 
HETATM   14  H   UNL     1      41.590 -17.524   2.052  1.00  0.00     0.280 HD
HETATM   15  C   UNL     1      41.888 -16.608   0.205  1.00  0.00     0.240 C 
HETATM   16  C   UNL     1      41.325 -15.231  -0.127  1.00  0.00     0.015 C 
HETATM   17  C   UNL     1      40.330 -15.023   1.010  1.00  0.00     0.034 C 
HETATM   18  C   UNL     1      41.084 -15.515   2.230  1.00  0.00     0.235 C 
BRANCH  16  19
HETATM   19  C   UNL     1      40.734 -15.183  -1.540  1.00  0.00     0.032 C 
BRANCH  19  20
HETATM   20  C   UNL     1      41.512 -14.290  -2.502  1.00  0.00     0.164 C 
BRANCH  20  21
HETATM   21  O   UNL     1      42.115 -15.084  -3.508  1.00  0.00    -0.401 OA
HETATM   22  H   UNL     1      42.728 -15.697  -3.062  1.00  0.00     0.209 HD
ENDBRANCH  20  21
ENDBRANCH  19  20
ENDBRANCH  16  19
ENDBRANCH  12  13
ENDBRANCH   7  12
TORSDOF 5
ENDMDL
MODEL 2
REMARK VINA RESULT:      -7.2      4.069      6.226
REMARK  5 active torsions:
REMARK  status: ('A' for Active; 'I' for Inactive)
REMARK    1  A    between atoms: C_7  and  C_8 
REMARK    2  A    between atoms: C_8  and  N_9 
REMARK    3  A    between atoms: C_12  and  C_13 
REMARK    4  A    between atoms: C_13  and  C_14 
REMARK    5  A    between atoms: C_14  and  O_15 
ROOT
HETATM    1  C   UNL     1      43.958 -18.946   1.891  1.00  0.00     0.020 A 
HETATM    2  C   UNL     1      43.353 -17.786   2.321  1.00  0.00     0.117 A 
HETATM    3  N   UNL     1      43.052 -17.529   3.616  1.00  0.00    -0.260 NA
HETATM    4  C   UNL     1      43.389 -18.452   4.546  1.00  0.00     0.076 A 
HETATM    5  C   UNL     1      44.001 -19.685   4.214  1.00  0.00     0.011 A 
HETATM    6  C   UNL     1      44.278 -19.903   2.846  1.00  0.00     0.016 A 
HETATM    7  C   UNL     1      43.099 -18.172   5.885  1.00  0.00    -0.003 A 
HETATM    8  C   UNL     1      43.405 -19.092   6.898  1.00  0.00     0.012 A 
HETATM    9  C   UNL     1      43.994 -20.309   6.579  1.00  0.00     0.020 A 
HETATM   10  C   UNL     1      44.294 -20.605   5.249  1.00  0.00     0.023 A 
HETATM   11 BR   UNL     1      45.104 -22.296   4.920  1.00  0.00    -0.050 Br
ENDROOT
BRANCH   7  12
HETATM   12  C   UNL     1      42.498 -16.836   6.252  1.00  0.00     0.275 C 
BRANCH  12  13
HETATM   13  N   UNL     1      43.319 -15.654   5.813  1.00  0.00    -0.067 N 
HETATM   14  H   UNL     1      43.716 -15.968   4.905  1.00  0.00     0.280 HD
HETATM   15  C   UNL     1      44.456 -15.304   6.735  1.00  0.00     0.240 C 
HETATM   16  C   UNL     1      44.039 -13.974   7.353  1.00  0.00     0.015 C 
HETATM   17  C   UNL     1      43.356 -13.289   6.175  1.00  0.00     0.034 C 
HETATM   18  C   UNL     1      42.523 -14.396   5.559  1.00  0.00     0.235 C 
BRANCH  16  19
HETATM   19  C   UNL     1      45.234 -13.225   7.952  1.00  0.00     0.032 C 
BRANCH  19  20
HETATM   20  C   UNL     1      44.874 -12.352   9.151  1.00  0.00     0.164 C 
BRANCH  20  21
HETATM   21  O   UNL     1      44.188 -13.128  10.118  1.00  0.00    -0.401 OA
HETATM   22  H   UNL     1      43.358 -13.432   9.706  1.00  0.00     0.209 HD
ENDBRANCH  20  21
ENDBRANCH  19  20
ENDBRANCH  16  19
ENDBRANCH  12  13
ENDBRANCH   7  12
TORSDOF 5
ENDMDL
MODEL 3
REMARK VINA RESULT:      -7.1      0.977      1.096
REMARK  5 active torsions:
REMARK  status: ('A' for Active; 'I' for Inactive)
REMARK    1  A    between atoms: C_7  and  C_8 
REMARK    2  A    between atoms: C_8  and  N_9 
REMARK    3  A    between atoms: C_12  and  C_13 
REMARK    4  A    between atoms: C_13  and  C_14 
REMARK    5  A    between atoms: C_14  and  O_15 
ROOT
HETATM    1  C   UNL     1      44.212 -18.360   6.750  1.00  0.00     0.020 A 
HETATM    2  C   UNL     1      43.896 -17.240   6.015  1.00  0.00     0.117 A 
HETATM    3  N   UNL     1      43.756 -17.238   4.668  1.00  0.00    -0.260 NA
HETATM    4  C   UNL     1      43.908 -18.409   4.008  1.00  0.00     0.076 A 
HETATM    5  C   UNL     1      44.248 -19.617   4.661  1.00  0.00     0.011 A 
HETATM    6  C   UNL     1      44.395 -19.556   6.065  1.00  0.00     0.016 A 
HETATM    7  C   UNL     1      43.739 -18.407   2.619  1.00  0.00    -0.003 A 
HETATM    8  C   UNL     1      43.900 -19.582   1.870  1.00  0.00     0.012 A 
HETATM    9  C   UNL     1      44.245 -20.770   2.503  1.00  0.00     0.020 A 
HETATM   10  C   UNL     1      44.415 -20.792   3.888  1.00  0.00     0.023 A 
HETATM   11 BR   UNL     1      44.882 -22.469   4.657  1.00  0.00    -0.050 Br
ENDROOT
BRANCH   7  12
HETATM   12  C   UNL     1      43.322 -17.134   1.922  1.00  0.00     0.275 C 
BRANCH  12  13
HETATM   13  N   UNL     1      41.888 -17.128   1.465  1.00  0.00    -0.067 N 
HETATM   14  H   UNL     1      41.745 -18.101   1.129  1.00  0.00     0.280 HD
HETATM   15  C   UNL     1      41.597 -16.182   0.331  1.00  0.00     0.240 C 
HETATM   16  C   UNL     1      40.732 -15.097   0.963  1.00  0.00     0.015 C 
HETATM   17  C   UNL     1      39.883 -15.908   1.936  1.00  0.00     0.034 C 
HETATM   18  C   UNL     1      40.881 -16.863   2.560  1.00  0.00     0.235 C 
BRANCH  16  19
HETATM   19  C   UNL     1      39.954 -14.304  -0.092  1.00  0.00     0.032 C 
BRANCH  19  20
HETATM   20  C   UNL     1      40.405 -14.576  -1.524  1.00  0.00     0.164 C 
BRANCH  20  21
HETATM   21  O   UNL     1      39.327 -15.114  -2.270  1.00  0.00    -0.401 OA
HETATM   22  H   UNL     1      38.777 -15.629  -1.651  1.00  0.00     0.209 HD
ENDBRANCH  20  21
ENDBRANCH  19  20
ENDBRANCH  16  19
ENDBRANCH  12  13
ENDBRANCH   7  12
TORSDOF 5
ENDMDL
MODEL 4
REMARK VINA RESULT:      -7.1      2.144      2.429
REMARK  5 active torsions:
REMARK  status: ('A' for Active; 'I' for Inactive)
REMARK    1  A    between atoms: C_7  and  C_8 
REMARK    2  A    between atoms: C_8  and  N_9 
REMARK    3  A    between atoms: C_12  and  C_13 
REMARK    4  A    between atoms: C_13  and  C_14 
REMARK    5  A    between atoms: C_14  and  O_15 
ROOT
HETATM    1  C   UNL     1      44.336 -19.435   6.270  1.00  0.00     0.020 A 
HETATM    2  C   UNL     1      44.060 -18.086   6.302  1.00  0.00     0.117 A 
HETATM    3  N   UNL     1      43.803 -17.344   5.198  1.00  0.00    -0.260 NA
HETATM    4  C   UNL     1      43.790 -17.967   3.998  1.00  0.00     0.076 A 
HETATM    5  C   UNL     1      44.074 -19.346   3.848  1.00  0.00     0.011 A 
HETATM    6  C   UNL     1      44.348 -20.066   5.032  1.00  0.00     0.016 A 
HETATM    7  C   UNL     1      43.500 -17.202   2.864  1.00  0.00    -0.003 A 
HETATM    8  C   UNL     1      43.487 -17.781   1.586  1.00  0.00     0.012 A 
HETATM    9  C   UNL     1      43.777 -19.130   1.429  1.00  0.00     0.020 A 
HETATM   10  C   UNL     1      44.066 -19.911   2.549  1.00  0.00     0.023 A 
HETATM   11 BR   UNL     1      44.444 -21.748   2.227  1.00  0.00    -0.050 Br
ENDROOT
BRANCH   7  12
HETATM   12  C   UNL     1      43.140 -15.744   3.022  1.00  0.00     0.275 C 
BRANCH  12  13
HETATM   13  N   UNL     1      41.760 -15.510   3.574  1.00  0.00    -0.067 N 
HETATM   14  H   UNL     1      41.738 -16.118   4.417  1.00  0.00     0.280 HD
HETATM   15  C   UNL     1      40.641 -15.926   2.657  1.00  0.00     0.240 C 
HETATM   16  C   UNL     1      40.000 -14.611   2.231  1.00  0.00     0.015 C 
HETATM   17  C   UNL     1      40.095 -13.792   3.514  1.00  0.00     0.034 C 
HETATM   18  C   UNL     1      41.493 -14.092   4.018  1.00  0.00     0.235 C 
BRANCH  16  19
HETATM   19  C   UNL     1      38.584 -14.819   1.682  1.00  0.00     0.032 C 
BRANCH  19  20
HETATM   20  C   UNL     1      38.166 -13.780   0.646  1.00  0.00     0.164 C 
BRANCH  20  21
HETATM   21  O   UNL     1      38.233 -14.345  -0.651  1.00  0.00    -0.401 OA
HETATM   22  H   UNL     1      38.180 -15.314  -0.546  1.00  0.00     0.209 HD
ENDBRANCH  20  21
ENDBRANCH  19  20
ENDBRANCH  16  19
ENDBRANCH  12  13
ENDBRANCH   7  12
TORSDOF 5
ENDMDL
MODEL 5
REMARK VINA RESULT:      -7.0      1.487      2.678
REMARK  5 active torsions:
REMARK  status: ('A' for Active; 'I' for Inactive)
REMARK    1  A    between atoms: C_7  and  C_8 
REMARK    2  A    between atoms: C_8  and  N_9 
REMARK    3  A    between atoms: C_12  and  C_13 
REMARK    4  A    between atoms: C_13  and  C_14 
REMARK    5  A    between atoms: C_14  and  O_15 
ROOT
HETATM    1  C   UNL     1      44.422 -20.402   3.388  1.00  0.00     0.020 A 
HETATM    2  C   UNL     1      44.129 -19.686   2.249  1.00  0.00     0.117 A 
HETATM    3  N   UNL     1      43.749 -18.386   2.254  1.00  0.00    -0.260 NA
HETATM    4  C   UNL     1      43.679 -17.745   3.443  1.00  0.00     0.076 A 
HETATM    5  C   UNL     1      43.943 -18.388   4.676  1.00  0.00     0.011 A 
HETATM    6  C   UNL     1      44.322 -19.747   4.610  1.00  0.00     0.016 A 
HETATM    7  C   UNL     1      43.310 -16.396   3.441  1.00  0.00    -0.003 A 
HETATM    8  C   UNL     1      43.200 -15.675   4.640  1.00  0.00     0.012 A 
HETATM    9  C   UNL     1      43.447 -16.303   5.855  1.00  0.00     0.020 A 
HETATM   10  C   UNL     1      43.819 -17.647   5.877  1.00  0.00     0.023 A 
HETATM   11 BR   UNL     1      44.139 -18.410   7.591  1.00  0.00    -0.050 Br
ENDROOT
BRANCH   7  12
HETATM   12  C   UNL     1      43.081 -15.689   2.127  1.00  0.00     0.275 C 
BRANCH  12  13
HETATM   13  N   UNL     1      41.712 -15.912   1.543  1.00  0.00    -0.067 N 
HETATM   14  H   UNL     1      41.357 -16.727   2.081  1.00  0.00     0.280 HD
HETATM   15  C   UNL     1      41.706 -16.266   0.080  1.00  0.00     0.240 C 
HETATM   16  C   UNL     1      41.097 -15.044  -0.597  1.00  0.00     0.015 C 
HETATM   17  C   UNL     1      40.036 -14.628   0.415  1.00  0.00     0.034 C 
HETATM   18  C   UNL     1      40.748 -14.766   1.746  1.00  0.00     0.235 C 
BRANCH  16  19
HETATM   19  C   UNL     1      40.578 -15.371  -2.002  1.00  0.00     0.032 C 
BRANCH  19  20
HETATM   20  C   UNL     1      41.219 -14.534  -3.105  1.00  0.00     0.164 C 
BRANCH  20  21
HETATM   21  O   UNL     1      42.361 -15.203  -3.610  1.00  0.00    -0.401 OA
HETATM   22  H   UNL     1      43.136 -14.648  -3.400  1.00  0.00     0.209 HD
ENDBRANCH  20  21
ENDBRANCH  19  20
ENDBRANCH  16  19
ENDBRANCH  12  13
ENDBRANCH   7  12
TORSDOF 5
ENDMDL
MODEL 6
REMARK VINA RESULT:      -6.8      2.274      3.386
REMARK  5 active torsions:
REMARK  status: ('A' for Active; 'I' for Inactive)
REMARK    1  A    between atoms: C_7  and  C_8 
REMARK    2  A    between atoms: C_8  and  N_9 
REMARK    3  A    between atoms: C_12  and  C_13 
REMARK    4  A    between atoms: C_13  and  C_14 
REMARK    5  A    between atoms: C_14  and  O_15 
ROOT
HETATM    1  C   UNL     1      44.725 -20.272   3.591  1.00  0.00     0.020 A 
HETATM    2  C   UNL     1      43.924 -19.886   2.540  1.00  0.00     0.117 A 
HETATM    3  N   UNL     1      42.912 -18.993   2.652  1.00  0.00    -0.260 NA
HETATM    4  C   UNL     1      42.692 -18.426   3.860  1.00  0.00     0.076 A 
HETATM    5  C   UNL     1      43.444 -18.760   5.011  1.00  0.00     0.011 A 
HETATM    6  C   UNL     1      44.477 -19.707   4.837  1.00  0.00     0.016 A 
HETATM    7  C   UNL     1      41.662 -17.485   3.966  1.00  0.00    -0.003 A 
HETATM    8  C   UNL     1      41.367 -16.872   5.193  1.00  0.00     0.012 A 
HETATM    9  C   UNL     1      42.094 -17.203   6.330  1.00  0.00     0.020 A 
HETATM   10  C   UNL     1      43.126 -18.137   6.243  1.00  0.00     0.023 A 
HETATM   11 BR   UNL     1      44.062 -18.517   7.856  1.00  0.00    -0.050 Br
ENDROOT
BRANCH   7  12
HETATM   12  C   UNL     1      40.892 -17.082   2.731  1.00  0.00     0.275 C 
BRANCH  12  13
HETATM   13  N   UNL     1      41.689 -16.262   1.754  1.00  0.00    -0.067 N 
HETATM   14  H   UNL     1      42.672 -16.501   1.992  1.00  0.00     0.280 HD
HETATM   15  C   UNL     1      41.512 -14.774   1.896  1.00  0.00     0.240 C 
HETATM   16  C   UNL     1      40.753 -14.366   0.639  1.00  0.00     0.015 C 
HETATM   17  C   UNL     1      41.376 -15.283  -0.408  1.00  0.00     0.034 C 
HETATM   18  C   UNL     1      41.464 -16.619   0.304  1.00  0.00     0.235 C 
BRANCH  16  19
HETATM   19  C   UNL     1      40.876 -12.864   0.361  1.00  0.00     0.032 C 
BRANCH  19  20
HETATM   20  C   UNL     1      41.740 -12.120   1.374  1.00  0.00     0.164 C 
BRANCH  20  21
HETATM   21  O   UNL     1      42.748 -11.390   0.697  1.00  0.00    -0.401 OA
HETATM   22  H   UNL     1      43.261 -10.910   1.374  1.00  0.00     0.209 HD
ENDBRANCH  20  21
ENDBRANCH  19  20
ENDBRANCH  16  19
ENDBRANCH  12  13
ENDBRANCH   7  12
TORSDOF 5
ENDMDL
MODEL 7
REMARK VINA RESULT:      -6.7      3.334      4.790
REMARK  5 active torsions:
REMARK  status: ('A' for Active; 'I' for Inactive)
REMARK    1  A    between atoms: C_7  and  C_8 
REMARK    2  A    between atoms: C_8  and  N_9 
REMARK    3  A    between atoms: C_12  and  C_13 
REMARK    4  A    between atoms: C_13  and  C_14 
REMARK    5  A    between atoms: C_14  and  O_15 
ROOT
HETATM    1  C   UNL     1      43.959 -19.216   1.692  1.00  0.00     0.020 A 
HETATM    2  C   UNL     1      43.668 -17.880   1.847  1.00  0.00     0.117 A 
HETATM    3  N   UNL     1      43.594 -17.260   3.049  1.00  0.00    -0.260 NA
HETATM    4  C   UNL     1      43.849 -17.988   4.160  1.00  0.00     0.076 A 
HETATM    5  C   UNL     1      44.143 -19.371   4.117  1.00  0.00     0.011 A 
HETATM    6  C   UNL     1      44.192 -19.967   2.838  1.00  0.00     0.016 A 
HETATM    7  C   UNL     1      43.797 -17.338   5.398  1.00  0.00    -0.003 A 
HETATM    8  C   UNL     1      44.032 -18.037   6.591  1.00  0.00     0.012 A 
HETATM    9  C   UNL     1      44.310 -19.397   6.558  1.00  0.00     0.020 A 
HETATM   10  C   UNL     1      44.369 -20.062   5.333  1.00  0.00     0.023 A 
HETATM   11 BR   UNL     1      44.762 -21.923   5.398  1.00  0.00    -0.050 Br
ENDROOT
BRANCH   7  12
HETATM   12  C   UNL     1      43.539 -15.851   5.447  1.00  0.00     0.275 C 
BRANCH  12  13
HETATM   13  N   UNL     1      42.205 -15.442   4.883  1.00  0.00    -0.067 N 
HETATM   14  H   UNL     1      42.151 -15.979   3.994  1.00  0.00     0.280 HD
HETATM   15  C   UNL     1      42.083 -13.976   4.563  1.00  0.00     0.240 C 
HETATM   16  C   UNL     1      41.090 -13.451   5.594  1.00  0.00     0.015 C 
HETATM   17  C   UNL     1      40.113 -14.616   5.701  1.00  0.00     0.034 C 
HETATM   18  C   UNL     1      41.018 -15.832   5.732  1.00  0.00     0.235 C 
BRANCH  16  19
HETATM   19  C   UNL     1      40.480 -12.112   5.165  1.00  0.00     0.032 C 
BRANCH  19  20
HETATM   20  C   UNL     1      39.048 -11.906   5.649  1.00  0.00     0.164 C 
BRANCH  20  21
HETATM   21  O   UNL     1      38.236 -11.479   4.569  1.00  0.00    -0.401 OA
HETATM   22  H   UNL     1      37.373 -11.220   4.943  1.00  0.00     0.209 HD
ENDBRANCH  20  21
ENDBRANCH  19  20
ENDBRANCH  16  19
ENDBRANCH  12  13
ENDBRANCH   7  12
TORSDOF 5
ENDMDL
MODEL 8
REMARK VINA RESULT:      -6.7      3.142      3.667
REMARK  5 active torsions:
REMARK  status: ('A' for Active; 'I' for Inactive)
REMARK    1  A    between atoms: C_7  and  C_8 
REMARK    2  A    between atoms: C_8  and  N_9 
REMARK    3  A    between atoms: C_12  and  C_13 
REMARK    4  A    between atoms: C_13  and  C_14 
REMARK    5  A    between atoms: C_14  and  O_15 
ROOT
HETATM    1  C   UNL     1      43.987 -20.942   6.508  1.00  0.00     0.020 A 
HETATM    2  C   UNL     1      43.736 -19.661   6.945  1.00  0.00     0.117 A 
HETATM    3  N   UNL     1      43.631 -18.592   6.121  1.00  0.00    -0.260 NA
HETATM    4  C   UNL     1      43.751 -18.796   4.789  1.00  0.00     0.076 A 
HETATM    5  C   UNL     1      44.024 -20.069   4.232  1.00  0.00     0.011 A 
HETATM    6  C   UNL     1      44.137 -21.144   5.141  1.00  0.00     0.016 A 
HETATM    7  C   UNL     1      43.616 -17.693   3.940  1.00  0.00    -0.003 A 
HETATM    8  C   UNL     1      43.747 -17.831   2.550  1.00  0.00     0.012 A 
HETATM    9  C   UNL     1      44.026 -19.075   1.997  1.00  0.00     0.020 A 
HETATM   10  C   UNL     1      44.161 -20.187   2.827  1.00  0.00     0.023 A 
HETATM   11 BR   UNL     1      44.539 -21.844   1.970  1.00  0.00    -0.050 Br
ENDROOT
BRANCH   7  12
HETATM   12  C   UNL     1      43.270 -16.344   4.522  1.00  0.00     0.275 C 
BRANCH  12  13
HETATM   13  N   UNL     1      41.791 -16.084   4.628  1.00  0.00    -0.067 N 
HETATM   14  H   UNL     1      41.375 -17.016   4.431  1.00  0.00     0.280 HD
HETATM   15  C   UNL     1      41.256 -15.099   3.625  1.00  0.00     0.240 C 
HETATM   16  C   UNL     1      40.881 -13.881   4.461  1.00  0.00     0.015 C 
HETATM   17  C   UNL     1      40.339 -14.532   5.728  1.00  0.00     0.034 C 
HETATM   18  C   UNL     1      41.327 -15.650   5.998  1.00  0.00     0.235 C 
BRANCH  16  19
HETATM   19  C   UNL     1      39.906 -12.960   3.721  1.00  0.00     0.032 C 
BRANCH  19  20
HETATM   20  C   UNL     1      40.561 -11.713   3.134  1.00  0.00     0.164 C 
BRANCH  20  21
HETATM   21  O   UNL     1      41.792 -11.467   3.792  1.00  0.00    -0.401 OA
HETATM   22  H   UNL     1      41.622 -10.793   4.477  1.00  0.00     0.209 HD
ENDBRANCH  20  21
ENDBRANCH  19  20
ENDBRANCH  16  19
ENDBRANCH  12  13
ENDBRANCH   7  12
TORSDOF 5
ENDMDL
MODEL 9
REMARK VINA RESULT:      -6.7      1.921      2.552
REMARK  5 active torsions:
REMARK  status: ('A' for Active; 'I' for Inactive)
REMARK    1  A    between atoms: C_7  and  C_8 
REMARK    2  A    between atoms: C_8  and  N_9 
REMARK    3  A    between atoms: C_12  and  C_13 
REMARK    4  A    between atoms: C_13  and  C_14 
REMARK    5  A    between atoms: C_14  and  O_15 
ROOT
HETATM    1  C   UNL     1      41.040 -16.596   6.174  1.00  0.00     0.020 A 
HETATM    2  C   UNL     1      40.683 -15.555   5.347  1.00  0.00     0.117 A 
HETATM    3  N   UNL     1      41.217 -15.351   4.119  1.00  0.00    -0.260 NA
HETATM    4  C   UNL     1      42.133 -16.237   3.666  1.00  0.00     0.076 A 
HETATM    5  C   UNL     1      42.584 -17.334   4.438  1.00  0.00     0.011 A 
HETATM    6  C   UNL     1      42.002 -17.488   5.715  1.00  0.00     0.016 A 
HETATM    7  C   UNL     1      42.664 -16.037   2.387  1.00  0.00    -0.003 A 
HETATM    8  C   UNL     1      43.632 -16.906   1.862  1.00  0.00     0.012 A 
HETATM    9  C   UNL     1      44.087 -17.979   2.618  1.00  0.00     0.020 A 
HETATM   10  C   UNL     1      43.568 -18.196   3.895  1.00  0.00     0.023 A 
HETATM   11 BR   UNL     1      44.256 -19.695   4.846  1.00  0.00    -0.050 Br
ENDROOT
BRANCH   7  12
HETATM   12  C   UNL     1      42.147 -14.901   1.536  1.00  0.00     0.275 C 
BRANCH  12  13
HETATM   13  N   UNL     1      40.995 -15.279   0.646  1.00  0.00    -0.067 N 
HETATM   14  H   UNL     1      40.473 -15.972   1.218  1.00  0.00     0.280 HD
HETATM   15  C   UNL     1      41.394 -15.934  -0.650  1.00  0.00     0.240 C 
HETATM   16  C   UNL     1      41.045 -14.899  -1.713  1.00  0.00     0.015 C 
HETATM   17  C   UNL     1      39.755 -14.308  -1.157  1.00  0.00     0.034 C 
HETATM   18  C   UNL     1      40.053 -14.144   0.321  1.00  0.00     0.235 C 
BRANCH  16  19
HETATM   19  C   UNL     1      40.937 -15.529  -3.107  1.00  0.00     0.032 C 
BRANCH  19  20
HETATM   20  C   UNL     1      39.502 -15.748  -3.573  1.00  0.00     0.164 C 
BRANCH  20  21
HETATM   21  O   UNL     1      39.193 -17.130  -3.536  1.00  0.00    -0.401 OA
HETATM   22  H   UNL     1      38.252 -17.221  -3.778  1.00  0.00     0.209 HD
ENDBRANCH  20  21
ENDBRANCH  19  20
ENDBRANCH  16  19
ENDBRANCH  12  13
ENDBRANCH   7  12
TORSDOF 5
ENDMDL
MODEL 10
REMARK VINA RESULT:      -6.6      2.332      3.794
REMARK  5 active torsions:
REMARK  status: ('A' for Active; 'I' for Inactive)
REMARK    1  A    between atoms: C_7  and  C_8 
REMARK    2  A    between atoms: C_8  and  N_9 
REMARK    3  A    between atoms: C_12  and  C_13 
REMARK    4  A    between atoms: C_13  and  C_14 
REMARK    5  A    between atoms: C_14  and  O_15 
ROOT
HETATM    1  C   UNL     1      43.958 -19.604   1.395  1.00  0.00     0.020 A 
HETATM    2  C   UNL     1      43.488 -18.316   1.509  1.00  0.00     0.117 A 
HETATM    3  N   UNL     1      43.290 -17.688   2.693  1.00  0.00    -0.260 NA
HETATM    4  C   UNL     1      43.599 -18.355   3.829  1.00  0.00     0.076 A 
HETATM    5  C   UNL     1      44.075 -19.688   3.828  1.00  0.00     0.011 A 
HETATM    6  C   UNL     1      44.248 -20.296   2.565  1.00  0.00     0.016 A 
HETATM    7  C   UNL     1      43.417 -17.695   5.048  1.00  0.00    -0.003 A 
HETATM    8  C   UNL     1      43.699 -18.333   6.265  1.00  0.00     0.012 A 
HETATM    9  C   UNL     1      44.156 -19.645   6.273  1.00  0.00     0.020 A 
HETATM   10  C   UNL     1      44.347 -20.320   5.067  1.00  0.00     0.023 A 
HETATM   11 BR   UNL     1      44.979 -22.111   5.188  1.00  0.00    -0.050 Br
ENDROOT
BRANCH   7  12
HETATM   12  C   UNL     1      42.963 -16.254   5.054  1.00  0.00     0.275 C 
BRANCH  12  13
HETATM   13  N   UNL     1      41.472 -16.082   4.951  1.00  0.00    -0.067 N 
HETATM   14  H   UNL     1      41.115 -17.051   5.070  1.00  0.00     0.280 HD
HETATM   15  C   UNL     1      40.993 -15.557   3.624  1.00  0.00     0.240 C 
HETATM   16  C   UNL     1      40.491 -14.153   3.938  1.00  0.00     0.015 C 
HETATM   17  C   UNL     1      39.858 -14.352   5.311  1.00  0.00     0.034 C 
HETATM   18  C   UNL     1      40.861 -15.227   6.036  1.00  0.00     0.235 C 
BRANCH  16  19
HETATM   19  C   UNL     1      39.553 -13.626   2.846  1.00  0.00     0.032 C 
BRANCH  19  20
HETATM   20  C   UNL     1      39.533 -14.484   1.585  1.00  0.00     0.164 C 
BRANCH  20  21
HETATM   21  O   UNL     1      38.243 -15.043   1.408  1.00  0.00    -0.401 OA
HETATM   22  H   UNL     1      37.941 -15.352   2.283  1.00  0.00     0.209 HD
ENDBRANCH  20  21
ENDBRANCH  19  20
ENDBRANCH  16  19
ENDBRANCH  12  13
ENDBRANCH   7  12
TORSDOF 5
ENDMDL
