MODEL 1
REMARK VINA RESULT:      -8.0      0.000      0.000
REMARK  7 active torsions:
REMARK  status: ('A' for Active; 'I' for Inactive)
REMARK    1  A    between atoms: C_2  and  N_3 
REMARK    2  A    between atoms: C_2  and  C_17 
REMARK       I    between atoms: N_3  and  C_4 
REMARK    3  A    between atoms: C_4  and  C_5 
REMARK    4  A    between atoms: C_6  and  N_7 
REMARK    5  A    between atoms: C_17  and  O_18 
REMARK    6  A    between atoms: C_17  and  C_19 
REMARK    7  A    between atoms: C_22  and  O_23 
ROOT
HETATM    1  N   UNL     1      42.845 -17.782   3.419  1.00  0.00    -0.350 N 
HETATM    2  C   UNL     1      43.621 -18.563   2.603  1.00  0.00     0.255 C 
HETATM    3  O   UNL     1      43.918 -18.218   1.462  1.00  0.00    -0.268 OA
HETATM    4  H   UNL     1      42.946 -17.968   4.412  1.00  0.00     0.163 HD
ENDROOT
BRANCH   1   5
HETATM    5  C   UNL     1      42.441 -16.418   3.042  1.00  0.00     0.114 C 
HETATM    6  C   UNL     1      42.787 -15.434   4.166  1.00  0.00     0.035 C 
BRANCH   5   7
HETATM    7  C   UNL     1      40.926 -16.399   2.681  1.00  0.00     0.173 C 
BRANCH   7   8
HETATM    8  O   UNL     1      40.153 -15.821   3.742  1.00  0.00    -0.389 OA
HETATM    9  H   UNL     1      40.708 -15.131   4.143  1.00  0.00     0.210 HD
ENDBRANCH   7   8
BRANCH   7  10
HETATM   10  C   UNL     1      40.636 -15.701   1.366  1.00  0.00    -0.028 A 
HETATM   11  C   UNL     1      41.373 -16.043   0.223  1.00  0.00     0.012 A 
HETATM   12  C   UNL     1      41.133 -15.407  -0.997  1.00  0.00     0.037 A 
HETATM   13  C   UNL     1      40.152 -14.420  -1.106  1.00  0.00     0.068 A 
HETATM   14  C   UNL     1      39.412 -14.073   0.023  1.00  0.00     0.037 A 
HETATM   15  C   UNL     1      39.653 -14.708   1.248  1.00  0.00     0.012 A 
BRANCH  13  16
HETATM   16  O   UNL     1      40.020 -13.882  -2.356  1.00  0.00    -0.356 OA
HETATM   17  C   UNL     1      40.923 -14.345  -3.351  1.00  0.00     0.210 C 
ENDBRANCH  13  16
ENDBRANCH   7  10
ENDBRANCH   5   7
ENDBRANCH   1   5
BRANCH   2  18
HETATM   18  C   UNL     1      44.029 -19.922   3.078  1.00  0.00     0.079 A 
HETATM   19  C   UNL     1      44.384 -20.387   4.352  1.00  0.00     0.165 A 
HETATM   20  N   UNL     1      44.736 -21.702   4.571  1.00  0.00    -0.241 NA
HETATM   21  C   UNL     1      44.743 -22.565   3.536  1.00  0.00     0.119 A 
HETATM   22  C   UNL     1      44.417 -22.198   2.253  1.00  0.00     0.020 A 
HETATM   23  C   UNL     1      44.062 -20.872   2.031  1.00  0.00     0.022 A 
BRANCH  19  24
HETATM   24  N   UNL     1      44.461 -19.576   5.536  1.00  0.00    -0.226 N 
HETATM   25  N   UNL     1      45.197 -18.435   5.659  1.00  0.00    -0.179 NA
HETATM   26  C   UNL     1      45.015 -18.041   6.922  1.00  0.00     0.141 A 
HETATM   27  C   UNL     1      44.119 -18.858   7.620  1.00  0.00     0.040 A 
HETATM   28  C   UNL     1      43.765 -19.822   6.711  1.00  0.00     0.122 A 
ENDBRANCH  19  24
ENDBRANCH   2  18
TORSDOF 7
ENDMDL
MODEL 2
REMARK VINA RESULT:      -7.5      2.385      3.913
REMARK  7 active torsions:
REMARK  status: ('A' for Active; 'I' for Inactive)
REMARK    1  A    between atoms: C_2  and  N_3 
REMARK    2  A    between atoms: C_2  and  C_17 
REMARK       I    between atoms: N_3  and  C_4 
REMARK    3  A    between atoms: C_4  and  C_5 
REMARK    4  A    between atoms: C_6  and  N_7 
REMARK    5  A    between atoms: C_17  and  O_18 
REMARK    6  A    between atoms: C_17  and  C_19 
REMARK    7  A    between atoms: C_22  and  O_23 
ROOT
HETATM    1  N   UNL     1      42.556 -17.629   4.927  1.00  0.00    -0.350 N 
HETATM    2  C   UNL     1      43.742 -18.312   4.860  1.00  0.00     0.255 C 
HETATM    3  O   UNL     1      44.713 -18.000   5.546  1.00  0.00    -0.268 OA
HETATM    4  H   UNL     1      41.743 -18.150   4.612  1.00  0.00     0.163 HD
ENDROOT
BRANCH   1   5
HETATM    5  C   UNL     1      42.316 -16.576   5.926  1.00  0.00     0.114 C 
HETATM    6  C   UNL     1      42.124 -17.198   7.315  1.00  0.00     0.035 C 
BRANCH   5   7
HETATM    7  C   UNL     1      41.101 -15.704   5.491  1.00  0.00     0.173 C 
BRANCH   7   8
HETATM    8  O   UNL     1      40.614 -14.919   6.588  1.00  0.00    -0.389 OA
HETATM    9  H   UNL     1      39.658 -14.816   6.451  1.00  0.00     0.210 HD
ENDBRANCH   7   8
BRANCH   7  10
HETATM   10  C   UNL     1      41.399 -14.823   4.293  1.00  0.00    -0.028 A 
HETATM   11  C   UNL     1      42.715 -14.397   4.059  1.00  0.00     0.012 A 
HETATM   12  C   UNL     1      43.014 -13.576   2.968  1.00  0.00     0.037 A 
HETATM   13  C   UNL     1      42.011 -13.164   2.089  1.00  0.00     0.068 A 
HETATM   14  C   UNL     1      40.701 -13.583   2.312  1.00  0.00     0.037 A 
HETATM   15  C   UNL     1      40.398 -14.405   3.405  1.00  0.00     0.012 A 
BRANCH  13  16
HETATM   16  O   UNL     1      42.442 -12.366   1.065  1.00  0.00    -0.356 OA
HETATM   17  C   UNL     1      41.985 -12.696  -0.240  1.00  0.00     0.210 C 
ENDBRANCH  13  16
ENDBRANCH   7  10
ENDBRANCH   5   7
ENDBRANCH   1   5
BRANCH   2  18
HETATM   18  C   UNL     1      43.893 -19.401   3.845  1.00  0.00     0.079 A 
HETATM   19  C   UNL     1      43.523 -19.461   2.494  1.00  0.00     0.165 A 
HETATM   20  N   UNL     1      43.757 -20.583   1.729  1.00  0.00    -0.241 NA
HETATM   21  C   UNL     1      44.351 -21.654   2.290  1.00  0.00     0.119 A 
HETATM   22  C   UNL     1      44.740 -21.690   3.607  1.00  0.00     0.020 A 
HETATM   23  C   UNL     1      44.506 -20.558   4.380  1.00  0.00     0.022 A 
BRANCH  19  24
HETATM   24  N   UNL     1      42.848 -18.416   1.774  1.00  0.00    -0.226 N 
HETATM   25  N   UNL     1      41.514 -18.146   1.853  1.00  0.00    -0.179 NA
HETATM   26  C   UNL     1      41.314 -17.140   0.996  1.00  0.00     0.141 A 
HETATM   27  C   UNL     1      42.499 -16.692   0.402  1.00  0.00     0.040 A 
HETATM   28  C   UNL     1      43.467 -17.510   0.926  1.00  0.00     0.122 A 
ENDBRANCH  19  24
ENDBRANCH   2  18
TORSDOF 7
ENDMDL
MODEL 3
REMARK VINA RESULT:      -7.4      1.762      3.681
REMARK  7 active torsions:
REMARK  status: ('A' for Active; 'I' for Inactive)
REMARK    1  A    between atoms: C_2  and  N_3 
REMARK    2  A    between atoms: C_2  and  C_17 
REMARK       I    between atoms: N_3  and  C_4 
REMARK    3  A    between atoms: C_4  and  C_5 
REMARK    4  A    between atoms: C_6  and  N_7 
REMARK    5  A    between atoms: C_17  and  O_18 
REMARK    6  A    between atoms: C_17  and  C_19 
REMARK    7  A    between atoms: C_22  and  O_23 
ROOT
HETATM    1  N   UNL     1      41.460 -16.508   3.200  1.00  0.00    -0.350 N 
HETATM    2  C   UNL     1      42.554 -16.198   3.965  1.00  0.00     0.255 C 
HETATM    3  O   UNL     1      43.304 -15.267   3.682  1.00  0.00    -0.268 OA
HETATM    4  H   UNL     1      40.735 -17.031   3.681  1.00  0.00     0.163 HD
ENDROOT
BRANCH   1   5
HETATM    5  C   UNL     1      41.025 -15.660   2.078  1.00  0.00     0.114 C 
HETATM    6  C   UNL     1      39.519 -15.390   2.172  1.00  0.00     0.035 C 
BRANCH   5   7
HETATM    7  C   UNL     1      41.428 -16.326   0.729  1.00  0.00     0.173 C 
BRANCH   7   8
HETATM    8  O   UNL     1      40.607 -17.471   0.458  1.00  0.00    -0.389 OA
HETATM    9  H   UNL     1      40.282 -17.369  -0.452  1.00  0.00     0.210 HD
ENDBRANCH   7   8
BRANCH   7  10
HETATM   10  C   UNL     1      41.403 -15.362  -0.442  1.00  0.00    -0.028 A 
HETATM   11  C   UNL     1      41.023 -15.825  -1.711  1.00  0.00     0.012 A 
HETATM   12  C   UNL     1      41.002 -14.959  -2.808  1.00  0.00     0.037 A 
HETATM   13  C   UNL     1      41.355 -13.617  -2.664  1.00  0.00     0.068 A 
HETATM   14  C   UNL     1      41.732 -13.146  -1.407  1.00  0.00     0.037 A 
HETATM   15  C   UNL     1      41.756 -14.012  -0.307  1.00  0.00     0.012 A 
BRANCH  13  16
HETATM   16  O   UNL     1      41.289 -12.882  -3.816  1.00  0.00    -0.356 OA
HETATM   17  C   UNL     1      42.206 -11.803  -3.940  1.00  0.00     0.210 C 
ENDBRANCH  13  16
ENDBRANCH   7  10
ENDBRANCH   5   7
ENDBRANCH   1   5
BRANCH   2  18
HETATM   18  C   UNL     1      42.905 -17.085   5.117  1.00  0.00     0.079 A 
HETATM   19  C   UNL     1      43.404 -18.395   5.154  1.00  0.00     0.165 A 
HETATM   20  N   UNL     1      43.659 -19.039   6.346  1.00  0.00    -0.241 NA
HETATM   21  C   UNL     1      43.421 -18.399   7.507  1.00  0.00     0.119 A 
HETATM   22  C   UNL     1      42.926 -17.119   7.568  1.00  0.00     0.020 A 
HETATM   23  C   UNL     1      42.669 -16.468   6.367  1.00  0.00     0.022 A 
BRANCH  19  24
HETATM   24  N   UNL     1      43.666 -19.213   4.002  1.00  0.00    -0.226 N 
HETATM   25  N   UNL     1      42.984 -19.149   2.823  1.00  0.00    -0.179 NA
HETATM   26  C   UNL     1      43.523 -20.105   2.060  1.00  0.00     0.141 A 
HETATM   27  C   UNL     1      44.593 -20.755   2.683  1.00  0.00     0.040 A 
HETATM   28  C   UNL     1      44.678 -20.159   3.915  1.00  0.00     0.122 A 
ENDBRANCH  19  24
ENDBRANCH   2  18
TORSDOF 7
ENDMDL
MODEL 4
REMARK VINA RESULT:      -7.2      3.536      8.705
REMARK  7 active torsions:
REMARK  status: ('A' for Active; 'I' for Inactive)
REMARK    1  A    between atoms: C_2  and  N_3 
REMARK    2  A    between atoms: C_2  and  C_17 
REMARK       I    between atoms: N_3  and  C_4 
REMARK    3  A    between atoms: C_4  and  C_5 
REMARK    4  A    between atoms: C_6  and  N_7 
REMARK    5  A    between atoms: C_17  and  O_18 
REMARK    6  A    between atoms: C_17  and  C_19 
REMARK    7  A    between atoms: C_22  and  O_23 
ROOT
HETATM    1  N   UNL     1      41.110 -14.843   0.821  1.00  0.00    -0.350 N 
HETATM    2  C   UNL     1      40.375 -14.078  -0.046  1.00  0.00     0.255 C 
HETATM    3  O   UNL     1      39.163 -13.926   0.088  1.00  0.00    -0.268 OA
HETATM    4  H   UNL     1      42.103 -14.630   0.844  1.00  0.00     0.163 HD
ENDROOT
BRANCH   1   5
HETATM    5  C   UNL     1      40.530 -15.408   2.050  1.00  0.00     0.114 C 
HETATM    6  C   UNL     1      41.266 -14.865   3.281  1.00  0.00     0.035 C 
BRANCH   5   7
HETATM    7  C   UNL     1      40.559 -16.963   1.978  1.00  0.00     0.173 C 
BRANCH   7   8
HETATM    8  O   UNL     1      40.622 -17.412   0.617  1.00  0.00    -0.389 OA
HETATM    9  H   UNL     1      39.964 -16.893   0.124  1.00  0.00     0.210 HD
ENDBRANCH   7   8
BRANCH   7  10
HETATM   10  C   UNL     1      41.679 -17.577   2.795  1.00  0.00    -0.028 A 
HETATM   11  C   UNL     1      42.854 -17.997   2.153  1.00  0.00     0.012 A 
HETATM   12  C   UNL     1      43.897 -18.575   2.882  1.00  0.00     0.037 A 
HETATM   13  C   UNL     1      43.793 -18.744   4.264  1.00  0.00     0.068 A 
HETATM   14  C   UNL     1      42.631 -18.329   4.912  1.00  0.00     0.037 A 
HETATM   15  C   UNL     1      41.584 -17.751   4.183  1.00  0.00     0.012 A 
BRANCH  13  16
HETATM   16  O   UNL     1      44.885 -19.320   4.852  1.00  0.00    -0.356 OA
HETATM   17  C   UNL     1      45.005 -20.732   4.735  1.00  0.00     0.210 C 
ENDBRANCH  13  16
ENDBRANCH   7  10
ENDBRANCH   5   7
ENDBRANCH   1   5
BRANCH   2  18
HETATM   18  C   UNL     1      41.048 -13.500  -1.251  1.00  0.00     0.079 A 
HETATM   19  C   UNL     1      40.804 -13.682  -2.620  1.00  0.00     0.165 A 
HETATM   20  N   UNL     1      41.560 -13.045  -3.580  1.00  0.00    -0.241 NA
HETATM   21  C   UNL     1      42.563 -12.229  -3.198  1.00  0.00     0.119 A 
HETATM   22  C   UNL     1      42.879 -11.997  -1.882  1.00  0.00     0.020 A 
HETATM   23  C   UNL     1      42.117 -12.639  -0.912  1.00  0.00     0.022 A 
BRANCH  19  24
HETATM   24  N   UNL     1      39.801 -14.549  -3.174  1.00  0.00    -0.226 N 
HETATM   25  N   UNL     1      40.030 -15.802  -3.661  1.00  0.00    -0.179 NA
HETATM   26  C   UNL     1      38.843 -16.220  -4.110  1.00  0.00     0.141 A 
HETATM   27  C   UNL     1      37.819 -15.299  -3.868  1.00  0.00     0.040 A 
HETATM   28  C   UNL     1      38.449 -14.247  -3.255  1.00  0.00     0.122 A 
ENDBRANCH  19  24
ENDBRANCH   2  18
TORSDOF 7
ENDMDL
MODEL 5
REMARK VINA RESULT:      -7.1      2.388      4.155
REMARK  7 active torsions:
REMARK  status: ('A' for Active; 'I' for Inactive)
REMARK    1  A    between atoms: C_2  and  N_3 
REMARK    2  A    between atoms: C_2  and  C_17 
REMARK       I    between atoms: N_3  and  C_4 
REMARK    3  A    between atoms: C_4  and  C_5 
REMARK    4  A    between atoms: C_6  and  N_7 
REMARK    5  A    between atoms: C_17  and  O_18 
REMARK    6  A    between atoms: C_17  and  C_19 
REMARK    7  A    between atoms: C_22  and  O_23 
ROOT
HETATM    1  N   UNL     1      42.524 -16.880   1.831  1.00  0.00    -0.350 N 
HETATM    2  C   UNL     1      42.228 -17.576   2.974  1.00  0.00     0.255 C 
HETATM    3  O   UNL     1      41.216 -17.345   3.633  1.00  0.00    -0.268 OA
HETATM    4  H   UNL     1      43.154 -17.355   1.192  1.00  0.00     0.163 HD
ENDROOT
BRANCH   1   5
HETATM    5  C   UNL     1      41.583 -15.919   1.235  1.00  0.00     0.114 C 
HETATM    6  C   UNL     1      41.340 -16.262  -0.240  1.00  0.00     0.035 C 
BRANCH   5   7
HETATM    7  C   UNL     1      42.118 -14.469   1.429  1.00  0.00     0.173 C 
BRANCH   7   8
HETATM    8  O   UNL     1      41.689 -13.617   0.357  1.00  0.00    -0.389 OA
HETATM    9  H   UNL     1      42.475 -13.440  -0.186  1.00  0.00     0.210 HD
ENDBRANCH   7   8
BRANCH   7  10
HETATM   10  C   UNL     1      41.742 -13.870   2.771  1.00  0.00    -0.028 A 
HETATM   11  C   UNL     1      42.752 -13.535   3.685  1.00  0.00     0.012 A 
HETATM   12  C   UNL     1      42.432 -12.991   4.932  1.00  0.00     0.037 A 
HETATM   13  C   UNL     1      41.102 -12.769   5.293  1.00  0.00     0.068 A 
HETATM   14  C   UNL     1      40.091 -13.097   4.392  1.00  0.00     0.037 A 
HETATM   15  C   UNL     1      40.410 -13.644   3.142  1.00  0.00     0.012 A 
BRANCH  13  16
HETATM   16  O   UNL     1      40.932 -12.232   6.539  1.00  0.00    -0.356 OA
HETATM   17  C   UNL     1      39.670 -11.636   6.812  1.00  0.00     0.210 C 
ENDBRANCH  13  16
ENDBRANCH   7  10
ENDBRANCH   5   7
ENDBRANCH   1   5
BRANCH   2  18
HETATM   18  C   UNL     1      43.219 -18.569   3.494  1.00  0.00     0.079 A 
HETATM   19  C   UNL     1      43.843 -18.682   4.744  1.00  0.00     0.165 A 
HETATM   20  N   UNL     1      44.743 -19.691   5.015  1.00  0.00    -0.241 NA
HETATM   21  C   UNL     1      45.037 -20.589   4.055  1.00  0.00     0.119 A 
HETATM   22  C   UNL     1      44.481 -20.552   2.799  1.00  0.00     0.020 A 
HETATM   23  C   UNL     1      43.573 -19.537   2.526  1.00  0.00     0.022 A 
BRANCH  19  24
HETATM   24  N   UNL     1      43.659 -17.778   5.845  1.00  0.00    -0.226 N 
HETATM   25  N   UNL     1      43.908 -16.438   5.809  1.00  0.00    -0.179 NA
HETATM   26  C   UNL     1      43.648 -16.004   7.046  1.00  0.00     0.141 A 
HETATM   27  C   UNL     1      43.166 -17.016   7.883  1.00  0.00     0.040 A 
HETATM   28  C   UNL     1      43.165 -18.136   7.092  1.00  0.00     0.122 A 
ENDBRANCH  19  24
ENDBRANCH   2  18
TORSDOF 7
ENDMDL
MODEL 6
REMARK VINA RESULT:      -7.0      5.831      9.054
REMARK  7 active torsions:
REMARK  status: ('A' for Active; 'I' for Inactive)
REMARK    1  A    between atoms: C_2  and  N_3 
REMARK    2  A    between atoms: C_2  and  C_17 
REMARK       I    between atoms: N_3  and  C_4 
REMARK    3  A    between atoms: C_4  and  C_5 
REMARK    4  A    between atoms: C_6  and  N_7 
REMARK    5  A    between atoms: C_17  and  O_18 
REMARK    6  A    between atoms: C_17  and  C_19 
REMARK    7  A    between atoms: C_22  and  O_23 
ROOT
HETATM    1  N   UNL     1      41.740 -11.951   7.054  1.00  0.00    -0.350 N 
HETATM    2  C   UNL     1      42.085 -10.858   7.806  1.00  0.00     0.255 C 
HETATM    3  O   UNL     1      42.146  -9.729   7.325  1.00  0.00    -0.268 OA
HETATM    4  H   UNL     1      41.383 -12.740   7.585  1.00  0.00     0.163 HD
ENDROOT
BRANCH   1   5
HETATM    5  C   UNL     1      41.275 -11.827   5.664  1.00  0.00     0.114 C 
HETATM    6  C   UNL     1      39.742 -11.792   5.620  1.00  0.00     0.035 C 
BRANCH   5   7
HETATM    7  C   UNL     1      41.868 -12.984   4.806  1.00  0.00     0.173 C 
BRANCH   7   8
HETATM    8  O   UNL     1      43.115 -12.595   4.213  1.00  0.00    -0.389 OA
HETATM    9  H   UNL     1      42.898 -12.183   3.359  1.00  0.00     0.210 HD
ENDBRANCH   7   8
BRANCH   7  10
HETATM   10  C   UNL     1      42.025 -14.279   5.579  1.00  0.00    -0.028 A 
HETATM   11  C   UNL     1      43.288 -14.643   6.070  1.00  0.00     0.012 A 
HETATM   12  C   UNL     1      43.462 -15.836   6.777  1.00  0.00     0.037 A 
HETATM   13  C   UNL     1      42.382 -16.689   7.011  1.00  0.00     0.068 A 
HETATM   14  C   UNL     1      41.123 -16.337   6.530  1.00  0.00     0.037 A 
HETATM   15  C   UNL     1      40.947 -15.142   5.820  1.00  0.00     0.012 A 
BRANCH  13  16
HETATM   16  O   UNL     1      42.692 -17.820   7.716  1.00  0.00    -0.356 OA
HETATM   17  C   UNL     1      43.868 -18.516   7.324  1.00  0.00     0.210 C 
ENDBRANCH  13  16
ENDBRANCH   7  10
ENDBRANCH   5   7
ENDBRANCH   1   5
BRANCH   2  18
HETATM   18  C   UNL     1      42.505 -11.062   9.228  1.00  0.00     0.079 A 
HETATM   19  C   UNL     1      43.744 -11.415   9.782  1.00  0.00     0.165 A 
HETATM   20  N   UNL     1      43.914 -11.555  11.143  1.00  0.00    -0.241 NA
HETATM   21  C   UNL     1      42.865 -11.353  11.964  1.00  0.00     0.119 A 
HETATM   22  C   UNL     1      41.614 -11.012  11.511  1.00  0.00     0.020 A 
HETATM   23  C   UNL     1      41.442 -10.870  10.139  1.00  0.00     0.022 A 
BRANCH  19  24
HETATM   24  N   UNL     1      44.935 -11.700   9.031  1.00  0.00    -0.226 N 
HETATM   25  N   UNL     1      46.046 -10.910   8.993  1.00  0.00    -0.179 NA
HETATM   26  C   UNL     1      46.879 -11.526   8.149  1.00  0.00     0.141 A 
HETATM   27  C   UNL     1      46.372 -12.742   7.679  1.00  0.00     0.040 A 
HETATM   28  C   UNL     1      45.137 -12.842   8.268  1.00  0.00     0.122 A 
ENDBRANCH  19  24
ENDBRANCH   2  18
TORSDOF 7
ENDMDL
MODEL 7
REMARK VINA RESULT:      -7.0      3.495      8.017
REMARK  7 active torsions:
REMARK  status: ('A' for Active; 'I' for Inactive)
REMARK    1  A    between atoms: C_2  and  N_3 
REMARK    2  A    between atoms: C_2  and  C_17 
REMARK       I    between atoms: N_3  and  C_4 
REMARK    3  A    between atoms: C_4  and  C_5 
REMARK    4  A    between atoms: C_6  and  N_7 
REMARK    5  A    between atoms: C_17  and  O_18 
REMARK    6  A    between atoms: C_17  and  C_19 
REMARK    7  A    between atoms: C_22  and  O_23 
ROOT
HETATM    1  N   UNL     1      42.098 -14.899   1.488  1.00  0.00    -0.350 N 
HETATM    2  C   UNL     1      41.162 -14.202   0.769  1.00  0.00     0.255 C 
HETATM    3  O   UNL     1      40.183 -13.686   1.304  1.00  0.00    -0.268 OA
HETATM    4  H   UNL     1      43.008 -14.975   1.044  1.00  0.00     0.163 HD
ENDROOT
BRANCH   1   5
HETATM    5  C   UNL     1      42.077 -14.948   2.958  1.00  0.00     0.114 C 
HETATM    6  C   UNL     1      43.492 -14.745   3.515  1.00  0.00     0.035 C 
BRANCH   5   7
HETATM    7  C   UNL     1      41.438 -16.287   3.431  1.00  0.00     0.173 C 
BRANCH   7   8
HETATM    8  O   UNL     1      40.154 -16.485   2.822  1.00  0.00    -0.389 OA
HETATM    9  H   UNL     1      40.277 -17.160   2.133  1.00  0.00     0.210 HD
ENDBRANCH   7   8
BRANCH   7  10
HETATM   10  C   UNL     1      42.333 -17.489   3.195  1.00  0.00    -0.028 A 
HETATM   11  C   UNL     1      43.044 -18.043   4.270  1.00  0.00     0.012 A 
HETATM   12  C   UNL     1      43.883 -19.144   4.077  1.00  0.00     0.037 A 
HETATM   13  C   UNL     1      44.028 -19.717   2.812  1.00  0.00     0.068 A 
HETATM   14  C   UNL     1      43.324 -19.176   1.738  1.00  0.00     0.037 A 
HETATM   15  C   UNL     1      42.485 -18.071   1.929  1.00  0.00     0.012 A 
BRANCH  13  16
HETATM   16  O   UNL     1      44.877 -20.789   2.766  1.00  0.00    -0.356 OA
HETATM   17  C   UNL     1      44.447 -21.913   2.010  1.00  0.00     0.210 C 
ENDBRANCH  13  16
ENDBRANCH   7  10
ENDBRANCH   5   7
ENDBRANCH   1   5
BRANCH   2  18
HETATM   18  C   UNL     1      41.277 -14.162  -0.722  1.00  0.00     0.079 A 
HETATM   19  C   UNL     1      41.651 -13.127  -1.591  1.00  0.00     0.165 A 
HETATM   20  N   UNL     1      41.687 -13.307  -2.957  1.00  0.00    -0.241 NA
HETATM   21  C   UNL     1      41.351 -14.504  -3.475  1.00  0.00     0.119 A 
HETATM   22  C   UNL     1      40.965 -15.573  -2.703  1.00  0.00     0.020 A 
HETATM   23  C   UNL     1      40.929 -15.393  -1.324  1.00  0.00     0.022 A 
BRANCH  19  24
HETATM   24  N   UNL     1      41.994 -11.791  -1.187  1.00  0.00    -0.226 N 
HETATM   25  N   UNL     1      41.143 -10.910  -0.588  1.00  0.00    -0.179 NA
HETATM   26  C   UNL     1      41.856  -9.791  -0.433  1.00  0.00     0.141 A 
HETATM   27  C   UNL     1      43.182  -9.933  -0.854  1.00  0.00     0.040 A 
HETATM   28  C   UNL     1      43.253 -11.222  -1.316  1.00  0.00     0.122 A 
ENDBRANCH  19  24
ENDBRANCH   2  18
TORSDOF 7
ENDMDL
MODEL 8
REMARK VINA RESULT:      -7.0      2.207      2.724
REMARK  7 active torsions:
REMARK  status: ('A' for Active; 'I' for Inactive)
REMARK    1  A    between atoms: C_2  and  N_3 
REMARK    2  A    between atoms: C_2  and  C_17 
REMARK       I    between atoms: N_3  and  C_4 
REMARK    3  A    between atoms: C_4  and  C_5 
REMARK    4  A    between atoms: C_6  and  N_7 
REMARK    5  A    between atoms: C_17  and  O_18 
REMARK    6  A    between atoms: C_17  and  C_19 
REMARK    7  A    between atoms: C_22  and  O_23 
ROOT
HETATM    1  N   UNL     1      42.346 -16.497   2.960  1.00  0.00    -0.350 N 
HETATM    2  C   UNL     1      42.424 -17.762   2.437  1.00  0.00     0.255 C 
HETATM    3  O   UNL     1      41.744 -18.110   1.474  1.00  0.00    -0.268 OA
HETATM    4  H   UNL     1      43.159 -16.204   3.493  1.00  0.00     0.163 HD
ENDROOT
BRANCH   1   5
HETATM    5  C   UNL     1      41.561 -15.432   2.317  1.00  0.00     0.114 C 
HETATM    6  C   UNL     1      42.416 -14.169   2.153  1.00  0.00     0.035 C 
BRANCH   5   7
HETATM    7  C   UNL     1      40.262 -15.169   3.135  1.00  0.00     0.173 C 
BRANCH   7   8
HETATM    8  O   UNL     1      40.574 -14.740   4.468  1.00  0.00    -0.389 OA
HETATM    9  H   UNL     1      41.309 -15.299   4.773  1.00  0.00     0.210 HD
ENDBRANCH   7   8
BRANCH   7  10
HETATM   10  C   UNL     1      39.324 -14.185   2.463  1.00  0.00    -0.028 A 
HETATM   11  C   UNL     1      38.501 -14.620   1.413  1.00  0.00     0.012 A 
HETATM   12  C   UNL     1      37.636 -13.730   0.770  1.00  0.00     0.037 A 
HETATM   13  C   UNL     1      37.570 -12.392   1.161  1.00  0.00     0.068 A 
HETATM   14  C   UNL     1      38.381 -11.949   2.204  1.00  0.00     0.037 A 
HETATM   15  C   UNL     1      39.251 -12.839   2.848  1.00  0.00     0.012 A 
BRANCH  13  16
HETATM   16  O   UNL     1      36.681 -11.633   0.450  1.00  0.00    -0.356 OA
HETATM   17  C   UNL     1      36.855 -11.598  -0.961  1.00  0.00     0.210 C 
ENDBRANCH  13  16
ENDBRANCH   7  10
ENDBRANCH   5   7
ENDBRANCH   1   5
BRANCH   2  18
HETATM   18  C   UNL     1      43.280 -18.778   3.124  1.00  0.00     0.079 A 
HETATM   19  C   UNL     1      43.683 -18.891   4.462  1.00  0.00     0.165 A 
HETATM   20  N   UNL     1      44.491 -19.923   4.890  1.00  0.00    -0.241 NA
HETATM   21  C   UNL     1      44.910 -20.846   4.002  1.00  0.00     0.119 A 
HETATM   22  C   UNL     1      44.573 -20.811   2.670  1.00  0.00     0.020 A 
HETATM   23  C   UNL     1      43.757 -19.771   2.239  1.00  0.00     0.022 A 
BRANCH  19  24
HETATM   24  N   UNL     1      43.349 -17.964   5.508  1.00  0.00    -0.226 N 
HETATM   25  N   UNL     1      42.091 -17.523   5.793  1.00  0.00    -0.179 NA
HETATM   26  C   UNL     1      42.249 -16.652   6.794  1.00  0.00     0.141 A 
HETATM   27  C   UNL     1      43.576 -16.558   7.225  1.00  0.00     0.040 A 
HETATM   28  C   UNL     1      44.258 -17.416   6.402  1.00  0.00     0.122 A 
ENDBRANCH  19  24
ENDBRANCH   2  18
TORSDOF 7
ENDMDL
MODEL 9
REMARK VINA RESULT:      -6.8      2.487      4.674
REMARK  7 active torsions:
REMARK  status: ('A' for Active; 'I' for Inactive)
REMARK    1  A    between atoms: C_2  and  N_3 
REMARK    2  A    between atoms: C_2  and  C_17 
REMARK       I    between atoms: N_3  and  C_4 
REMARK    3  A    between atoms: C_4  and  C_5 
REMARK    4  A    between atoms: C_6  and  N_7 
REMARK    5  A    between atoms: C_17  and  O_18 
REMARK    6  A    between atoms: C_17  and  C_19 
REMARK    7  A    between atoms: C_22  and  O_23 
ROOT
HETATM    1  N   UNL     1      42.451 -16.454   2.673  1.00  0.00    -0.350 N 
HETATM    2  C   UNL     1      42.159 -17.108   3.842  1.00  0.00     0.255 C 
HETATM    3  O   UNL     1      41.004 -17.258   4.233  1.00  0.00    -0.268 OA
HETATM    4  H   UNL     1      43.354 -16.682   2.269  1.00  0.00     0.163 HD
ENDROOT
BRANCH   1   5
HETATM    5  C   UNL     1      41.401 -16.022   1.736  1.00  0.00     0.114 C 
HETATM    6  C   UNL     1      41.439 -16.881   0.466  1.00  0.00     0.035 C 
BRANCH   5   7
HETATM    7  C   UNL     1      41.562 -14.503   1.432  1.00  0.00     0.173 C 
BRANCH   7   8
HETATM    8  O   UNL     1      41.275 -14.223   0.054  1.00  0.00    -0.389 OA
HETATM    9  H   UNL     1      40.492 -14.751  -0.178  1.00  0.00     0.210 HD
ENDBRANCH   7   8
BRANCH   7  10
HETATM   10  C   UNL     1      40.726 -13.622   2.341  1.00  0.00    -0.028 A 
HETATM   11  C   UNL     1      39.615 -12.944   1.817  1.00  0.00     0.012 A 
HETATM   12  C   UNL     1      38.835 -12.119   2.631  1.00  0.00     0.037 A 
HETATM   13  C   UNL     1      39.143 -11.952   3.982  1.00  0.00     0.068 A 
HETATM   14  C   UNL     1      40.244 -12.622   4.514  1.00  0.00     0.037 A 
HETATM   15  C   UNL     1      41.028 -13.449   3.699  1.00  0.00     0.012 A 
BRANCH  13  16
HETATM   16  O   UNL     1      38.298 -11.119   4.662  1.00  0.00    -0.356 OA
HETATM   17  C   UNL     1      38.776  -9.809   4.938  1.00  0.00     0.210 C 
ENDBRANCH  13  16
ENDBRANCH   7  10
ENDBRANCH   5   7
ENDBRANCH   1   5
BRANCH   2  18
HETATM   18  C   UNL     1      43.284 -17.557   4.720  1.00  0.00     0.079 A 
HETATM   19  C   UNL     1      44.140 -18.663   4.629  1.00  0.00     0.165 A 
HETATM   20  N   UNL     1      45.125 -18.894   5.565  1.00  0.00    -0.241 NA
HETATM   21  C   UNL     1      45.270 -18.040   6.598  1.00  0.00     0.119 A 
HETATM   22  C   UNL     1      44.473 -16.935   6.772  1.00  0.00     0.020 A 
HETATM   23  C   UNL     1      43.479 -16.701   5.828  1.00  0.00     0.022 A 
BRANCH  19  24
HETATM   24  N   UNL     1      44.078 -19.676   3.612  1.00  0.00    -0.226 N 
HETATM   25  N   UNL     1      43.417 -19.556   2.425  1.00  0.00    -0.179 NA
HETATM   26  C   UNL     1      43.583 -20.734   1.817  1.00  0.00     0.141 A 
HETATM   27  C   UNL     1      44.398 -21.608   2.544  1.00  0.00     0.040 A 
HETATM   28  C   UNL     1      44.717 -20.906   3.678  1.00  0.00     0.122 A 
ENDBRANCH  19  24
ENDBRANCH   2  18
TORSDOF 7
ENDMDL
MODEL 10
REMARK VINA RESULT:      -6.8      1.823      3.732
REMARK  7 active torsions:
REMARK  status: ('A' for Active; 'I' for Inactive)
REMARK    1  A    between atoms: C_2  and  N_3 
REMARK    2  A    between atoms: C_2  and  C_17 
REMARK       I    between atoms: N_3  and  C_4 
REMARK    3  A    between atoms: C_4  and  C_5 
REMARK    4  A    between atoms: C_6  and  N_7 
REMARK    5  A    between atoms: C_17  and  O_18 
REMARK    6  A    between atoms: C_17  and  C_19 
REMARK    7  A    between atoms: C_22  and  O_23 
ROOT
HETATM    1  N   UNL     1      42.347 -16.614   2.707  1.00  0.00    -0.350 N 
HETATM    2  C   UNL     1      42.114 -17.223   3.912  1.00  0.00     0.255 C 
HETATM    3  O   UNL     1      40.982 -17.341   4.374  1.00  0.00    -0.268 OA
HETATM    4  H   UNL     1      43.223 -16.869   2.261  1.00  0.00     0.163 HD
ENDROOT
BRANCH   1   5
HETATM    5  C   UNL     1      41.252 -16.196   1.818  1.00  0.00     0.114 C 
HETATM    6  C   UNL     1      41.527 -16.664   0.384  1.00  0.00     0.035 C 
BRANCH   5   7
HETATM    7  C   UNL     1      41.056 -14.654   1.913  1.00  0.00     0.173 C 
BRANCH   7   8
HETATM    8  O   UNL     1      42.301 -13.967   1.730  1.00  0.00    -0.389 OA
HETATM    9  H   UNL     1      42.079 -13.046   1.511  1.00  0.00     0.210 HD
ENDBRANCH   7   8
BRANCH   7  10
HETATM   10  C   UNL     1      40.008 -14.126   0.951  1.00  0.00    -0.028 A 
HETATM   11  C   UNL     1      40.407 -13.354  -0.150  1.00  0.00     0.012 A 
HETATM   12  C   UNL     1      39.461 -12.847  -1.045  1.00  0.00     0.037 A 
HETATM   13  C   UNL     1      38.100 -13.101  -0.863  1.00  0.00     0.068 A 
HETATM   14  C   UNL     1      37.693 -13.868   0.226  1.00  0.00     0.037 A 
HETATM   15  C   UNL     1      38.640 -14.376   1.126  1.00  0.00     0.012 A 
BRANCH  13  16
HETATM   16  O   UNL     1      37.285 -12.547  -1.812  1.00  0.00    -0.356 OA
HETATM   17  C   UNL     1      36.586 -11.366  -1.445  1.00  0.00     0.210 C 
ENDBRANCH  13  16
ENDBRANCH   7  10
ENDBRANCH   5   7
ENDBRANCH   1   5
BRANCH   2  18
HETATM   18  C   UNL     1      43.282 -17.660   4.740  1.00  0.00     0.079 A 
HETATM   19  C   UNL     1      44.150 -18.753   4.606  1.00  0.00     0.165 A 
HETATM   20  N   UNL     1      45.177 -18.974   5.498  1.00  0.00    -0.241 NA
HETATM   21  C   UNL     1      45.352 -18.124   6.529  1.00  0.00     0.119 A 
HETATM   22  C   UNL     1      44.547 -17.032   6.744  1.00  0.00     0.020 A 
HETATM   23  C   UNL     1      43.511 -16.807   5.844  1.00  0.00     0.022 A 
BRANCH  19  24
HETATM   24  N   UNL     1      44.060 -19.761   3.586  1.00  0.00    -0.226 N 
HETATM   25  N   UNL     1      43.377 -19.631   2.413  1.00  0.00    -0.179 NA
HETATM   26  C   UNL     1      43.522 -20.807   1.796  1.00  0.00     0.141 A 
HETATM   27  C   UNL     1      44.344 -21.690   2.503  1.00  0.00     0.040 A 
HETATM   28  C   UNL     1      44.690 -20.996   3.634  1.00  0.00     0.122 A 
ENDBRANCH  19  24
ENDBRANCH   2  18
TORSDOF 7
ENDMDL
