MODEL 1
REMARK VINA RESULT:      -8.6      0.000      0.000
REMARK  6 active torsions:
REMARK  status: ('A' for Active; 'I' for Inactive)
REMARK    1  A    between atoms: C_2  and  N_3 
REMARK    2  A    between atoms: C_2  and  C_24 
REMARK       I    between atoms: N_3  and  C_4 
REMARK    3  A    between atoms: C_4  and  C_5 
REMARK    4  A    between atoms: C_5  and  N_6 
REMARK    5  A    between atoms: C_10  and  N_11 
REMARK       I    between atoms: N_11  and  C_12 
REMARK       I    between atoms: C_12  and  N_13 
REMARK    6  A    between atoms: N_13  and  C_14 
ROOT
HETATM    1  N   UNL     1      43.610 -14.101   6.604  1.00  0.00    -0.063 N 
HETATM    2  H   UNL     1      43.097 -13.389   7.143  1.00  0.00     0.280 HD
HETATM    3  C   UNL     1      43.521 -13.680   5.155  1.00  0.00     0.237 C 
HETATM    4  C   UNL     1      42.191 -14.047   4.532  1.00  0.00     0.053 C 
HETATM    5  C   UNL     1      41.823 -15.514   4.712  1.00  0.00     0.089 C 
HETATM    6  C   UNL     1      41.843 -15.886   6.191  1.00  0.00     0.053 C 
HETATM    7  C   UNL     1      43.083 -15.469   6.962  1.00  0.00     0.237 C 
ENDROOT
BRANCH   1   8
HETATM    8  C   UNL     1      45.072 -14.003   7.092  1.00  0.00     0.337 C 
BRANCH   8   9
HETATM    9  C   UNL     1      45.282 -12.900   8.128  1.00  0.00     0.244 C 
HETATM   10  N   UNL     1      44.230 -12.707   8.987  1.00  0.00    -0.351 N 
HETATM   11  H   UNL     1      43.397 -13.284   8.932  1.00  0.00     0.163 HD
HETATM   12  O   UNL     1      46.356 -12.310   8.200  1.00  0.00    -0.272 OA
BRANCH  10  13
HETATM   13  C   UNL     1      44.266 -11.751  10.085  1.00  0.00     0.120 C 
HETATM   14  C   UNL     1      44.199 -12.440  11.448  1.00  0.00     0.038 C 
BRANCH  13  15
HETATM   15  C   UNL     1      43.125 -10.782   9.890  1.00  0.00     0.005 A 
HETATM   16  S   UNL     1      42.574  -9.776  11.175  1.00  0.00    -0.104 SA
HETATM   17  C   UNL     1      41.374  -9.059  10.193  1.00  0.00     0.050 A 
HETATM   18  C   UNL     1      41.380  -9.570   8.916  1.00  0.00     0.008 A 
HETATM   19  C   UNL     1      42.388 -10.562   8.740  1.00  0.00     0.017 A 
ENDBRANCH  13  15
ENDBRANCH  10  13
ENDBRANCH   8   9
ENDBRANCH   1   8
BRANCH   5  20
HETATM   20  N   UNL     1      42.543 -16.408   3.800  1.00  0.00    -0.338 N 
HETATM   21  C   UNL     1      42.548 -17.781   3.820  1.00  0.00     0.321 C 
HETATM   22  N   UNL     1      43.575 -18.305   3.076  1.00  0.00    -0.309 N 
HETATM   23  O   UNL     1      41.769 -18.421   4.515  1.00  0.00    -0.247 OA
HETATM   24  H   UNL     1      44.298 -17.662   2.790  1.00  0.00     0.170 HD
HETATM   25  H   UNL     1      42.990 -15.978   2.999  1.00  0.00     0.164 HD
BRANCH  22  26
HETATM   26  C   UNL     1      43.898 -19.678   2.970  1.00  0.00     0.036 A 
HETATM   27  C   UNL     1      43.586 -20.460   1.855  1.00  0.00     0.029 A 
HETATM   28  C   UNL     1      43.899 -21.821   1.831  1.00  0.00     0.002 A 
HETATM   29  C   UNL     1      44.530 -22.412   2.923  1.00  0.00     0.000 A 
HETATM   30  C   UNL     1      44.864 -21.637   4.031  1.00  0.00     0.002 A 
HETATM   31  C   UNL     1      44.559 -20.273   4.050  1.00  0.00     0.029 A 
ENDBRANCH  22  26
ENDBRANCH   5  20
TORSDOF 6
ENDMDL
MODEL 2
REMARK VINA RESULT:      -8.1      4.326      7.309
REMARK  6 active torsions:
REMARK  status: ('A' for Active; 'I' for Inactive)
REMARK    1  A    between atoms: C_2  and  N_3 
REMARK    2  A    between atoms: C_2  and  C_24 
REMARK       I    between atoms: N_3  and  C_4 
REMARK    3  A    between atoms: C_4  and  C_5 
REMARK    4  A    between atoms: C_5  and  N_6 
REMARK    5  A    between atoms: C_10  and  N_11 
REMARK       I    between atoms: N_11  and  C_12 
REMARK       I    between atoms: C_12  and  N_13 
REMARK    6  A    between atoms: N_13  and  C_14 
ROOT
HETATM    1  N   UNL     1      40.583 -13.458   4.355  1.00  0.00    -0.063 N 
HETATM    2  H   UNL     1      40.105 -12.928   5.097  1.00  0.00     0.280 HD
HETATM    3  C   UNL     1      40.286 -14.916   4.617  1.00  0.00     0.237 C 
HETATM    4  C   UNL     1      41.164 -15.492   5.708  1.00  0.00     0.053 C 
HETATM    5  C   UNL     1      42.651 -15.257   5.476  1.00  0.00     0.089 C 
HETATM    6  C   UNL     1      42.927 -13.768   5.296  1.00  0.00     0.053 C 
HETATM    7  C   UNL     1      42.033 -13.043   4.306  1.00  0.00     0.237 C 
ENDROOT
BRANCH   1   8
HETATM    8  C   UNL     1      39.907 -13.011   3.039  1.00  0.00     0.337 C 
BRANCH   8   9
HETATM    9  C   UNL     1      39.758 -14.148   2.030  1.00  0.00     0.244 C 
HETATM   10  N   UNL     1      40.909 -14.484   1.364  1.00  0.00    -0.351 N 
HETATM   11  H   UNL     1      41.786 -14.013   1.563  1.00  0.00     0.163 HD
HETATM   12  O   UNL     1      38.689 -14.740   1.913  1.00  0.00    -0.272 OA
BRANCH  10  13
HETATM   13  C   UNL     1      40.985 -15.585   0.414  1.00  0.00     0.120 C 
HETATM   14  C   UNL     1      42.094 -16.575   0.771  1.00  0.00     0.038 C 
BRANCH  13  15
HETATM   15  C   UNL     1      41.181 -14.995  -0.962  1.00  0.00     0.005 A 
HETATM   16  S   UNL     1      41.765 -13.389  -1.174  1.00  0.00    -0.104 SA
HETATM   17  C   UNL     1      41.695 -13.513  -2.875  1.00  0.00     0.050 A 
HETATM   18  C   UNL     1      41.233 -14.742  -3.285  1.00  0.00     0.008 A 
HETATM   19  C   UNL     1      40.937 -15.597  -2.183  1.00  0.00     0.017 A 
ENDBRANCH  13  15
ENDBRANCH  10  13
ENDBRANCH   8   9
ENDBRANCH   1   8
BRANCH   5  20
HETATM   20  N   UNL     1      43.230 -16.159   4.476  1.00  0.00    -0.338 N 
HETATM   21  C   UNL     1      43.046 -17.517   4.383  1.00  0.00     0.321 C 
HETATM   22  N   UNL     1      43.982 -18.111   3.574  1.00  0.00    -0.309 N 
HETATM   23  O   UNL     1      42.194 -18.102   5.040  1.00  0.00    -0.247 OA
HETATM   24  H   UNL     1      44.784 -17.549   3.325  1.00  0.00     0.170 HD
HETATM   25  H   UNL     1      43.723 -15.727   3.704  1.00  0.00     0.164 HD
BRANCH  22  26
HETATM   26  C   UNL     1      44.112 -19.500   3.346  1.00  0.00     0.036 A 
HETATM   27  C   UNL     1      44.675 -20.384   4.270  1.00  0.00     0.029 A 
HETATM   28  C   UNL     1      44.810 -21.741   3.964  1.00  0.00     0.002 A 
HETATM   29  C   UNL     1      44.380 -22.226   2.732  1.00  0.00     0.000 A 
HETATM   30  C   UNL     1      43.797 -21.356   1.812  1.00  0.00     0.002 A 
HETATM   31  C   UNL     1      43.654 -20.001   2.122  1.00  0.00     0.029 A 
ENDBRANCH  22  26
ENDBRANCH   5  20
TORSDOF 6
ENDMDL
MODEL 3
REMARK VINA RESULT:      -8.1      3.967      6.359
REMARK  6 active torsions:
REMARK  status: ('A' for Active; 'I' for Inactive)
REMARK    1  A    between atoms: C_2  and  N_3 
REMARK    2  A    between atoms: C_2  and  C_24 
REMARK       I    between atoms: N_3  and  C_4 
REMARK    3  A    between atoms: C_4  and  C_5 
REMARK    4  A    between atoms: C_5  and  N_6 
REMARK    5  A    between atoms: C_10  and  N_11 
REMARK       I    between atoms: N_11  and  C_12 
REMARK       I    between atoms: C_12  and  N_13 
REMARK    6  A    between atoms: N_13  and  C_14 
ROOT
HETATM    1  N   UNL     1      41.407 -13.083   5.459  1.00  0.00    -0.063 N 
HETATM    2  H   UNL     1      40.998 -12.653   6.302  1.00  0.00     0.280 HD
HETATM    3  C   UNL     1      40.625 -14.352   5.210  1.00  0.00     0.237 C 
HETATM    4  C   UNL     1      41.073 -15.487   6.107  1.00  0.00     0.053 C 
HETATM    5  C   UNL     1      42.575 -15.737   6.061  1.00  0.00     0.089 C 
HETATM    6  C   UNL     1      43.333 -14.456   6.396  1.00  0.00     0.053 C 
HETATM    7  C   UNL     1      42.899 -13.212   5.642  1.00  0.00     0.237 C 
ENDROOT
BRANCH   1   8
HETATM    8  C   UNL     1      41.145 -12.071   4.321  1.00  0.00     0.337 C 
BRANCH   8   9
HETATM    9  C   UNL     1      41.118 -12.722   2.939  1.00  0.00     0.244 C 
HETATM   10  N   UNL     1      39.876 -13.123   2.514  1.00  0.00    -0.351 N 
HETATM   11  H   UNL     1      39.052 -12.965   3.084  1.00  0.00     0.163 HD
HETATM   12  O   UNL     1      42.140 -12.789   2.263  1.00  0.00    -0.272 OA
BRANCH  10  13
HETATM   13  C   UNL     1      39.635 -13.700   1.199  1.00  0.00     0.120 C 
HETATM   14  C   UNL     1      38.149 -13.712   0.842  1.00  0.00     0.038 C 
BRANCH  13  15
HETATM   15  C   UNL     1      40.227 -15.089   1.190  1.00  0.00     0.005 A 
HETATM   16  S   UNL     1      41.391 -15.559   0.011  1.00  0.00    -0.104 SA
HETATM   17  C   UNL     1      41.518 -17.133   0.662  1.00  0.00     0.050 A 
HETATM   18  C   UNL     1      40.693 -17.310   1.748  1.00  0.00     0.008 A 
HETATM   19  C   UNL     1      39.949 -16.133   2.053  1.00  0.00     0.017 A 
ENDBRANCH  13  15
ENDBRANCH  10  13
ENDBRANCH   8   9
ENDBRANCH   1   8
BRANCH   5  20
HETATM   20  N   UNL     1      43.005 -16.460   4.861  1.00  0.00    -0.338 N 
HETATM   21  C   UNL     1      42.938 -17.815   4.644  1.00  0.00     0.321 C 
HETATM   22  N   UNL     1      43.726 -18.209   3.592  1.00  0.00    -0.309 N 
HETATM   23  O   UNL     1      42.313 -18.560   5.388  1.00  0.00    -0.247 OA
HETATM   24  H   UNL     1      44.394 -17.533   3.251  1.00  0.00     0.170 HD
HETATM   25  H   UNL     1      43.271 -15.899   4.060  1.00  0.00     0.164 HD
BRANCH  22  26
HETATM   26  C   UNL     1      43.937 -19.544   3.176  1.00  0.00     0.036 A 
HETATM   27  C   UNL     1      43.467 -20.058   1.964  1.00  0.00     0.029 A 
HETATM   28  C   UNL     1      43.676 -21.399   1.632  1.00  0.00     0.002 A 
HETATM   29  C   UNL     1      44.360 -22.237   2.508  1.00  0.00     0.000 A 
HETATM   30  C   UNL     1      44.851 -21.729   3.709  1.00  0.00     0.002 A 
HETATM   31  C   UNL     1      44.650 -20.386   4.037  1.00  0.00     0.029 A 
ENDBRANCH  22  26
ENDBRANCH   5  20
TORSDOF 6
ENDMDL
MODEL 4
REMARK VINA RESULT:      -8.0      3.615     10.337
REMARK  6 active torsions:
REMARK  status: ('A' for Active; 'I' for Inactive)
REMARK    1  A    between atoms: C_2  and  N_3 
REMARK    2  A    between atoms: C_2  and  C_24 
REMARK       I    between atoms: N_3  and  C_4 
REMARK    3  A    between atoms: C_4  and  C_5 
REMARK    4  A    between atoms: C_5  and  N_6 
REMARK    5  A    between atoms: C_10  and  N_11 
REMARK       I    between atoms: N_11  and  C_12 
REMARK       I    between atoms: C_12  and  N_13 
REMARK    6  A    between atoms: N_13  and  C_14 
ROOT
HETATM    1  N   UNL     1      41.216 -13.363   5.337  1.00  0.00    -0.063 N 
HETATM    2  H   UNL     1      40.960 -13.185   4.355  1.00  0.00     0.280 HD
HETATM    3  C   UNL     1      39.917 -13.578   6.080  1.00  0.00     0.237 C 
HETATM    4  C   UNL     1      39.223 -12.274   6.410  1.00  0.00     0.053 C 
HETATM    5  C   UNL     1      40.120 -11.276   7.130  1.00  0.00     0.089 C 
HETATM    6  C   UNL     1      41.384 -11.019   6.314  1.00  0.00     0.053 C 
HETATM    7  C   UNL     1      42.117 -12.254   5.822  1.00  0.00     0.237 C 
ENDROOT
BRANCH   1   8
HETATM    8  C   UNL     1      42.032 -14.674   5.312  1.00  0.00     0.337 C 
BRANCH   8   9
HETATM    9  C   UNL     1      42.313 -15.174   3.896  1.00  0.00     0.244 C 
HETATM   10  N   UNL     1      42.351 -16.539   3.762  1.00  0.00    -0.351 N 
HETATM   11  H   UNL     1      42.178 -17.147   4.555  1.00  0.00     0.163 HD
HETATM   12  O   UNL     1      42.414 -14.381   2.964  1.00  0.00    -0.272 OA
BRANCH  10  13
HETATM   13  C   UNL     1      42.538 -17.206   2.482  1.00  0.00     0.120 C 
HETATM   14  C   UNL     1      41.213 -17.432   1.754  1.00  0.00     0.038 C 
BRANCH  13  15
HETATM   15  C   UNL     1      43.265 -18.505   2.740  1.00  0.00     0.005 A 
HETATM   16  S   UNL     1      44.053 -18.807   4.241  1.00  0.00    -0.104 SA
HETATM   17  C   UNL     1      44.572 -20.354   3.737  1.00  0.00     0.050 A 
HETATM   18  C   UNL     1      44.164 -20.643   2.455  1.00  0.00     0.008 A 
HETATM   19  C   UNL     1      43.411 -19.578   1.880  1.00  0.00     0.017 A 
ENDBRANCH  13  15
ENDBRANCH  10  13
ENDBRANCH   8   9
ENDBRANCH   1   8
BRANCH   5  20
HETATM   20  N   UNL     1      40.307 -11.584   8.551  1.00  0.00    -0.338 N 
HETATM   21  C   UNL     1      40.743 -10.728   9.532  1.00  0.00     0.321 C 
HETATM   22  N   UNL     1      41.139 -11.397  10.663  1.00  0.00    -0.309 N 
HETATM   23  O   UNL     1      40.845  -9.522   9.341  1.00  0.00    -0.247 OA
HETATM   24  H   UNL     1      41.262 -12.395  10.576  1.00  0.00     0.170 HD
HETATM   25  H   UNL     1      39.969 -12.484   8.870  1.00  0.00     0.164 HD
BRANCH  22  26
HETATM   26  C   UNL     1      41.716 -10.806  11.810  1.00  0.00     0.036 A 
HETATM   27  C   UNL     1      42.997 -10.248  11.830  1.00  0.00     0.029 A 
HETATM   28  C   UNL     1      43.523  -9.716  13.010  1.00  0.00     0.002 A 
HETATM   29  C   UNL     1      42.770  -9.735  14.182  1.00  0.00     0.000 A 
HETATM   30  C   UNL     1      41.484 -10.270  14.168  1.00  0.00     0.002 A 
HETATM   31  C   UNL     1      40.955 -10.794  12.985  1.00  0.00     0.029 A 
ENDBRANCH  22  26
ENDBRANCH   5  20
TORSDOF 6
ENDMDL
MODEL 5
REMARK VINA RESULT:      -7.9      2.196      2.849
REMARK  6 active torsions:
REMARK  status: ('A' for Active; 'I' for Inactive)
REMARK    1  A    between atoms: C_2  and  N_3 
REMARK    2  A    between atoms: C_2  and  C_24 
REMARK       I    between atoms: N_3  and  C_4 
REMARK    3  A    between atoms: C_4  and  C_5 
REMARK    4  A    between atoms: C_5  and  N_6 
REMARK    5  A    between atoms: C_10  and  N_11 
REMARK       I    between atoms: N_11  and  C_12 
REMARK       I    between atoms: C_12  and  N_13 
REMARK    6  A    between atoms: N_13  and  C_14 
ROOT
HETATM    1  N   UNL     1      41.011 -12.050   5.747  1.00  0.00    -0.063 N 
HETATM    2  H   UNL     1      40.942 -11.088   5.383  1.00  0.00     0.280 HD
HETATM    3  C   UNL     1      42.416 -12.516   5.443  1.00  0.00     0.237 C 
HETATM    4  C   UNL     1      42.574 -12.960   4.004  1.00  0.00     0.053 C 
HETATM    5  C   UNL     1      41.537 -13.989   3.571  1.00  0.00     0.089 C 
HETATM    6  C   UNL     1      40.130 -13.453   3.815  1.00  0.00     0.053 C 
HETATM    7  C   UNL     1      39.872 -12.871   5.194  1.00  0.00     0.237 C 
ENDROOT
BRANCH   1   8
HETATM    8  C   UNL     1      40.817 -11.920   7.274  1.00  0.00     0.337 C 
BRANCH   8   9
HETATM    9  C   UNL     1      41.770 -10.911   7.912  1.00  0.00     0.244 C 
HETATM   10  N   UNL     1      42.362 -11.332   9.076  1.00  0.00    -0.351 N 
HETATM   11  H   UNL     1      42.182 -12.258   9.450  1.00  0.00     0.163 HD
HETATM   12  O   UNL     1      42.017  -9.847   7.351  1.00  0.00    -0.272 OA
BRANCH  10  13
HETATM   13  C   UNL     1      43.351 -10.541   9.795  1.00  0.00     0.120 C 
HETATM   14  C   UNL     1      44.762 -11.105   9.637  1.00  0.00     0.038 C 
BRANCH  13  15
HETATM   15  C   UNL     1      42.929 -10.482  11.244  1.00  0.00     0.005 A 
HETATM   16  S   UNL     1      41.386 -11.053  11.752  1.00  0.00    -0.104 SA
HETATM   17  C   UNL     1      41.697 -10.653  13.383  1.00  0.00     0.050 A 
HETATM   18  C   UNL     1      42.942 -10.092  13.548  1.00  0.00     0.008 A 
HETATM   19  C   UNL     1      43.653  -9.994  12.317  1.00  0.00     0.017 A 
ENDBRANCH  13  15
ENDBRANCH  10  13
ENDBRANCH   8   9
ENDBRANCH   1   8
BRANCH   5  20
HETATM   20  N   UNL     1      41.821 -15.340   4.062  1.00  0.00    -0.338 N 
HETATM   21  C   UNL     1      42.704 -16.245   3.527  1.00  0.00     0.321 C 
HETATM   22  N   UNL     1      42.487 -17.517   3.994  1.00  0.00    -0.309 N 
HETATM   23  O   UNL     1      43.511 -15.930   2.661  1.00  0.00    -0.247 OA
HETATM   24  H   UNL     1      41.618 -17.675   4.484  1.00  0.00     0.170 HD
HETATM   25  H   UNL     1      41.416 -15.595   4.955  1.00  0.00     0.164 HD
BRANCH  22  26
HETATM   26  C   UNL     1      43.171 -18.679   3.569  1.00  0.00     0.036 A 
HETATM   27  C   UNL     1      42.971 -19.280   2.323  1.00  0.00     0.029 A 
HETATM   28  C   UNL     1      43.651 -20.452   1.981  1.00  0.00     0.002 A 
HETATM   29  C   UNL     1      44.539 -21.033   2.883  1.00  0.00     0.000 A 
HETATM   30  C   UNL     1      44.761 -20.430   4.120  1.00  0.00     0.002 A 
HETATM   31  C   UNL     1      44.088 -19.253   4.457  1.00  0.00     0.029 A 
ENDBRANCH  22  26
ENDBRANCH   5  20
TORSDOF 6
ENDMDL
MODEL 6
REMARK VINA RESULT:      -7.8      2.647      3.411
REMARK  6 active torsions:
REMARK  status: ('A' for Active; 'I' for Inactive)
REMARK    1  A    between atoms: C_2  and  N_3 
REMARK    2  A    between atoms: C_2  and  C_24 
REMARK       I    between atoms: N_3  and  C_4 
REMARK    3  A    between atoms: C_4  and  C_5 
REMARK    4  A    between atoms: C_5  and  N_6 
REMARK    5  A    between atoms: C_10  and  N_11 
REMARK       I    between atoms: N_11  and  C_12 
REMARK       I    between atoms: C_12  and  N_13 
REMARK    6  A    between atoms: N_13  and  C_14 
ROOT
HETATM    1  N   UNL     1      40.540 -12.618   5.346  1.00  0.00    -0.063 N 
HETATM    2  H   UNL     1      40.573 -11.621   5.088  1.00  0.00     0.280 HD
HETATM    3  C   UNL     1      41.961 -13.018   5.669  1.00  0.00     0.237 C 
HETATM    4  C   UNL     1      42.780 -13.282   4.423  1.00  0.00     0.053 C 
HETATM    5  C   UNL     1      42.125 -14.270   3.467  1.00  0.00     0.089 C 
HETATM    6  C   UNL     1      40.723 -13.796   3.097  1.00  0.00     0.053 C 
HETATM    7  C   UNL     1      39.833 -13.388   4.259  1.00  0.00     0.237 C 
ENDROOT
BRANCH   1   8
HETATM    8  C   UNL     1      39.673 -12.677   6.623  1.00  0.00     0.337 C 
BRANCH   8   9
HETATM    9  C   UNL     1      39.636 -11.351   7.381  1.00  0.00     0.244 C 
HETATM   10  N   UNL     1      40.401 -11.315   8.519  1.00  0.00    -0.351 N 
HETATM   11  H   UNL     1      40.958 -12.115   8.801  1.00  0.00     0.163 HD
HETATM   12  O   UNL     1      39.019 -10.392   6.927  1.00  0.00    -0.272 OA
BRANCH  10  13
HETATM   13  C   UNL     1      40.550 -10.120   9.338  1.00  0.00     0.120 C 
HETATM   14  C   UNL     1      41.608  -9.170   8.779  1.00  0.00     0.038 C 
BRANCH  13  15
HETATM   15  C   UNL     1      40.879 -10.563  10.744  1.00  0.00     0.005 A 
HETATM   16  S   UNL     1      42.367 -10.127  11.495  1.00  0.00    -0.104 SA
HETATM   17  C   UNL     1      41.966 -10.958  12.932  1.00  0.00     0.050 A 
HETATM   18  C   UNL     1      40.732 -11.562  12.852  1.00  0.00     0.008 A 
HETATM   19  C   UNL     1      40.106 -11.334  11.592  1.00  0.00     0.017 A 
ENDBRANCH  13  15
ENDBRANCH  10  13
ENDBRANCH   8   9
ENDBRANCH   1   8
BRANCH   5  20
HETATM   20  N   UNL     1      42.254 -15.665   3.898  1.00  0.00    -0.338 N 
HETATM   21  C   UNL     1      43.080 -16.623   3.361  1.00  0.00     0.321 C 
HETATM   22  N   UNL     1      42.720 -17.890   3.745  1.00  0.00    -0.309 N 
HETATM   23  O   UNL     1      43.961 -16.342   2.559  1.00  0.00    -0.247 OA
HETATM   24  H   UNL     1      41.813 -17.989   4.178  1.00  0.00     0.170 HD
HETATM   25  H   UNL     1      41.775 -15.925   4.752  1.00  0.00     0.164 HD
BRANCH  22  26
HETATM   26  C   UNL     1      43.317 -19.089   3.294  1.00  0.00     0.036 A 
HETATM   27  C   UNL     1      42.992 -19.705   2.083  1.00  0.00     0.029 A 
HETATM   28  C   UNL     1      43.593 -20.912   1.715  1.00  0.00     0.002 A 
HETATM   29  C   UNL     1      44.526 -21.513   2.556  1.00  0.00     0.000 A 
HETATM   30  C   UNL     1      44.873 -20.896   3.757  1.00  0.00     0.002 A 
HETATM   31  C   UNL     1      44.279 -19.684   4.119  1.00  0.00     0.029 A 
ENDBRANCH  22  26
ENDBRANCH   5  20
TORSDOF 6
ENDMDL
MODEL 7
REMARK VINA RESULT:      -7.7      4.878      7.440
REMARK  6 active torsions:
REMARK  status: ('A' for Active; 'I' for Inactive)
REMARK    1  A    between atoms: C_2  and  N_3 
REMARK    2  A    between atoms: C_2  and  C_24 
REMARK       I    between atoms: N_3  and  C_4 
REMARK    3  A    between atoms: C_4  and  C_5 
REMARK    4  A    between atoms: C_5  and  N_6 
REMARK    5  A    between atoms: C_10  and  N_11 
REMARK       I    between atoms: N_11  and  C_12 
REMARK       I    between atoms: C_12  and  N_13 
REMARK    6  A    between atoms: N_13  and  C_14 
ROOT
HETATM    1  N   UNL     1      40.799 -12.805   3.942  1.00  0.00    -0.063 N 
HETATM    2  H   UNL     1      40.127 -12.318   4.552  1.00  0.00     0.280 HD
HETATM    3  C   UNL     1      40.190 -14.153   3.633  1.00  0.00     0.237 C 
HETATM    4  C   UNL     1      40.376 -15.140   4.765  1.00  0.00     0.053 C 
HETATM    5  C   UNL     1      41.823 -15.272   5.221  1.00  0.00     0.089 C 
HETATM    6  C   UNL     1      42.382 -13.906   5.604  1.00  0.00     0.053 C 
HETATM    7  C   UNL     1      42.159 -12.793   4.595  1.00  0.00     0.237 C 
ENDROOT
BRANCH   1   8
HETATM    8  C   UNL     1      40.872 -11.952   2.656  1.00  0.00     0.337 C 
BRANCH   8   9
HETATM    9  C   UNL     1      41.683 -12.616   1.545  1.00  0.00     0.244 C 
HETATM   10  N   UNL     1      41.041 -12.706   0.336  1.00  0.00    -0.351 N 
HETATM   11  H   UNL     1      40.107 -12.330   0.210  1.00  0.00     0.163 HD
HETATM   12  O   UNL     1      42.846 -12.957   1.742  1.00  0.00    -0.272 OA
BRANCH  10  13
HETATM   13  C   UNL     1      41.673 -13.243  -0.861  1.00  0.00     0.120 C 
HETATM   14  C   UNL     1      42.482 -12.182  -1.608  1.00  0.00     0.038 C 
BRANCH  13  15
HETATM   15  C   UNL     1      40.588 -13.836  -1.729  1.00  0.00     0.005 A 
HETATM   16  S   UNL     1      40.969 -14.805  -3.100  1.00  0.00    -0.104 SA
HETATM   17  C   UNL     1      39.320 -15.044  -3.476  1.00  0.00     0.050 A 
HETATM   18  C   UNL     1      38.490 -14.400  -2.588  1.00  0.00     0.008 A 
HETATM   19  C   UNL     1      39.220 -13.705  -1.580  1.00  0.00     0.017 A 
ENDBRANCH  13  15
ENDBRANCH  10  13
ENDBRANCH   8   9
ENDBRANCH   1   8
BRANCH   5  20
HETATM   20  N   UNL     1      42.642 -16.089   4.320  1.00  0.00    -0.338 N 
HETATM   21  C   UNL     1      42.569 -17.449   4.143  1.00  0.00     0.321 C 
HETATM   22  N   UNL     1      43.680 -17.947   3.510  1.00  0.00    -0.309 N 
HETATM   23  O   UNL     1      41.648 -18.114   4.601  1.00  0.00    -0.247 OA
HETATM   24  H   UNL     1      44.475 -17.329   3.442  1.00  0.00     0.170 HD
HETATM   25  H   UNL     1      43.243 -15.592   3.674  1.00  0.00     0.164 HD
BRANCH  22  26
HETATM   26  C   UNL     1      43.943 -19.314   3.260  1.00  0.00     0.036 A 
HETATM   27  C   UNL     1      43.598 -19.962   2.071  1.00  0.00     0.029 A 
HETATM   28  C   UNL     1      43.851 -21.326   1.905  1.00  0.00     0.002 A 
HETATM   29  C   UNL     1      44.454 -22.054   2.928  1.00  0.00     0.000 A 
HETATM   30  C   UNL     1      44.821 -21.413   4.109  1.00  0.00     0.002 A 
HETATM   31  C   UNL     1      44.576 -20.046   4.271  1.00  0.00     0.029 A 
ENDBRANCH  22  26
ENDBRANCH   5  20
TORSDOF 6
ENDMDL
MODEL 8
REMARK VINA RESULT:      -7.7      3.316      4.649
REMARK  6 active torsions:
REMARK  status: ('A' for Active; 'I' for Inactive)
REMARK    1  A    between atoms: C_2  and  N_3 
REMARK    2  A    between atoms: C_2  and  C_24 
REMARK       I    between atoms: N_3  and  C_4 
REMARK    3  A    between atoms: C_4  and  C_5 
REMARK    4  A    between atoms: C_5  and  N_6 
REMARK    5  A    between atoms: C_10  and  N_11 
REMARK       I    between atoms: N_11  and  C_12 
REMARK       I    between atoms: C_12  and  N_13 
REMARK    6  A    between atoms: N_13  and  C_14 
ROOT
HETATM    1  N   UNL     1      41.165 -13.130   2.640  1.00  0.00    -0.063 N 
HETATM    2  H   UNL     1      40.359 -12.541   2.385  1.00  0.00     0.280 HD
HETATM    3  C   UNL     1      41.946 -13.353   1.366  1.00  0.00     0.237 C 
HETATM    4  C   UNL     1      41.330 -14.428   0.496  1.00  0.00     0.053 C 
HETATM    5  C   UNL     1      41.081 -15.736   1.236  1.00  0.00     0.089 C 
HETATM    6  C   UNL     1      40.222 -15.488   2.471  1.00  0.00     0.053 C 
HETATM    7  C   UNL     1      40.672 -14.352   3.374  1.00  0.00     0.237 C 
ENDROOT
BRANCH   1   8
HETATM    8  C   UNL     1      41.995 -12.277   3.625  1.00  0.00     0.337 C 
BRANCH   8   9
HETATM    9  C   UNL     1      42.115 -12.912   5.009  1.00  0.00     0.244 C 
HETATM   10  N   UNL     1      43.257 -13.645   5.211  1.00  0.00    -0.351 N 
HETATM   11  H   UNL     1      43.964 -13.723   4.486  1.00  0.00     0.163 HD
HETATM   12  O   UNL     1      41.269 -12.692   5.870  1.00  0.00    -0.272 OA
BRANCH  10  13
HETATM   13  C   UNL     1      43.586 -14.269   6.484  1.00  0.00     0.120 C 
HETATM   14  C   UNL     1      45.059 -14.088   6.849  1.00  0.00     0.038 C 
BRANCH  13  15
HETATM   15  C   UNL     1      43.204 -15.727   6.396  1.00  0.00     0.005 A 
HETATM   16  S   UNL     1      43.418 -16.792   7.732  1.00  0.00    -0.104 SA
HETATM   17  C   UNL     1      42.793 -18.122   6.863  1.00  0.00     0.050 A 
HETATM   18  C   UNL     1      42.431 -17.777   5.581  1.00  0.00     0.008 A 
HETATM   19  C   UNL     1      42.667 -16.397   5.312  1.00  0.00     0.017 A 
ENDBRANCH  13  15
ENDBRANCH  10  13
ENDBRANCH   8   9
ENDBRANCH   1   8
BRANCH   5  20
HETATM   20  N   UNL     1      42.297 -16.532   1.429  1.00  0.00    -0.338 N 
HETATM   21  C   UNL     1      42.371 -17.885   1.654  1.00  0.00     0.321 C 
HETATM   22  N   UNL     1      43.600 -18.261   2.134  1.00  0.00    -0.309 N 
HETATM   23  O   UNL     1      41.400 -18.618   1.523  1.00  0.00    -0.247 OA
HETATM   24  H   UNL     1      44.206 -17.519   2.454  1.00  0.00     0.170 HD
HETATM   25  H   UNL     1      43.180 -16.063   1.264  1.00  0.00     0.164 HD
BRANCH  22  26
HETATM   26  C   UNL     1      43.961 -19.566   2.543  1.00  0.00     0.036 A 
HETATM   27  C   UNL     1      43.833 -20.693   1.727  1.00  0.00     0.029 A 
HETATM   28  C   UNL     1      44.171 -21.961   2.208  1.00  0.00     0.002 A 
HETATM   29  C   UNL     1      44.643 -22.112   3.509  1.00  0.00     0.000 A 
HETATM   30  C   UNL     1      44.794 -20.992   4.324  1.00  0.00     0.002 A 
HETATM   31  C   UNL     1      44.465 -19.723   3.839  1.00  0.00     0.029 A 
ENDBRANCH  22  26
ENDBRANCH   5  20
TORSDOF 6
ENDMDL
MODEL 9
REMARK VINA RESULT:      -7.6      5.234      8.670
REMARK  6 active torsions:
REMARK  status: ('A' for Active; 'I' for Inactive)
REMARK    1  A    between atoms: C_2  and  N_3 
REMARK    2  A    between atoms: C_2  and  C_24 
REMARK       I    between atoms: N_3  and  C_4 
REMARK    3  A    between atoms: C_4  and  C_5 
REMARK    4  A    between atoms: C_5  and  N_6 
REMARK    5  A    between atoms: C_10  and  N_11 
REMARK       I    between atoms: N_11  and  C_12 
REMARK       I    between atoms: C_12  and  N_13 
REMARK    6  A    between atoms: N_13  and  C_14 
ROOT
HETATM    1  N   UNL     1      40.616 -15.829   4.215  1.00  0.00    -0.063 N 
HETATM    2  H   UNL     1      39.802 -16.230   4.702  1.00  0.00     0.280 HD
HETATM    3  C   UNL     1      40.148 -14.525   3.612  1.00  0.00     0.237 C 
HETATM    4  C   UNL     1      39.377 -14.733   2.326  1.00  0.00     0.053 C 
HETATM    5  C   UNL     1      40.119 -15.586   1.306  1.00  0.00     0.089 C 
HETATM    6  C   UNL     1      40.505 -16.927   1.922  1.00  0.00     0.053 C 
HETATM    7  C   UNL     1      41.189 -16.862   3.276  1.00  0.00     0.237 C 
ENDROOT
BRANCH   1   8
HETATM    8  C   UNL     1      41.656 -15.554   5.324  1.00  0.00     0.337 C 
BRANCH   8   9
HETATM    9  C   UNL     1      42.176 -16.830   5.984  1.00  0.00     0.244 C 
HETATM   10  N   UNL     1      43.395 -17.261   5.526  1.00  0.00    -0.351 N 
HETATM   11  H   UNL     1      43.903 -16.739   4.818  1.00  0.00     0.163 HD
HETATM   12  O   UNL     1      41.554 -17.352   6.905  1.00  0.00    -0.272 OA
BRANCH  10  13
HETATM   13  C   UNL     1      44.087 -18.417   6.078  1.00  0.00     0.120 C 
HETATM   14  C   UNL     1      45.413 -18.033   6.733  1.00  0.00     0.038 C 
BRANCH  13  15
HETATM   15  C   UNL     1      44.282 -19.415   4.961  1.00  0.00     0.005 A 
HETATM   16  S   UNL     1      44.005 -18.984   3.317  1.00  0.00    -0.104 SA
HETATM   17  C   UNL     1      44.418 -20.547   2.765  1.00  0.00     0.050 A 
HETATM   18  C   UNL     1      44.755 -21.388   3.801  1.00  0.00     0.008 A 
HETATM   19  C   UNL     1      44.677 -20.736   5.066  1.00  0.00     0.017 A 
ENDBRANCH  13  15
ENDBRANCH  10  13
ENDBRANCH   8   9
ENDBRANCH   1   8
BRANCH   5  20
HETATM   20  N   UNL     1      41.178 -14.857   0.601  1.00  0.00    -0.338 N 
HETATM   21  C   UNL     1      41.028 -13.752  -0.201  1.00  0.00     0.321 C 
HETATM   22  N   UNL     1      42.135 -13.524  -0.978  1.00  0.00    -0.309 N 
HETATM   23  O   UNL     1      39.974 -13.132  -0.257  1.00  0.00    -0.247 OA
HETATM   24  H   UNL     1      42.812 -14.272  -1.029  1.00  0.00     0.170 HD
HETATM   25  H   UNL     1      42.133 -15.117   0.818  1.00  0.00     0.164 HD
BRANCH  22  26
HETATM   26  C   UNL     1      42.256 -12.519  -1.965  1.00  0.00     0.036 A 
HETATM   27  C   UNL     1      41.894 -12.704  -3.303  1.00  0.00     0.029 A 
HETATM   28  C   UNL     1      42.078 -11.681  -4.237  1.00  0.00     0.002 A 
HETATM   29  C   UNL     1      42.622 -10.462  -3.840  1.00  0.00     0.000 A 
HETATM   30  C   UNL     1      42.966 -10.261  -2.505  1.00  0.00     0.002 A 
HETATM   31  C   UNL     1      42.774 -11.281  -1.569  1.00  0.00     0.029 A 
ENDBRANCH  22  26
ENDBRANCH   5  20
TORSDOF 6
ENDMDL
MODEL 10
REMARK VINA RESULT:      -7.5      5.946      8.845
REMARK  6 active torsions:
REMARK  status: ('A' for Active; 'I' for Inactive)
REMARK    1  A    between atoms: C_2  and  N_3 
REMARK    2  A    between atoms: C_2  and  C_24 
REMARK       I    between atoms: N_3  and  C_4 
REMARK    3  A    between atoms: C_4  and  C_5 
REMARK    4  A    between atoms: C_5  and  N_6 
REMARK    5  A    between atoms: C_10  and  N_11 
REMARK       I    between atoms: N_11  and  C_12 
REMARK       I    between atoms: C_12  and  N_13 
REMARK    6  A    between atoms: N_13  and  C_14 
ROOT
HETATM    1  N   UNL     1      39.573 -13.631   1.806  1.00  0.00    -0.063 N 
HETATM    2  H   UNL     1      39.488 -12.617   1.641  1.00  0.00     0.280 HD
HETATM    3  C   UNL     1      39.524 -13.821   3.305  1.00  0.00     0.237 C 
HETATM    4  C   UNL     1      40.853 -13.517   3.965  1.00  0.00     0.053 C 
HETATM    5  C   UNL     1      42.023 -14.269   3.343  1.00  0.00     0.089 C 
HETATM    6  C   UNL     1      42.092 -13.990   1.845  1.00  0.00     0.053 C 
HETATM    7  C   UNL     1      40.790 -14.149   1.080  1.00  0.00     0.237 C 
ENDROOT
BRANCH   1   8
HETATM    8  C   UNL     1      38.319 -14.254   1.155  1.00  0.00     0.337 C 
BRANCH   8   9
HETATM    9  C   UNL     1      37.964 -13.615  -0.187  1.00  0.00     0.244 C 
HETATM   10  N   UNL     1      38.217 -14.398  -1.284  1.00  0.00    -0.351 N 
HETATM   11  H   UNL     1      38.589 -15.337  -1.183  1.00  0.00     0.163 HD
HETATM   12  O   UNL     1      37.422 -12.514  -0.228  1.00  0.00    -0.272 OA
BRANCH  10  13
HETATM   13  C   UNL     1      37.883 -13.994  -2.643  1.00  0.00     0.120 C 
HETATM   14  C   UNL     1      37.522 -15.189  -3.525  1.00  0.00     0.038 C 
BRANCH  13  15
HETATM   15  C   UNL     1      39.058 -13.222  -3.196  1.00  0.00     0.005 A 
HETATM   16  S   UNL     1      38.916 -11.560  -3.624  1.00  0.00    -0.104 SA
HETATM   17  C   UNL     1      40.550 -11.476  -4.115  1.00  0.00     0.050 A 
HETATM   18  C   UNL     1      41.197 -12.681  -3.967  1.00  0.00     0.008 A 
HETATM   19  C   UNL     1      40.338 -13.687  -3.437  1.00  0.00     0.017 A 
ENDBRANCH  13  15
ENDBRANCH  10  13
ENDBRANCH   8   9
ENDBRANCH   1   8
BRANCH   5  20
HETATM   20  N   UNL     1      42.093 -15.674   3.755  1.00  0.00    -0.338 N 
HETATM   21  C   UNL     1      42.994 -16.617   3.325  1.00  0.00     0.321 C 
HETATM   22  N   UNL     1      42.586 -17.893   3.620  1.00  0.00    -0.309 N 
HETATM   23  O   UNL     1      43.984 -16.316   2.671  1.00  0.00    -0.247 OA
HETATM   24  H   UNL     1      41.625 -18.004   3.911  1.00  0.00     0.170 HD
HETATM   25  H   UNL     1      41.493 -15.955   4.522  1.00  0.00     0.164 HD
BRANCH  22  26
HETATM   26  C   UNL     1      43.250 -19.080   3.235  1.00  0.00     0.036 A 
HETATM   27  C   UNL     1      42.986 -19.760   2.043  1.00  0.00     0.029 A 
HETATM   28  C   UNL     1      43.651 -20.952   1.742  1.00  0.00     0.002 A 
HETATM   29  C   UNL     1      44.589 -21.473   2.630  1.00  0.00     0.000 A 
HETATM   30  C   UNL     1      44.875 -20.792   3.811  1.00  0.00     0.002 A 
HETATM   31  C   UNL     1      44.216 -19.595   4.107  1.00  0.00     0.029 A 
ENDBRANCH  22  26
ENDBRANCH   5  20
TORSDOF 6
ENDMDL
