MODEL 1
REMARK VINA RESULT:      -8.9      0.000      0.000
REMARK  6 active torsions:
REMARK  status: ('A' for Active; 'I' for Inactive)
REMARK    1  A    between atoms: O_2  and  C_3 
REMARK    2  A    between atoms: C_6  and  C_7 
REMARK    3  A    between atoms: C_12  and  C_13 
REMARK       I    between atoms: C_13  and  N_14 
REMARK    4  A    between atoms: N_14  and  C_15 
REMARK    5  A    between atoms: C_17  and  O_18 
REMARK    6  A    between atoms: C_24  and  C_25 
ROOT
HETATM    1  C   UNL     1      42.646 -16.714   2.623  1.00  0.00     0.118 C 
HETATM    2  N   UNL     1      43.381 -15.560   3.131  1.00  0.00    -0.366 N 
HETATM    3  C   UNL     1      42.940 -14.808   4.160  1.00  0.00     0.123 A 
HETATM    4  N   UNL     1      41.737 -15.044   4.763  1.00  0.00    -0.240 N 
HETATM    5  N   UNL     1      41.407 -14.138   5.702  1.00  0.00    -0.165 NA
HETATM    6  C   UNL     1      42.504 -13.348   5.774  1.00  0.00     0.148 A 
HETATM    7  C   UNL     1      43.482 -13.736   4.817  1.00  0.00     0.089 A 
HETATM    8  C   UNL     1      40.853 -16.136   4.405  1.00  0.00     0.221 C 
HETATM    9  C   UNL     1      41.149 -16.611   2.971  1.00  0.00     0.066 C 
HETATM   10  H   UNL     1      44.320 -15.439   2.754  1.00  0.00     0.161 HD
ENDROOT
BRANCH   6  11
HETATM   11  C   UNL     1      42.607 -12.234   6.733  1.00  0.00     0.276 C 
HETATM   12  N   UNL     1      43.447 -12.537   7.786  1.00  0.00    -0.322 N 
HETATM   13  H   UNL     1      43.833 -13.477   7.736  1.00  0.00     0.169 HD
HETATM   14  O   UNL     1      41.987 -11.188   6.570  1.00  0.00    -0.266 OA
BRANCH  12  15
HETATM   15  C   UNL     1      43.804 -11.731   8.881  1.00  0.00     0.037 A 
HETATM   16  C   UNL     1      42.891 -10.960   9.605  1.00  0.00     0.066 A 
HETATM   17  C   UNL     1      43.336 -10.182  10.674  1.00  0.00     0.067 A 
HETATM   18  C   UNL     1      44.676 -10.164  11.041  1.00  0.00     0.036 A 
HETATM   19  C   UNL     1      45.591 -10.930  10.323  1.00  0.00     0.005 A 
HETATM   20  C   UNL     1      45.156 -11.706   9.245  1.00  0.00     0.029 A 
BRANCH  17  21
HETATM   21  O   UNL     1      42.471  -9.411  11.396  1.00  0.00    -0.361 OA
HETATM   22  H   UNL     1      41.644  -9.328  10.892  1.00  0.00     0.217 HD
ENDBRANCH  17  21
ENDBRANCH  12  15
ENDBRANCH   6  11
BRANCH   8  23
HETATM   23  C   UNL     1      40.933 -17.228   5.447  1.00  0.00     0.409 C 
HETATM   24  F   UNL     1      40.827 -18.473   4.949  1.00  0.00    -0.169 F 
HETATM   25  F   UNL     1      42.096 -17.170   6.140  1.00  0.00    -0.169 F 
HETATM   26  F   UNL     1      39.942 -17.073   6.362  1.00  0.00    -0.169 F 
ENDBRANCH   8  23
BRANCH   1  27
HETATM   27  C   UNL     1      43.302 -18.036   2.984  1.00  0.00    -0.035 A 
HETATM   28  C   UNL     1      44.086 -18.214   4.133  1.00  0.00     0.012 A 
HETATM   29  C   UNL     1      44.691 -19.444   4.408  1.00  0.00     0.037 A 
HETATM   30  C   UNL     1      44.535 -20.526   3.543  1.00  0.00     0.068 A 
HETATM   31  C   UNL     1      43.768 -20.365   2.391  1.00  0.00     0.037 A 
HETATM   32  C   UNL     1      43.159 -19.134   2.117  1.00  0.00     0.012 A 
BRANCH  30  33
HETATM   33  O   UNL     1      45.182 -21.666   3.929  1.00  0.00    -0.356 OA
HETATM   34  C   UNL     1      44.822 -22.217   5.189  1.00  0.00     0.210 C 
ENDBRANCH  30  33
ENDBRANCH   1  27
TORSDOF 6
ENDMDL
MODEL 2
REMARK VINA RESULT:      -8.8      5.006      8.313
REMARK  6 active torsions:
REMARK  status: ('A' for Active; 'I' for Inactive)
REMARK    1  A    between atoms: O_2  and  C_3 
REMARK    2  A    between atoms: C_6  and  C_7 
REMARK    3  A    between atoms: C_12  and  C_13 
REMARK       I    between atoms: C_13  and  N_14 
REMARK    4  A    between atoms: N_14  and  C_15 
REMARK    5  A    between atoms: C_17  and  O_18 
REMARK    6  A    between atoms: C_24  and  C_25 
ROOT
HETATM    1  C   UNL     1      41.151 -17.019   4.791  1.00  0.00     0.118 C 
HETATM    2  N   UNL     1      40.404 -17.023   3.537  1.00  0.00    -0.366 N 
HETATM    3  C   UNL     1      40.470 -16.016   2.643  1.00  0.00     0.123 A 
HETATM    4  N   UNL     1      41.204 -14.887   2.881  1.00  0.00    -0.240 N 
HETATM    5  N   UNL     1      41.077 -13.941   1.932  1.00  0.00    -0.165 NA
HETATM    6  C   UNL     1      40.309 -14.541   0.993  1.00  0.00     0.148 A 
HETATM    7  C   UNL     1      39.906 -15.840   1.408  1.00  0.00     0.089 A 
HETATM    8  C   UNL     1      42.012 -14.683   4.067  1.00  0.00     0.221 C 
HETATM    9  C   UNL     1      41.513 -15.582   5.211  1.00  0.00     0.066 C 
HETATM   10  H   UNL     1      39.937 -17.900   3.309  1.00  0.00     0.161 HD
ENDROOT
BRANCH   6  11
HETATM   11  C   UNL     1      39.958 -13.876  -0.275  1.00  0.00     0.276 C 
HETATM   12  N   UNL     1      38.676 -14.189  -0.682  1.00  0.00    -0.322 N 
HETATM   13  H   UNL     1      38.201 -14.837  -0.059  1.00  0.00     0.169 HD
HETATM   14  O   UNL     1      40.754 -13.150  -0.860  1.00  0.00    -0.266 OA
BRANCH  12  15
HETATM   15  C   UNL     1      37.987 -13.741  -1.823  1.00  0.00     0.037 A 
HETATM   16  C   UNL     1      37.803 -14.515  -2.971  1.00  0.00     0.066 A 
HETATM   17  C   UNL     1      37.112 -13.985  -4.061  1.00  0.00     0.067 A 
HETATM   18  C   UNL     1      36.591 -12.698  -4.024  1.00  0.00     0.036 A 
HETATM   19  C   UNL     1      36.770 -11.921  -2.882  1.00  0.00     0.005 A 
HETATM   20  C   UNL     1      37.469 -12.440  -1.789  1.00  0.00     0.029 A 
BRANCH  17  21
HETATM   21  O   UNL     1      36.924 -14.713  -5.201  1.00  0.00    -0.361 OA
HETATM   22  H   UNL     1      37.735 -14.658  -5.734  1.00  0.00     0.217 HD
ENDBRANCH  17  21
ENDBRANCH  12  15
ENDBRANCH   6  11
BRANCH   8  23
HETATM   23  C   UNL     1      43.475 -14.863   3.731  1.00  0.00     0.409 C 
HETATM   24  F   UNL     1      43.701 -15.640   2.657  1.00  0.00    -0.169 F 
HETATM   25  F   UNL     1      44.083 -13.673   3.503  1.00  0.00    -0.169 F 
HETATM   26  F   UNL     1      44.129 -15.423   4.781  1.00  0.00    -0.169 F 
ENDBRANCH   8  23
BRANCH   1  27
HETATM   27  C   UNL     1      42.310 -18.001   4.790  1.00  0.00    -0.035 A 
HETATM   28  C   UNL     1      42.819 -18.585   3.620  1.00  0.00     0.012 A 
HETATM   29  C   UNL     1      43.870 -19.504   3.674  1.00  0.00     0.037 A 
HETATM   30  C   UNL     1      44.437 -19.871   4.894  1.00  0.00     0.068 A 
HETATM   31  C   UNL     1      43.937 -19.310   6.067  1.00  0.00     0.037 A 
HETATM   32  C   UNL     1      42.886 -18.386   6.013  1.00  0.00     0.012 A 
BRANCH  30  33
HETATM   33  O   UNL     1      45.453 -20.781   4.803  1.00  0.00    -0.356 OA
HETATM   34  C   UNL     1      45.125 -22.141   5.056  1.00  0.00     0.210 C 
ENDBRANCH  30  33
ENDBRANCH   1  27
TORSDOF 6
ENDMDL
MODEL 3
REMARK VINA RESULT:      -8.8      5.416      7.853
REMARK  6 active torsions:
REMARK  status: ('A' for Active; 'I' for Inactive)
REMARK    1  A    between atoms: O_2  and  C_3 
REMARK    2  A    between atoms: C_6  and  C_7 
REMARK    3  A    between atoms: C_12  and  C_13 
REMARK       I    between atoms: C_13  and  N_14 
REMARK    4  A    between atoms: N_14  and  C_15 
REMARK    5  A    between atoms: C_17  and  O_18 
REMARK    6  A    between atoms: C_24  and  C_25 
ROOT
HETATM    1  C   UNL     1      41.040 -17.200   3.129  1.00  0.00     0.118 C 
HETATM    2  N   UNL     1      40.875 -17.117   1.682  1.00  0.00    -0.366 N 
HETATM    3  C   UNL     1      41.212 -16.023   0.969  1.00  0.00     0.123 A 
HETATM    4  N   UNL     1      41.683 -14.889   1.568  1.00  0.00    -0.240 N 
HETATM    5  N   UNL     1      41.873 -13.860   0.721  1.00  0.00    -0.165 NA
HETATM    6  C   UNL     1      41.613 -14.402  -0.492  1.00  0.00     0.148 A 
HETATM    7  C   UNL     1      41.191 -15.754  -0.373  1.00  0.00     0.089 A 
HETATM    8  C   UNL     1      41.914 -14.763   2.994  1.00  0.00     0.221 C 
HETATM    9  C   UNL     1      41.071 -15.796   3.762  1.00  0.00     0.066 C 
HETATM   10  H   UNL     1      40.620 -17.989   1.220  1.00  0.00     0.161 HD
ENDROOT
BRANCH   6  11
HETATM   11  C   UNL     1      41.754 -13.632  -1.741  1.00  0.00     0.276 C 
HETATM   12  N   UNL     1      41.993 -12.293  -1.497  1.00  0.00    -0.322 N 
HETATM   13  H   UNL     1      42.008 -12.060  -0.507  1.00  0.00     0.169 HD
HETATM   14  O   UNL     1      41.652 -14.168  -2.839  1.00  0.00    -0.266 OA
BRANCH  12  15
HETATM   15  C   UNL     1      42.194 -11.257  -2.425  1.00  0.00     0.037 A 
HETATM   16  C   UNL     1      42.240 -11.453  -3.807  1.00  0.00     0.066 A 
HETATM   17  C   UNL     1      42.453 -10.365  -4.655  1.00  0.00     0.067 A 
HETATM   18  C   UNL     1      42.612  -9.082  -4.149  1.00  0.00     0.036 A 
HETATM   19  C   UNL     1      42.568  -8.879  -2.772  1.00  0.00     0.005 A 
HETATM   20  C   UNL     1      42.364  -9.964  -1.915  1.00  0.00     0.029 A 
BRANCH  17  21
HETATM   21  O   UNL     1      42.513 -10.525  -6.009  1.00  0.00    -0.361 OA
HETATM   22  H   UNL     1      43.375 -10.916  -6.232  1.00  0.00     0.217 HD
ENDBRANCH  17  21
ENDBRANCH  12  15
ENDBRANCH   6  11
BRANCH   8  23
HETATM   23  C   UNL     1      43.396 -14.833   3.284  1.00  0.00     0.409 C 
HETATM   24  F   UNL     1      44.079 -15.650   2.462  1.00  0.00    -0.169 F 
HETATM   25  F   UNL     1      43.976 -13.611   3.211  1.00  0.00    -0.169 F 
HETATM   26  F   UNL     1      43.602 -15.272   4.553  1.00  0.00    -0.169 F 
ENDBRANCH   8  23
BRANCH   1  27
HETATM   27  C   UNL     1      42.179 -18.117   3.541  1.00  0.00    -0.035 A 
HETATM   28  C   UNL     1      42.562 -18.311   4.876  1.00  0.00     0.012 A 
HETATM   29  C   UNL     1      43.635 -19.145   5.203  1.00  0.00     0.037 A 
HETATM   30  C   UNL     1      44.358 -19.802   4.208  1.00  0.00     0.068 A 
HETATM   31  C   UNL     1      43.999 -19.612   2.876  1.00  0.00     0.037 A 
HETATM   32  C   UNL     1      42.922 -18.779   2.548  1.00  0.00     0.012 A 
BRANCH  30  33
HETATM   33  O   UNL     1      45.383 -20.581   4.665  1.00  0.00    -0.356 OA
HETATM   34  C   UNL     1      45.064 -21.918   5.028  1.00  0.00     0.210 C 
ENDBRANCH  30  33
ENDBRANCH   1  27
TORSDOF 6
ENDMDL
MODEL 4
REMARK VINA RESULT:      -8.8      6.086      9.788
REMARK  6 active torsions:
REMARK  status: ('A' for Active; 'I' for Inactive)
REMARK    1  A    between atoms: O_2  and  C_3 
REMARK    2  A    between atoms: C_6  and  C_7 
REMARK    3  A    between atoms: C_12  and  C_13 
REMARK       I    between atoms: C_13  and  N_14 
REMARK    4  A    between atoms: N_14  and  C_15 
REMARK    5  A    between atoms: C_17  and  O_18 
REMARK    6  A    between atoms: C_24  and  C_25 
ROOT
HETATM    1  C   UNL     1      40.212 -13.319  -2.329  1.00  0.00     0.118 C 
HETATM    2  N   UNL     1      40.864 -14.586  -2.010  1.00  0.00    -0.366 N 
HETATM    3  C   UNL     1      40.939 -15.074  -0.756  1.00  0.00     0.123 A 
HETATM    4  N   UNL     1      40.455 -14.381   0.318  1.00  0.00    -0.240 N 
HETATM    5  N   UNL     1      40.704 -14.966   1.505  1.00  0.00    -0.165 NA
HETATM    6  C   UNL     1      41.279 -16.142   1.160  1.00  0.00     0.148 A 
HETATM    7  C   UNL     1      41.447 -16.240  -0.249  1.00  0.00     0.089 A 
HETATM    8  C   UNL     1      39.778 -13.103   0.219  1.00  0.00     0.221 C 
HETATM    9  C   UNL     1      40.164 -12.399  -1.094  1.00  0.00     0.066 C 
HETATM   10  H   UNL     1      41.137 -15.151  -2.813  1.00  0.00     0.161 HD
ENDROOT
BRANCH   6  11
HETATM   11  C   UNL     1      41.673 -17.147   2.164  1.00  0.00     0.276 C 
HETATM   12  N   UNL     1      42.757 -17.894   1.747  1.00  0.00    -0.322 N 
HETATM   13  H   UNL     1      43.084 -17.645   0.816  1.00  0.00     0.169 HD
HETATM   14  O   UNL     1      41.066 -17.266   3.223  1.00  0.00    -0.266 OA
BRANCH  12  15
HETATM   15  C   UNL     1      43.421 -18.928   2.429  1.00  0.00     0.037 A 
HETATM   16  C   UNL     1      43.595 -20.213   1.909  1.00  0.00     0.066 A 
HETATM   17  C   UNL     1      44.262 -21.180   2.661  1.00  0.00     0.067 A 
HETATM   18  C   UNL     1      44.767 -20.888   3.922  1.00  0.00     0.036 A 
HETATM   19  C   UNL     1      44.597 -19.609   4.446  1.00  0.00     0.005 A 
HETATM   20  C   UNL     1      43.923 -18.635   3.704  1.00  0.00     0.029 A 
BRANCH  17  21
HETATM   21  O   UNL     1      44.440 -22.447   2.186  1.00  0.00    -0.361 OA
HETATM   22  H   UNL     1      43.599 -22.928   2.277  1.00  0.00     0.217 HD
ENDBRANCH  17  21
ENDBRANCH  12  15
ENDBRANCH   6  11
BRANCH   8  23
HETATM   23  C   UNL     1      38.290 -13.292   0.406  1.00  0.00     0.409 C 
HETATM   24  F   UNL     1      37.811 -14.437  -0.113  1.00  0.00    -0.169 F 
HETATM   25  F   UNL     1      37.947 -13.269   1.717  1.00  0.00    -0.169 F 
HETATM   26  F   UNL     1      37.613 -12.269  -0.178  1.00  0.00    -0.169 F 
ENDBRANCH   8  23
BRANCH   1  27
HETATM   27  C   UNL     1      38.886 -13.503  -3.048  1.00  0.00    -0.035 A 
HETATM   28  C   UNL     1      38.062 -12.431  -3.419  1.00  0.00     0.012 A 
HETATM   29  C   UNL     1      36.837 -12.653  -4.056  1.00  0.00     0.037 A 
HETATM   30  C   UNL     1      36.400 -13.947  -4.332  1.00  0.00     0.068 A 
HETATM   31  C   UNL     1      37.201 -15.025  -3.961  1.00  0.00     0.037 A 
HETATM   32  C   UNL     1      38.430 -14.803  -3.326  1.00  0.00     0.012 A 
BRANCH  30  33
HETATM   33  O   UNL     1      35.185 -14.021  -4.953  1.00  0.00    -0.356 OA
HETATM   34  C   UNL     1      34.363 -12.862  -4.903  1.00  0.00     0.210 C 
ENDBRANCH  30  33
ENDBRANCH   1  27
TORSDOF 6
ENDMDL
MODEL 5
REMARK VINA RESULT:      -8.7      2.788      3.325
REMARK  6 active torsions:
REMARK  status: ('A' for Active; 'I' for Inactive)
REMARK    1  A    between atoms: O_2  and  C_3 
REMARK    2  A    between atoms: C_6  and  C_7 
REMARK    3  A    between atoms: C_12  and  C_13 
REMARK       I    between atoms: C_13  and  N_14 
REMARK    4  A    between atoms: N_14  and  C_15 
REMARK    5  A    between atoms: C_17  and  O_18 
REMARK    6  A    between atoms: C_24  and  C_25 
ROOT
HETATM    1  C   UNL     1      43.514 -15.388   2.547  1.00  0.00     0.118 C 
HETATM    2  N   UNL     1      43.368 -14.717   3.835  1.00  0.00    -0.366 N 
HETATM    3  C   UNL     1      42.202 -14.186   4.255  1.00  0.00     0.123 A 
HETATM    4  N   UNL     1      41.083 -14.191   3.470  1.00  0.00    -0.240 N 
HETATM    5  N   UNL     1      40.038 -13.530   4.001  1.00  0.00    -0.165 NA
HETATM    6  C   UNL     1      40.482 -13.181   5.232  1.00  0.00     0.148 A 
HETATM    7  C   UNL     1      41.836 -13.571   5.422  1.00  0.00     0.089 A 
HETATM    8  C   UNL     1      41.019 -14.802   2.156  1.00  0.00     0.221 C 
HETATM    9  C   UNL     1      42.431 -14.921   1.557  1.00  0.00     0.066 C 
HETATM   10  H   UNL     1      44.168 -14.797   4.462  1.00  0.00     0.161 HD
ENDROOT
BRANCH   6  11
HETATM   11  C   UNL     1      39.627 -12.473   6.202  1.00  0.00     0.276 C 
HETATM   12  N   UNL     1      40.367 -11.684   7.061  1.00  0.00    -0.322 N 
HETATM   13  H   UNL     1      41.370 -11.740   6.897  1.00  0.00     0.169 HD
HETATM   14  O   UNL     1      38.409 -12.615   6.206  1.00  0.00    -0.266 OA
BRANCH  12  15
HETATM   15  C   UNL     1      39.910 -10.858   8.102  1.00  0.00     0.037 A 
HETATM   16  C   UNL     1      39.937 -11.224   9.450  1.00  0.00     0.066 A 
HETATM   17  C   UNL     1      39.455 -10.341  10.417  1.00  0.00     0.067 A 
HETATM   18  C   UNL     1      38.952  -9.095  10.065  1.00  0.00     0.036 A 
HETATM   19  C   UNL     1      38.921  -8.724   8.723  1.00  0.00     0.005 A 
HETATM   20  C   UNL     1      39.395  -9.605   7.746  1.00  0.00     0.029 A 
BRANCH  17  21
HETATM   21  O   UNL     1      39.459 -10.672  11.742  1.00  0.00    -0.361 OA
HETATM   22  H   UNL     1      38.825 -10.096  12.202  1.00  0.00     0.217 HD
ENDBRANCH  17  21
ENDBRANCH  12  15
ENDBRANCH   6  11
BRANCH   8  23
HETATM   23  C   UNL     1      40.265 -16.110   2.231  1.00  0.00     0.409 C 
HETATM   24  F   UNL     1      40.448 -16.784   3.381  1.00  0.00    -0.169 F 
HETATM   25  F   UNL     1      38.931 -15.925   2.081  1.00  0.00    -0.169 F 
HETATM   26  F   UNL     1      40.648 -16.927   1.217  1.00  0.00    -0.169 F 
ENDBRANCH   8  23
BRANCH   1  27
HETATM   27  C   UNL     1      43.658 -16.895   2.680  1.00  0.00    -0.035 A 
HETATM   28  C   UNL     1      43.664 -17.557   3.916  1.00  0.00     0.012 A 
HETATM   29  C   UNL     1      43.826 -18.944   3.987  1.00  0.00     0.037 A 
HETATM   30  C   UNL     1      43.994 -19.705   2.831  1.00  0.00     0.068 A 
HETATM   31  C   UNL     1      44.002 -19.062   1.595  1.00  0.00     0.037 A 
HETATM   32  C   UNL     1      43.836 -17.673   1.522  1.00  0.00     0.012 A 
BRANCH  30  33
HETATM   33  O   UNL     1      44.147 -21.046   3.044  1.00  0.00    -0.356 OA
HETATM   34  C   UNL     1      44.171 -21.883   1.895  1.00  0.00     0.210 C 
ENDBRANCH  30  33
ENDBRANCH   1  27
TORSDOF 6
ENDMDL
MODEL 6
REMARK VINA RESULT:      -8.5      4.453      6.935
REMARK  6 active torsions:
REMARK  status: ('A' for Active; 'I' for Inactive)
REMARK    1  A    between atoms: O_2  and  C_3 
REMARK    2  A    between atoms: C_6  and  C_7 
REMARK    3  A    between atoms: C_12  and  C_13 
REMARK       I    between atoms: C_13  and  N_14 
REMARK    4  A    between atoms: N_14  and  C_15 
REMARK    5  A    between atoms: C_17  and  O_18 
REMARK    6  A    between atoms: C_24  and  C_25 
ROOT
HETATM    1  C   UNL     1      41.086 -17.147   4.989  1.00  0.00     0.118 C 
HETATM    2  N   UNL     1      40.577 -16.776   3.673  1.00  0.00    -0.366 N 
HETATM    3  C   UNL     1      40.801 -15.569   3.115  1.00  0.00     0.123 A 
HETATM    4  N   UNL     1      41.480 -14.584   3.776  1.00  0.00    -0.240 N 
HETATM    5  N   UNL     1      41.525 -13.412   3.116  1.00  0.00    -0.165 NA
HETATM    6  C   UNL     1      40.939 -13.698   1.930  1.00  0.00     0.148 A 
HETATM    7  C   UNL     1      40.469 -15.040   1.897  1.00  0.00     0.089 A 
HETATM    8  C   UNL     1      42.062 -14.747   5.094  1.00  0.00     0.221 C 
HETATM    9  C   UNL     1      41.366 -15.897   5.844  1.00  0.00     0.066 C 
HETATM   10  H   UNL     1      40.158 -17.535   3.136  1.00  0.00     0.161 HD
ENDROOT
BRANCH   6  11
HETATM   11  C   UNL     1      40.821 -12.699   0.853  1.00  0.00     0.276 C 
HETATM   12  N   UNL     1      41.986 -12.592   0.120  1.00  0.00    -0.322 N 
HETATM   13  H   UNL     1      42.732 -13.197   0.457  1.00  0.00     0.169 HD
HETATM   14  O   UNL     1      39.788 -12.060   0.682  1.00  0.00    -0.266 OA
BRANCH  12  15
HETATM   15  C   UNL     1      42.252 -11.764  -0.984  1.00  0.00     0.037 A 
HETATM   16  C   UNL     1      42.222 -12.206  -2.309  1.00  0.00     0.066 A 
HETATM   17  C   UNL     1      42.507 -11.314  -3.344  1.00  0.00     0.067 A 
HETATM   18  C   UNL     1      42.815  -9.985  -3.082  1.00  0.00     0.036 A 
HETATM   19  C   UNL     1      42.848  -9.538  -1.764  1.00  0.00     0.005 A 
HETATM   20  C   UNL     1      42.572 -10.426  -0.720  1.00  0.00     0.029 A 
BRANCH  17  21
HETATM   21  O   UNL     1      42.494 -11.717  -4.648  1.00  0.00    -0.361 OA
HETATM   22  H   UNL     1      43.331 -12.177  -4.833  1.00  0.00     0.217 HD
ENDBRANCH  17  21
ENDBRANCH  12  15
ENDBRANCH   6  11
BRANCH   8  23
HETATM   23  C   UNL     1      43.562 -14.901   4.980  1.00  0.00     0.409 C 
HETATM   24  F   UNL     1      44.236 -13.737   4.996  1.00  0.00    -0.169 F 
HETATM   25  F   UNL     1      44.061 -15.668   5.979  1.00  0.00    -0.169 F 
HETATM   26  F   UNL     1      43.879 -15.536   3.823  1.00  0.00    -0.169 F 
ENDBRANCH   8  23
BRANCH   1  27
HETATM   27  C   UNL     1      42.227 -18.148   4.919  1.00  0.00    -0.035 A 
HETATM   28  C   UNL     1      42.838 -18.694   6.057  1.00  0.00     0.012 A 
HETATM   29  C   UNL     1      43.903 -19.592   5.941  1.00  0.00     0.037 A 
HETATM   30  C   UNL     1      44.392 -19.963   4.689  1.00  0.00     0.068 A 
HETATM   31  C   UNL     1      43.805 -19.422   3.547  1.00  0.00     0.037 A 
HETATM   32  C   UNL     1      42.735 -18.525   3.663  1.00  0.00     0.012 A 
BRANCH  30  33
HETATM   33  O   UNL     1      45.437 -20.842   4.719  1.00  0.00    -0.356 OA
HETATM   34  C   UNL     1      45.141 -22.183   5.089  1.00  0.00     0.210 C 
ENDBRANCH  30  33
ENDBRANCH   1  27
TORSDOF 6
ENDMDL
MODEL 7
REMARK VINA RESULT:      -8.4      5.911      9.749
REMARK  6 active torsions:
REMARK  status: ('A' for Active; 'I' for Inactive)
REMARK    1  A    between atoms: O_2  and  C_3 
REMARK    2  A    between atoms: C_6  and  C_7 
REMARK    3  A    between atoms: C_12  and  C_13 
REMARK       I    between atoms: C_13  and  N_14 
REMARK    4  A    between atoms: N_14  and  C_15 
REMARK    5  A    between atoms: C_17  and  O_18 
REMARK    6  A    between atoms: C_24  and  C_25 
ROOT
HETATM    1  C   UNL     1      37.799 -13.914   0.502  1.00  0.00     0.118 C 
HETATM    2  N   UNL     1      38.407 -14.894   1.396  1.00  0.00    -0.366 N 
HETATM    3  C   UNL     1      39.670 -15.338   1.243  1.00  0.00     0.123 A 
HETATM    4  N   UNL     1      40.454 -14.939   0.197  1.00  0.00    -0.240 N 
HETATM    5  N   UNL     1      41.649 -15.557   0.140  1.00  0.00    -0.165 NA
HETATM    6  C   UNL     1      41.667 -16.306   1.267  1.00  0.00     0.148 A 
HETATM    7  C   UNL     1      40.441 -16.198   1.979  1.00  0.00     0.089 A 
HETATM    8  C   UNL     1      40.038 -13.977  -0.805  1.00  0.00     0.221 C 
HETATM    9  C   UNL     1      38.502 -13.908  -0.869  1.00  0.00     0.066 C 
HETATM   10  H   UNL     1      37.866 -15.119   2.230  1.00  0.00     0.161 HD
ENDROOT
BRANCH   6  11
HETATM   11  C   UNL     1      42.835 -17.122   1.647  1.00  0.00     0.276 C 
HETATM   12  N   UNL     1      42.462 -18.289   2.285  1.00  0.00    -0.322 N 
HETATM   13  H   UNL     1      41.456 -18.379   2.405  1.00  0.00     0.169 HD
HETATM   14  O   UNL     1      43.980 -16.752   1.408  1.00  0.00    -0.266 OA
BRANCH  12  15
HETATM   15  C   UNL     1      43.284 -19.316   2.778  1.00  0.00     0.037 A 
HETATM   16  C   UNL     1      43.568 -20.488   2.073  1.00  0.00     0.066 A 
HETATM   17  C   UNL     1      44.390 -21.460   2.645  1.00  0.00     0.067 A 
HETATM   18  C   UNL     1      44.940 -21.281   3.908  1.00  0.00     0.036 A 
HETATM   19  C   UNL     1      44.660 -20.116   4.618  1.00  0.00     0.005 A 
HETATM   20  C   UNL     1      43.832 -19.141   4.056  1.00  0.00     0.029 A 
BRANCH  17  21
HETATM   21  O   UNL     1      44.679 -22.619   1.985  1.00  0.00    -0.361 OA
HETATM   22  H   UNL     1      43.921 -22.845   1.419  1.00  0.00     0.217 HD
ENDBRANCH  17  21
ENDBRANCH  12  15
ENDBRANCH   6  11
BRANCH   8  23
HETATM   23  C   UNL     1      40.707 -12.646  -0.551  1.00  0.00     0.409 C 
HETATM   24  F   UNL     1      41.063 -12.444   0.730  1.00  0.00    -0.169 F 
HETATM   25  F   UNL     1      41.822 -12.498  -1.307  1.00  0.00    -0.169 F 
HETATM   26  F   UNL     1      39.876 -11.632  -0.905  1.00  0.00    -0.169 F 
ENDBRANCH   8  23
BRANCH   1  27
HETATM   27  C   UNL     1      37.635 -12.548   1.147  1.00  0.00    -0.035 A 
HETATM   28  C   UNL     1      38.361 -12.143   2.276  1.00  0.00     0.012 A 
HETATM   29  C   UNL     1      38.155 -10.885   2.850  1.00  0.00     0.037 A 
HETATM   30  C   UNL     1      37.217 -10.002   2.318  1.00  0.00     0.068 A 
HETATM   31  C   UNL     1      36.479 -10.392   1.202  1.00  0.00     0.037 A 
HETATM   32  C   UNL     1      36.687 -11.651   0.625  1.00  0.00     0.012 A 
BRANCH  30  33
HETATM   33  O   UNL     1      37.114  -8.809   2.977  1.00  0.00    -0.356 OA
HETATM   34  C   UNL     1      36.170  -8.739   4.038  1.00  0.00     0.210 C 
ENDBRANCH  30  33
ENDBRANCH   1  27
TORSDOF 6
ENDMDL
MODEL 8
REMARK VINA RESULT:      -8.1      5.026      9.074
REMARK  6 active torsions:
REMARK  status: ('A' for Active; 'I' for Inactive)
REMARK    1  A    between atoms: O_2  and  C_3 
REMARK    2  A    between atoms: C_6  and  C_7 
REMARK    3  A    between atoms: C_12  and  C_13 
REMARK       I    between atoms: C_13  and  N_14 
REMARK    4  A    between atoms: N_14  and  C_15 
REMARK    5  A    between atoms: C_17  and  O_18 
REMARK    6  A    between atoms: C_24  and  C_25 
ROOT
HETATM    1  C   UNL     1      41.215 -11.583   2.185  1.00  0.00     0.118 C 
HETATM    2  N   UNL     1      42.207 -12.576   2.585  1.00  0.00    -0.366 N 
HETATM    3  C   UNL     1      41.887 -13.854   2.871  1.00  0.00     0.123 A 
HETATM    4  N   UNL     1      40.593 -14.294   2.859  1.00  0.00    -0.240 N 
HETATM    5  N   UNL     1      40.443 -15.568   3.267  1.00  0.00    -0.165 NA
HETATM    6  C   UNL     1      41.717 -15.992   3.443  1.00  0.00     0.148 A 
HETATM    7  C   UNL     1      42.647 -14.942   3.209  1.00  0.00     0.089 A 
HETATM    8  C   UNL     1      39.460 -13.466   2.495  1.00  0.00     0.221 C 
HETATM    9  C   UNL     1      39.810 -11.978   2.676  1.00  0.00     0.066 C 
HETATM   10  H   UNL     1      43.179 -12.282   2.499  1.00  0.00     0.161 HD
ENDROOT
BRANCH   6  11
HETATM   11  C   UNL     1      42.036 -17.375   3.842  1.00  0.00     0.276 C 
HETATM   12  N   UNL     1      42.966 -17.952   2.999  1.00  0.00    -0.322 N 
HETATM   13  H   UNL     1      43.255 -17.341   2.239  1.00  0.00     0.169 HD
HETATM   14  O   UNL     1      41.499 -17.902   4.810  1.00  0.00    -0.266 OA
BRANCH  12  15
HETATM   15  C   UNL     1      43.523 -19.241   3.064  1.00  0.00     0.037 A 
HETATM   16  C   UNL     1      43.469 -20.161   2.015  1.00  0.00     0.066 A 
HETATM   17  C   UNL     1      44.044 -21.423   2.170  1.00  0.00     0.067 A 
HETATM   18  C   UNL     1      44.680 -21.782   3.351  1.00  0.00     0.036 A 
HETATM   19  C   UNL     1      44.736 -20.869   4.402  1.00  0.00     0.005 A 
HETATM   20  C   UNL     1      44.156 -19.606   4.259  1.00  0.00     0.029 A 
BRANCH  17  21
HETATM   21  O   UNL     1      44.000 -22.349   1.167  1.00  0.00    -0.361 OA
HETATM   22  H   UNL     1      43.630 -21.922   0.375  1.00  0.00     0.217 HD
ENDBRANCH  17  21
ENDBRANCH  12  15
ENDBRANCH   6  11
BRANCH   8  23
HETATM   23  C   UNL     1      38.983 -13.825   1.107  1.00  0.00     0.409 C 
HETATM   24  F   UNL     1      39.950 -14.294   0.297  1.00  0.00    -0.169 F 
HETATM   25  F   UNL     1      38.002 -14.759   1.144  1.00  0.00    -0.169 F 
HETATM   26  F   UNL     1      38.443 -12.736   0.503  1.00  0.00    -0.169 F 
ENDBRANCH   8  23
BRANCH   1  27
HETATM   27  C   UNL     1      41.304 -11.220   0.712  1.00  0.00    -0.035 A 
HETATM   28  C   UNL     1      42.163 -11.870  -0.186  1.00  0.00     0.012 A 
HETATM   29  C   UNL     1      42.228 -11.482  -1.527  1.00  0.00     0.037 A 
HETATM   30  C   UNL     1      41.445 -10.433  -2.006  1.00  0.00     0.068 A 
HETATM   31  C   UNL     1      40.593  -9.769  -1.126  1.00  0.00     0.037 A 
HETATM   32  C   UNL     1      40.525 -10.160   0.217  1.00  0.00     0.012 A 
BRANCH  30  33
HETATM   33  O   UNL     1      41.609 -10.155  -3.334  1.00  0.00    -0.356 OA
HETATM   34  C   UNL     1      42.199 -11.169  -4.137  1.00  0.00     0.210 C 
ENDBRANCH  30  33
ENDBRANCH   1  27
TORSDOF 6
ENDMDL
MODEL 9
REMARK VINA RESULT:      -8.0      5.525      9.405
REMARK  6 active torsions:
REMARK  status: ('A' for Active; 'I' for Inactive)
REMARK    1  A    between atoms: O_2  and  C_3 
REMARK    2  A    between atoms: C_6  and  C_7 
REMARK    3  A    between atoms: C_12  and  C_13 
REMARK       I    between atoms: C_13  and  N_14 
REMARK    4  A    between atoms: N_14  and  C_15 
REMARK    5  A    between atoms: C_17  and  O_18 
REMARK    6  A    between atoms: C_24  and  C_25 
ROOT
HETATM    1  C   UNL     1      39.605 -12.183   0.734  1.00  0.00     0.118 C 
HETATM    2  N   UNL     1      40.168 -12.769   1.946  1.00  0.00    -0.366 N 
HETATM    3  C   UNL     1      40.512 -14.070   2.037  1.00  0.00     0.123 A 
HETATM    4  N   UNL     1      40.300 -14.946   1.009  1.00  0.00    -0.240 N 
HETATM    5  N   UNL     1      40.606 -16.223   1.305  1.00  0.00    -0.165 NA
HETATM    6  C   UNL     1      41.140 -16.136   2.546  1.00  0.00     0.148 A 
HETATM    7  C   UNL     1      41.092 -14.802   3.038  1.00  0.00     0.089 A 
HETATM    8  C   UNL     1      39.746 -14.567  -0.276  1.00  0.00     0.221 C 
HETATM    9  C   UNL     1      38.942 -13.261  -0.143  1.00  0.00     0.066 C 
HETATM   10  H   UNL     1      40.420 -12.105   2.677  1.00  0.00     0.161 HD
ENDROOT
BRANCH   6  11
HETATM   11  C   UNL     1      41.676 -17.314   3.254  1.00  0.00     0.276 C 
HETATM   12  N   UNL     1      42.628 -17.976   2.504  1.00  0.00    -0.322 N 
HETATM   13  H   UNL     1      42.783 -17.558   1.589  1.00  0.00     0.169 HD
HETATM   14  O   UNL     1      41.277 -17.627   4.370  1.00  0.00    -0.266 OA
BRANCH  12  15
HETATM   15  C   UNL     1      43.366 -19.122   2.843  1.00  0.00     0.037 A 
HETATM   16  C   UNL     1      43.493 -20.237   2.010  1.00  0.00     0.066 A 
HETATM   17  C   UNL     1      44.240 -21.337   2.433  1.00  0.00     0.067 A 
HETATM   18  C   UNL     1      44.873 -21.342   3.669  1.00  0.00     0.036 A 
HETATM   19  C   UNL     1      44.750 -20.235   4.505  1.00  0.00     0.005 A 
HETATM   20  C   UNL     1      43.996 -19.132   4.094  1.00  0.00     0.029 A 
BRANCH  17  21
HETATM   21  O   UNL     1      44.375 -22.444   1.647  1.00  0.00    -0.361 OA
HETATM   22  H   UNL     1      43.793 -23.140   1.997  1.00  0.00     0.217 HD
ENDBRANCH  17  21
ENDBRANCH  12  15
ENDBRANCH   6  11
BRANCH   8  23
HETATM   23  C   UNL     1      40.843 -14.516  -1.315  1.00  0.00     0.409 C 
HETATM   24  F   UNL     1      42.043 -14.152  -0.830  1.00  0.00    -0.169 F 
HETATM   25  F   UNL     1      41.002 -15.713  -1.929  1.00  0.00    -0.169 F 
HETATM   26  F   UNL     1      40.517 -13.633  -2.294  1.00  0.00    -0.169 F 
ENDBRANCH   8  23
BRANCH   1  27
HETATM   27  C   UNL     1      40.583 -11.274   0.008  1.00  0.00    -0.035 A 
HETATM   28  C   UNL     1      41.912 -11.098   0.417  1.00  0.00     0.012 A 
HETATM   29  C   UNL     1      42.767 -10.229  -0.268  1.00  0.00     0.037 A 
HETATM   30  C   UNL     1      42.316  -9.509  -1.374  1.00  0.00     0.068 A 
HETATM   31  C   UNL     1      40.995  -9.663  -1.788  1.00  0.00     0.037 A 
HETATM   32  C   UNL     1      40.140 -10.536  -1.104  1.00  0.00     0.012 A 
BRANCH  30  33
HETATM   33  O   UNL     1      43.252  -8.694  -1.947  1.00  0.00    -0.356 OA
HETATM   34  C   UNL     1      44.231  -8.130  -1.084  1.00  0.00     0.210 C 
ENDBRANCH  30  33
ENDBRANCH   1  27
TORSDOF 6
ENDMDL
MODEL 10
REMARK VINA RESULT:      -7.8      3.951      5.263
REMARK  6 active torsions:
REMARK  status: ('A' for Active; 'I' for Inactive)
REMARK    1  A    between atoms: O_2  and  C_3 
REMARK    2  A    between atoms: C_6  and  C_7 
REMARK    3  A    between atoms: C_12  and  C_13 
REMARK       I    between atoms: C_13  and  N_14 
REMARK    4  A    between atoms: N_14  and  C_15 
REMARK    5  A    between atoms: C_17  and  O_18 
REMARK    6  A    between atoms: C_24  and  C_25 
ROOT
HETATM    1  C   UNL     1      40.452 -15.834   3.160  1.00  0.00     0.118 C 
HETATM    2  N   UNL     1      39.669 -14.860   3.913  1.00  0.00    -0.366 N 
HETATM    3  C   UNL     1      40.224 -13.990   4.781  1.00  0.00     0.123 A 
HETATM    4  N   UNL     1      41.562 -14.003   5.059  1.00  0.00    -0.240 N 
HETATM    5  N   UNL     1      41.930 -13.138   6.023  1.00  0.00    -0.165 NA
HETATM    6  C   UNL     1      40.786 -12.468   6.294  1.00  0.00     0.148 A 
HETATM    7  C   UNL     1      39.696 -12.979   5.539  1.00  0.00     0.089 A 
HETATM    8  C   UNL     1      42.512 -14.895   4.423  1.00  0.00     0.221 C 
HETATM    9  C   UNL     1      41.787 -16.133   3.867  1.00  0.00     0.066 C 
HETATM   10  H   UNL     1      38.691 -14.779   3.638  1.00  0.00     0.161 HD
ENDROOT
BRANCH   6  11
HETATM   11  C   UNL     1      40.737 -11.364   7.271  1.00  0.00     0.276 C 
HETATM   12  N   UNL     1      39.955 -11.679   8.365  1.00  0.00    -0.322 N 
HETATM   13  H   UNL     1      39.528 -12.601   8.303  1.00  0.00     0.169 HD
HETATM   14  O   UNL     1      41.333 -10.310   7.077  1.00  0.00    -0.266 OA
BRANCH  12  15
HETATM   15  C   UNL     1      39.681 -10.896   9.499  1.00  0.00     0.037 A 
HETATM   16  C   UNL     1      40.379 -11.005  10.703  1.00  0.00     0.066 A 
HETATM   17  C   UNL     1      40.033 -10.190  11.782  1.00  0.00     0.067 A 
HETATM   18  C   UNL     1      39.006  -9.260  11.678  1.00  0.00     0.036 A 
HETATM   19  C   UNL     1      38.305  -9.146  10.480  1.00  0.00     0.005 A 
HETATM   20  C   UNL     1      38.639  -9.964   9.397  1.00  0.00     0.029 A 
BRANCH  17  21
HETATM   21  O   UNL     1      40.689 -10.279  12.975  1.00  0.00    -0.361 OA
HETATM   22  H   UNL     1      40.338  -9.594  13.568  1.00  0.00     0.217 HD
ENDBRANCH  17  21
ENDBRANCH  12  15
ENDBRANCH   6  11
BRANCH   8  23
HETATM   23  C   UNL     1      43.323 -14.139   3.396  1.00  0.00     0.409 C 
HETATM   24  F   UNL     1      42.661 -13.125   2.811  1.00  0.00    -0.169 F 
HETATM   25  F   UNL     1      44.453 -13.622   3.937  1.00  0.00    -0.169 F 
HETATM   26  F   UNL     1      43.728 -14.980   2.411  1.00  0.00    -0.169 F 
ENDBRANCH   8  23
BRANCH   1  27
HETATM   27  C   UNL     1      40.568 -15.485   1.686  1.00  0.00    -0.035 A 
HETATM   28  C   UNL     1      41.222 -16.304   0.754  1.00  0.00     0.012 A 
HETATM   29  C   UNL     1      41.326 -15.925  -0.588  1.00  0.00     0.037 A 
HETATM   30  C   UNL     1      40.787 -14.719  -1.034  1.00  0.00     0.068 A 
HETATM   31  C   UNL     1      40.143 -13.888  -0.120  1.00  0.00     0.037 A 
HETATM   32  C   UNL     1      40.036 -14.268   1.224  1.00  0.00     0.012 A 
BRANCH  30  33
HETATM   33  O   UNL     1      40.963 -14.471  -2.366  1.00  0.00    -0.356 OA
HETATM   34  C   UNL     1      41.065 -15.599  -3.225  1.00  0.00     0.210 C 
ENDBRANCH  30  33
ENDBRANCH   1  27
TORSDOF 6
ENDMDL
