MODEL 1
REMARK VINA RESULT:      -8.4      0.000      0.000
REMARK  6 active torsions:
REMARK  status: ('A' for Active; 'I' for Inactive)
REMARK    1  A    between atoms: C_2  and  O_3 
REMARK    2  A    between atoms: O_3  and  C_4 
REMARK    3  A    between atoms: C_8  and  C_9 
REMARK    4  A    between atoms: C_9  and  N_10 
REMARK       I    between atoms: N_10  and  C_11 
REMARK       I    between atoms: C_11  and  N_12 
REMARK    5  A    between atoms: N_12  and  C_13 
REMARK    6  A    between atoms: C_14  and  C_15 
ROOT
HETATM    1  N   UNL     1      43.998 -14.378   7.750  1.00  0.00    -0.339 N 
HETATM    2  C   UNL     1      44.797 -13.302   8.045  1.00  0.00     0.316 C 
HETATM    3  N   UNL     1      44.200 -12.462   8.958  1.00  0.00    -0.338 N 
HETATM    4  O   UNL     1      45.903 -13.114   7.555  1.00  0.00    -0.247 OA
HETATM    5  H   UNL     1      43.346 -14.658   8.466  1.00  0.00     0.164 HD
HETATM    6  H   UNL     1      43.189 -12.438   8.911  1.00  0.00     0.164 HD
ENDROOT
BRANCH   1   7
HETATM    7  C   UNL     1      44.422 -15.390   6.809  1.00  0.00     0.163 C 
BRANCH   7   8
HETATM    8  C   UNL     1      43.314 -15.827   5.888  1.00  0.00    -0.035 A 
HETATM    9  C   UNL     1      42.114 -15.114   5.813  1.00  0.00     0.028 A 
HETATM   10  C   UNL     1      41.112 -15.581   4.979  1.00  0.00     0.120 A 
HETATM   11  N   UNL     1      41.213 -16.702   4.235  1.00  0.00    -0.237 NA
HETATM   12  C   UNL     1      42.366 -17.387   4.328  1.00  0.00     0.165 A 
HETATM   13  C   UNL     1      43.439 -16.983   5.111  1.00  0.00     0.066 A 
BRANCH  12  14
HETATM   14  O   UNL     1      42.554 -18.538   3.597  1.00  0.00    -0.324 OA
BRANCH  14  15
HETATM   15  C   UNL     1      42.864 -18.437   2.194  1.00  0.00     0.058 C 
HETATM   16  C   UNL     1      44.075 -17.534   1.919  1.00  0.00     0.045 C 
HETATM   17  C   UNL     1      41.646 -18.049   1.340  1.00  0.00     0.045 C 
HETATM   18  C   UNL     1      43.262 -19.875   1.804  1.00  0.00     0.045 C 
ENDBRANCH  14  15
ENDBRANCH  12  14
ENDBRANCH   7   8
ENDBRANCH   1   7
BRANCH   3  19
HETATM   19  C   UNL     1      44.856 -11.260   9.389  1.00  0.00     0.095 A 
HETATM   20  C   UNL     1      44.321 -10.366  10.488  1.00  0.00     0.043 A 
HETATM   21  C   UNL     1      45.551 -11.214  10.717  1.00  0.00     0.037 A 
BRANCH  20  22
HETATM   22  C   UNL     1      43.049 -10.671  11.245  1.00  0.00    -0.052 A 
HETATM   23  C   UNL     1      43.055 -10.832  12.641  1.00  0.00     0.007 A 
HETATM   24  C   UNL     1      41.879 -11.076  13.354  1.00  0.00     0.001 A 
HETATM   25  C   UNL     1      40.663 -11.161  12.682  1.00  0.00     0.000 A 
HETATM   26  C   UNL     1      40.626 -10.991  11.301  1.00  0.00     0.001 A 
HETATM   27  C   UNL     1      41.806 -10.741  10.595  1.00  0.00     0.007 A 
ENDBRANCH  20  22
ENDBRANCH   3  19
TORSDOF 6
ENDMDL
MODEL 2
REMARK VINA RESULT:      -8.3      1.252      1.599
REMARK  6 active torsions:
REMARK  status: ('A' for Active; 'I' for Inactive)
REMARK    1  A    between atoms: C_2  and  O_3 
REMARK    2  A    between atoms: O_3  and  C_4 
REMARK    3  A    between atoms: C_8  and  C_9 
REMARK    4  A    between atoms: C_9  and  N_10 
REMARK       I    between atoms: N_10  and  C_11 
REMARK       I    between atoms: C_11  and  N_12 
REMARK    5  A    between atoms: N_12  and  C_13 
REMARK    6  A    between atoms: C_14  and  C_15 
ROOT
HETATM    1  N   UNL     1      43.731 -14.026   7.180  1.00  0.00    -0.339 N 
HETATM    2  C   UNL     1      44.740 -13.300   7.762  1.00  0.00     0.316 C 
HETATM    3  N   UNL     1      44.345 -12.757   8.964  1.00  0.00    -0.338 N 
HETATM    4  O   UNL     1      45.852 -13.154   7.271  1.00  0.00    -0.247 OA
HETATM    5  H   UNL     1      43.048 -14.423   7.807  1.00  0.00     0.164 HD
HETATM    6  H   UNL     1      43.360 -12.531   9.022  1.00  0.00     0.164 HD
ENDROOT
BRANCH   1   7
HETATM    7  C   UNL     1      43.920 -14.683   5.907  1.00  0.00     0.163 C 
BRANCH   7   8
HETATM    8  C   UNL     1      43.566 -16.145   5.951  1.00  0.00    -0.035 A 
HETATM    9  C   UNL     1      43.597 -16.861   7.151  1.00  0.00     0.028 A 
HETATM   10  C   UNL     1      43.300 -18.213   7.130  1.00  0.00     0.120 A 
HETATM   11  N   UNL     1      42.991 -18.899   6.009  1.00  0.00    -0.237 NA
HETATM   12  C   UNL     1      42.980 -18.203   4.860  1.00  0.00     0.165 A 
HETATM   13  C   UNL     1      43.233 -16.840   4.783  1.00  0.00     0.066 A 
BRANCH  12  14
HETATM   14  O   UNL     1      42.668 -18.825   3.672  1.00  0.00    -0.324 OA
BRANCH  14  15
HETATM   15  C   UNL     1      43.733 -19.226   2.789  1.00  0.00     0.058 C 
HETATM   16  C   UNL     1      44.910 -19.870   3.534  1.00  0.00     0.045 C 
HETATM   17  C   UNL     1      44.189 -18.096   1.851  1.00  0.00     0.045 C 
HETATM   18  C   UNL     1      43.087 -20.319   1.913  1.00  0.00     0.045 C 
ENDBRANCH  14  15
ENDBRANCH  12  14
ENDBRANCH   7   8
ENDBRANCH   1   7
BRANCH   3  19
HETATM   19  C   UNL     1      45.242 -11.939   9.731  1.00  0.00     0.095 A 
HETATM   20  C   UNL     1      44.782 -10.984  10.812  1.00  0.00     0.043 A 
HETATM   21  C   UNL     1      45.510 -12.258  11.172  1.00  0.00     0.037 A 
BRANCH  20  22
HETATM   22  C   UNL     1      43.329 -10.817  11.193  1.00  0.00    -0.052 A 
HETATM   23  C   UNL     1      42.807 -11.421  12.350  1.00  0.00     0.007 A 
HETATM   24  C   UNL     1      41.475 -11.241  12.731  1.00  0.00     0.001 A 
HETATM   25  C   UNL     1      40.632 -10.445  11.960  1.00  0.00     0.000 A 
HETATM   26  C   UNL     1      41.127  -9.824  10.818  1.00  0.00     0.001 A 
HETATM   27  C   UNL     1      42.462 -10.002  10.446  1.00  0.00     0.007 A 
ENDBRANCH  20  22
ENDBRANCH   3  19
TORSDOF 6
ENDMDL
MODEL 3
REMARK VINA RESULT:      -8.0      4.292      8.315
REMARK  6 active torsions:
REMARK  status: ('A' for Active; 'I' for Inactive)
REMARK    1  A    between atoms: C_2  and  O_3 
REMARK    2  A    between atoms: O_3  and  C_4 
REMARK    3  A    between atoms: C_8  and  C_9 
REMARK    4  A    between atoms: C_9  and  N_10 
REMARK       I    between atoms: N_10  and  C_11 
REMARK       I    between atoms: C_11  and  N_12 
REMARK    5  A    between atoms: N_12  and  C_13 
REMARK    6  A    between atoms: C_14  and  C_15 
ROOT
HETATM    1  N   UNL     1      41.783 -17.795   1.865  1.00  0.00    -0.339 N 
HETATM    2  C   UNL     1      42.985 -18.433   1.698  1.00  0.00     0.316 C 
HETATM    3  N   UNL     1      43.145 -19.459   2.603  1.00  0.00    -0.338 N 
HETATM    4  O   UNL     1      43.813 -18.127   0.849  1.00  0.00    -0.247 OA
HETATM    5  H   UNL     1      41.038 -18.344   2.267  1.00  0.00     0.164 HD
HETATM    6  H   UNL     1      42.686 -19.311   3.493  1.00  0.00     0.164 HD
ENDROOT
BRANCH   1   7
HETATM    7  C   UNL     1      41.403 -16.681   1.025  1.00  0.00     0.163 C 
BRANCH   7   8
HETATM    8  C   UNL     1      41.876 -15.359   1.566  1.00  0.00    -0.035 A 
HETATM    9  C   UNL     1      41.604 -14.164   0.894  1.00  0.00     0.028 A 
HETATM   10  C   UNL     1      42.096 -12.979   1.414  1.00  0.00     0.120 A 
HETATM   11  N   UNL     1      42.844 -12.902   2.535  1.00  0.00    -0.237 NA
HETATM   12  C   UNL     1      43.111 -14.059   3.163  1.00  0.00     0.165 A 
HETATM   13  C   UNL     1      42.637 -15.293   2.738  1.00  0.00     0.066 A 
BRANCH  12  14
HETATM   14  O   UNL     1      43.861 -14.068   4.318  1.00  0.00    -0.324 OA
BRANCH  14  15
HETATM   15  C   UNL     1      43.192 -14.151   5.590  1.00  0.00     0.058 C 
HETATM   16  C   UNL     1      42.470 -15.491   5.793  1.00  0.00     0.045 C 
HETATM   17  C   UNL     1      42.270 -12.951   5.860  1.00  0.00     0.045 C 
HETATM   18  C   UNL     1      44.344 -14.087   6.613  1.00  0.00     0.045 C 
ENDBRANCH  14  15
ENDBRANCH  12  14
ENDBRANCH   7   8
ENDBRANCH   1   7
BRANCH   3  19
HETATM   19  C   UNL     1      44.346 -20.245   2.619  1.00  0.00     0.095 A 
HETATM   20  C   UNL     1      45.156 -20.507   3.871  1.00  0.00     0.043 A 
HETATM   21  C   UNL     1      44.346 -21.613   3.235  1.00  0.00     0.037 A 
BRANCH  20  22
HETATM   22  C   UNL     1      44.760 -19.974   5.228  1.00  0.00    -0.052 A 
HETATM   23  C   UNL     1      45.097 -18.668   5.623  1.00  0.00     0.007 A 
HETATM   24  C   UNL     1      44.703 -18.152   6.860  1.00  0.00     0.001 A 
HETATM   25  C   UNL     1      43.955 -18.937   7.734  1.00  0.00     0.000 A 
HETATM   26  C   UNL     1      43.596 -20.229   7.363  1.00  0.00     0.001 A 
HETATM   27  C   UNL     1      43.988 -20.735   6.121  1.00  0.00     0.007 A 
ENDBRANCH  20  22
ENDBRANCH   3  19
TORSDOF 6
ENDMDL
MODEL 4
REMARK VINA RESULT:      -7.9      1.649      2.781
REMARK  6 active torsions:
REMARK  status: ('A' for Active; 'I' for Inactive)
REMARK    1  A    between atoms: C_2  and  O_3 
REMARK    2  A    between atoms: O_3  and  C_4 
REMARK    3  A    between atoms: C_8  and  C_9 
REMARK    4  A    between atoms: C_9  and  N_10 
REMARK       I    between atoms: N_10  and  C_11 
REMARK       I    between atoms: C_11  and  N_12 
REMARK    5  A    between atoms: N_12  and  C_13 
REMARK    6  A    between atoms: C_14  and  C_15 
ROOT
HETATM    1  N   UNL     1      44.010 -14.641   7.660  1.00  0.00    -0.339 N 
HETATM    2  C   UNL     1      44.775 -13.526   7.891  1.00  0.00     0.316 C 
HETATM    3  N   UNL     1      44.212 -12.715   8.851  1.00  0.00    -0.338 N 
HETATM    4  O   UNL     1      45.826 -13.283   7.313  1.00  0.00    -0.247 OA
HETATM    5  H   UNL     1      43.433 -14.953   8.427  1.00  0.00     0.164 HD
HETATM    6  H   UNL     1      43.201 -12.742   8.886  1.00  0.00     0.164 HD
ENDROOT
BRANCH   1   7
HETATM    7  C   UNL     1      44.406 -15.633   6.686  1.00  0.00     0.163 C 
BRANCH   7   8
HETATM    8  C   UNL     1      43.244 -16.159   5.888  1.00  0.00    -0.035 A 
HETATM    9  C   UNL     1      43.170 -17.507   5.522  1.00  0.00     0.028 A 
HETATM   10  C   UNL     1      42.099 -17.931   4.754  1.00  0.00     0.120 A 
HETATM   11  N   UNL     1      41.115 -17.116   4.318  1.00  0.00    -0.237 NA
HETATM   12  C   UNL     1      41.207 -15.821   4.663  1.00  0.00     0.165 A 
HETATM   13  C   UNL     1      42.224 -15.306   5.455  1.00  0.00     0.066 A 
BRANCH  12  14
HETATM   14  O   UNL     1      40.241 -14.924   4.264  1.00  0.00    -0.324 OA
BRANCH  14  15
HETATM   15  C   UNL     1      40.241 -14.451   2.904  1.00  0.00     0.058 C 
HETATM   16  C   UNL     1      39.213 -15.177   2.025  1.00  0.00     0.045 C 
HETATM   17  C   UNL     1      41.642 -14.445   2.272  1.00  0.00     0.045 C 
HETATM   18  C   UNL     1      39.786 -12.982   3.029  1.00  0.00     0.045 C 
ENDBRANCH  14  15
ENDBRANCH  12  14
ENDBRANCH   7   8
ENDBRANCH   1   7
BRANCH   3  19
HETATM   19  C   UNL     1      44.839 -11.480   9.229  1.00  0.00     0.095 A 
HETATM   20  C   UNL     1      44.232 -10.503  10.214  1.00  0.00     0.043 A 
HETATM   21  C   UNL     1      45.441 -11.326  10.595  1.00  0.00     0.037 A 
BRANCH  20  22
HETATM   22  C   UNL     1      42.910 -10.751  10.903  1.00  0.00    -0.052 A 
HETATM   23  C   UNL     1      41.696 -10.663  10.200  1.00  0.00     0.007 A 
HETATM   24  C   UNL     1      40.472 -10.927  10.818  1.00  0.00     0.001 A 
HETATM   25  C   UNL     1      40.435 -11.291  12.162  1.00  0.00     0.000 A 
HETATM   26  C   UNL     1      41.623 -11.398  12.878  1.00  0.00     0.001 A 
HETATM   27  C   UNL     1      42.845 -11.139  12.251  1.00  0.00     0.007 A 
ENDBRANCH  20  22
ENDBRANCH   3  19
TORSDOF 6
ENDMDL
MODEL 5
REMARK VINA RESULT:      -7.8      5.148     10.069
REMARK  6 active torsions:
REMARK  status: ('A' for Active; 'I' for Inactive)
REMARK    1  A    between atoms: C_2  and  O_3 
REMARK    2  A    between atoms: O_3  and  C_4 
REMARK    3  A    between atoms: C_8  and  C_9 
REMARK    4  A    between atoms: C_9  and  N_10 
REMARK       I    between atoms: N_10  and  C_11 
REMARK       I    between atoms: C_11  and  N_12 
REMARK    5  A    between atoms: N_12  and  C_13 
REMARK    6  A    between atoms: C_14  and  C_15 
ROOT
HETATM    1  N   UNL     1      41.601 -16.970   1.000  1.00  0.00    -0.339 N 
HETATM    2  C   UNL     1      41.270 -15.642   0.908  1.00  0.00     0.316 C 
HETATM    3  N   UNL     1      39.905 -15.460   0.907  1.00  0.00    -0.338 N 
HETATM    4  O   UNL     1      42.087 -14.734   0.836  1.00  0.00    -0.247 OA
HETATM    5  H   UNL     1      40.929 -17.567   1.457  1.00  0.00     0.164 HD
HETATM    6  H   UNL     1      39.378 -16.219   0.494  1.00  0.00     0.164 HD
ENDROOT
BRANCH   1   7
HETATM    7  C   UNL     1      42.982 -17.398   1.015  1.00  0.00     0.163 C 
BRANCH   7   8
HETATM    8  C   UNL     1      43.341 -18.157   2.264  1.00  0.00    -0.035 A 
HETATM    9  C   UNL     1      44.003 -19.387   2.197  1.00  0.00     0.028 A 
HETATM   10  C   UNL     1      44.274 -20.063   3.375  1.00  0.00     0.120 A 
HETATM   11  N   UNL     1      43.925 -19.614   4.599  1.00  0.00    -0.237 NA
HETATM   12  C   UNL     1      43.276 -18.438   4.648  1.00  0.00     0.165 A 
HETATM   13  C   UNL     1      42.987 -17.672   3.527  1.00  0.00     0.066 A 
BRANCH  12  14
HETATM   14  O   UNL     1      42.891 -17.905   5.858  1.00  0.00    -0.324 OA
BRANCH  14  15
HETATM   15  C   UNL     1      43.864 -17.213   6.662  1.00  0.00     0.058 C 
HETATM   16  C   UNL     1      43.909 -15.706   6.372  1.00  0.00     0.045 C 
HETATM   17  C   UNL     1      45.258 -17.857   6.600  1.00  0.00     0.045 C 
HETATM   18  C   UNL     1      43.339 -17.390   8.102  1.00  0.00     0.045 C 
ENDBRANCH  14  15
ENDBRANCH  12  14
ENDBRANCH   7   8
ENDBRANCH   1   7
BRANCH   3  19
HETATM   19  C   UNL     1      39.339 -14.145   0.794  1.00  0.00     0.095 A 
HETATM   20  C   UNL     1      38.852 -13.555  -0.513  1.00  0.00     0.043 A 
HETATM   21  C   UNL     1      37.868 -13.974   0.556  1.00  0.00     0.037 A 
BRANCH  20  22
HETATM   22  C   UNL     1      38.903 -14.310  -1.821  1.00  0.00    -0.052 A 
HETATM   23  C   UNL     1      40.119 -14.794  -2.333  1.00  0.00     0.007 A 
HETATM   24  C   UNL     1      40.172 -15.526  -3.522  1.00  0.00     0.001 A 
HETATM   25  C   UNL     1      39.002 -15.793  -4.227  1.00  0.00     0.000 A 
HETATM   26  C   UNL     1      37.783 -15.336  -3.736  1.00  0.00     0.001 A 
HETATM   27  C   UNL     1      37.736 -14.611  -2.542  1.00  0.00     0.007 A 
ENDBRANCH  20  22
ENDBRANCH   3  19
TORSDOF 6
ENDMDL
MODEL 6
REMARK VINA RESULT:      -7.7      2.640      3.647
REMARK  6 active torsions:
REMARK  status: ('A' for Active; 'I' for Inactive)
REMARK    1  A    between atoms: C_2  and  O_3 
REMARK    2  A    between atoms: O_3  and  C_4 
REMARK    3  A    between atoms: C_8  and  C_9 
REMARK    4  A    between atoms: C_9  and  N_10 
REMARK       I    between atoms: N_10  and  C_11 
REMARK       I    between atoms: C_11  and  N_12 
REMARK    5  A    between atoms: N_12  and  C_13 
REMARK    6  A    between atoms: C_14  and  C_15 
ROOT
HETATM    1  N   UNL     1      39.959 -13.639   6.631  1.00  0.00    -0.339 N 
HETATM    2  C   UNL     1      39.451 -12.396   6.914  1.00  0.00     0.316 C 
HETATM    3  N   UNL     1      39.716 -12.023   8.213  1.00  0.00    -0.338 N 
HETATM    4  O   UNL     1      38.837 -11.706   6.110  1.00  0.00    -0.247 OA
HETATM    5  H   UNL     1      40.760 -13.926   7.172  1.00  0.00     0.164 HD
HETATM    6  H   UNL     1      39.768 -12.791   8.870  1.00  0.00     0.164 HD
ENDROOT
BRANCH   1   7
HETATM    7  C   UNL     1      39.796 -14.235   5.325  1.00  0.00     0.163 C 
BRANCH   7   8
HETATM    8  C   UNL     1      41.103 -14.413   4.601  1.00  0.00    -0.035 A 
HETATM    9  C   UNL     1      41.771 -13.322   4.037  1.00  0.00     0.028 A 
HETATM   10  C   UNL     1      42.951 -13.546   3.347  1.00  0.00     0.120 A 
HETATM   11  N   UNL     1      43.498 -14.766   3.168  1.00  0.00    -0.237 NA
HETATM   12  C   UNL     1      42.838 -15.808   3.701  1.00  0.00     0.165 A 
HETATM   13  C   UNL     1      41.667 -15.683   4.436  1.00  0.00     0.066 A 
BRANCH  12  14
HETATM   14  O   UNL     1      43.332 -17.087   3.570  1.00  0.00    -0.324 OA
BRANCH  14  15
HETATM   15  C   UNL     1      43.158 -17.783   2.322  1.00  0.00     0.058 C 
HETATM   16  C   UNL     1      44.247 -17.440   1.296  1.00  0.00     0.045 C 
HETATM   17  C   UNL     1      41.744 -17.623   1.740  1.00  0.00     0.045 C 
HETATM   18  C   UNL     1      43.333 -19.266   2.704  1.00  0.00     0.045 C 
ENDBRANCH  14  15
ENDBRANCH  12  14
ENDBRANCH   7   8
ENDBRANCH   1   7
BRANCH   3  19
HETATM   19  C   UNL     1      39.252 -10.765   8.726  1.00  0.00     0.095 A 
HETATM   20  C   UNL     1      39.993  -9.968   9.778  1.00  0.00     0.043 A 
HETATM   21  C   UNL     1      39.947  -9.491   8.345  1.00  0.00     0.037 A 
BRANCH  20  22
HETATM   22  C   UNL     1      41.305 -10.422  10.376  1.00  0.00    -0.052 A 
HETATM   23  C   UNL     1      42.522 -10.203   9.709  1.00  0.00     0.007 A 
HETATM   24  C   UNL     1      43.743 -10.585  10.270  1.00  0.00     0.001 A 
HETATM   25  C   UNL     1      43.773 -11.195  11.521  1.00  0.00     0.000 A 
HETATM   26  C   UNL     1      42.584 -11.413  12.209  1.00  0.00     0.001 A 
HETATM   27  C   UNL     1      41.366 -11.022  11.645  1.00  0.00     0.007 A 
ENDBRANCH  20  22
ENDBRANCH   3  19
TORSDOF 6
ENDMDL
MODEL 7
REMARK VINA RESULT:      -7.6      6.369      8.550
REMARK  6 active torsions:
REMARK  status: ('A' for Active; 'I' for Inactive)
REMARK    1  A    between atoms: C_2  and  O_3 
REMARK    2  A    between atoms: O_3  and  C_4 
REMARK    3  A    between atoms: C_8  and  C_9 
REMARK    4  A    between atoms: C_9  and  N_10 
REMARK       I    between atoms: N_10  and  C_11 
REMARK       I    between atoms: C_11  and  N_12 
REMARK    5  A    between atoms: N_12  and  C_13 
REMARK    6  A    between atoms: C_14  and  C_15 
ROOT
HETATM    1  N   UNL     1      41.451 -17.243   2.957  1.00  0.00    -0.339 N 
HETATM    2  C   UNL     1      42.748 -17.647   2.764  1.00  0.00     0.316 C 
HETATM    3  N   UNL     1      42.830 -19.008   2.563  1.00  0.00    -0.338 N 
HETATM    4  O   UNL     1      43.711 -16.892   2.772  1.00  0.00    -0.247 OA
HETATM    5  H   UNL     1      40.737 -17.817   2.535  1.00  0.00     0.164 HD
HETATM    6  H   UNL     1      42.118 -19.548   3.037  1.00  0.00     0.164 HD
ENDROOT
BRANCH   1   7
HETATM    7  C   UNL     1      41.127 -15.854   3.192  1.00  0.00     0.163 C 
BRANCH   7   8
HETATM    8  C   UNL     1      40.461 -15.205   2.009  1.00  0.00    -0.035 A 
HETATM    9  C   UNL     1      39.093 -14.916   2.019  1.00  0.00     0.028 A 
HETATM   10  C   UNL     1      38.522 -14.354   0.889  1.00  0.00     0.120 A 
HETATM   11  N   UNL     1      39.205 -14.077  -0.241  1.00  0.00    -0.237 NA
HETATM   12  C   UNL     1      40.515 -14.374  -0.243  1.00  0.00     0.165 A 
HETATM   13  C   UNL     1      41.185 -14.909   0.849  1.00  0.00     0.066 A 
BRANCH  12  14
HETATM   14  O   UNL     1      41.287 -14.117  -1.355  1.00  0.00    -0.324 OA
BRANCH  14  15
HETATM   15  C   UNL     1      41.620 -12.754  -1.678  1.00  0.00     0.058 C 
HETATM   16  C   UNL     1      42.082 -11.951  -0.454  1.00  0.00     0.045 C 
HETATM   17  C   UNL     1      40.506 -12.035  -2.456  1.00  0.00     0.045 C 
HETATM   18  C   UNL     1      42.829 -12.890  -2.625  1.00  0.00     0.045 C 
ENDBRANCH  14  15
ENDBRANCH  12  14
ENDBRANCH   7   8
ENDBRANCH   1   7
BRANCH   3  19
HETATM   19  C   UNL     1      44.100 -19.646   2.364  1.00  0.00     0.095 A 
HETATM   20  C   UNL     1      44.959 -20.166   3.497  1.00  0.00     0.043 A 
HETATM   21  C   UNL     1      44.243 -21.125   2.573  1.00  0.00     0.037 A 
BRANCH  20  22
HETATM   22  C   UNL     1      44.546 -20.073   4.947  1.00  0.00    -0.052 A 
HETATM   23  C   UNL     1      44.131 -21.211   5.659  1.00  0.00     0.007 A 
HETATM   24  C   UNL     1      43.783 -21.142   7.011  1.00  0.00     0.001 A 
HETATM   25  C   UNL     1      43.847 -19.925   7.684  1.00  0.00     0.000 A 
HETATM   26  C   UNL     1      44.267 -18.784   7.007  1.00  0.00     0.001 A 
HETATM   27  C   UNL     1      44.620 -18.862   5.656  1.00  0.00     0.007 A 
ENDBRANCH  20  22
ENDBRANCH   3  19
TORSDOF 6
ENDMDL
MODEL 8
REMARK VINA RESULT:      -7.6      2.405      3.487
REMARK  6 active torsions:
REMARK  status: ('A' for Active; 'I' for Inactive)
REMARK    1  A    between atoms: C_2  and  O_3 
REMARK    2  A    between atoms: O_3  and  C_4 
REMARK    3  A    between atoms: C_8  and  C_9 
REMARK    4  A    between atoms: C_9  and  N_10 
REMARK       I    between atoms: N_10  and  C_11 
REMARK       I    between atoms: C_11  and  N_12 
REMARK    5  A    between atoms: N_12  and  C_13 
REMARK    6  A    between atoms: C_14  and  C_15 
ROOT
HETATM    1  N   UNL     1      40.958 -12.762   6.525  1.00  0.00    -0.339 N 
HETATM    2  C   UNL     1      39.953 -11.942   6.972  1.00  0.00     0.316 C 
HETATM    3  N   UNL     1      40.179 -11.522   8.265  1.00  0.00    -0.338 N 
HETATM    4  O   UNL     1      38.977 -11.625   6.305  1.00  0.00    -0.247 OA
HETATM    5  H   UNL     1      41.863 -12.629   6.949  1.00  0.00     0.164 HD
HETATM    6  H   UNL     1      40.689 -12.181   8.839  1.00  0.00     0.164 HD
ENDROOT
BRANCH   1   7
HETATM    7  C   UNL     1      40.928 -13.326   5.194  1.00  0.00     0.163 C 
BRANCH   7   8
HETATM    8  C   UNL     1      41.239 -14.798   5.181  1.00  0.00    -0.035 A 
HETATM    9  C   UNL     1      40.573 -15.685   6.031  1.00  0.00     0.028 A 
HETATM   10  C   UNL     1      40.925 -17.024   6.006  1.00  0.00     0.120 A 
HETATM   11  N   UNL     1      41.892 -17.534   5.215  1.00  0.00    -0.237 NA
HETATM   12  C   UNL     1      42.536 -16.668   4.414  1.00  0.00     0.165 A 
HETATM   13  C   UNL     1      42.234 -15.315   4.344  1.00  0.00     0.066 A 
BRANCH  12  14
HETATM   14  O   UNL     1      43.531 -17.107   3.570  1.00  0.00    -0.324 OA
BRANCH  14  15
HETATM   15  C   UNL     1      43.177 -17.884   2.411  1.00  0.00     0.058 C 
HETATM   16  C   UNL     1      41.763 -17.574   1.898  1.00  0.00     0.045 C 
HETATM   17  C   UNL     1      43.403 -19.392   2.609  1.00  0.00     0.045 C 
HETATM   18  C   UNL     1      44.173 -17.407   1.334  1.00  0.00     0.045 C 
ENDBRANCH  14  15
ENDBRANCH  12  14
ENDBRANCH   7   8
ENDBRANCH   1   7
BRANCH   3  19
HETATM   19  C   UNL     1      39.236 -10.674   8.937  1.00  0.00     0.095 A 
HETATM   20  C   UNL     1      39.509 -10.019  10.275  1.00  0.00     0.043 A 
HETATM   21  C   UNL     1      39.470  -9.194   9.010  1.00  0.00     0.037 A 
BRANCH  20  22
HETATM   22  C   UNL     1      40.813 -10.190  11.019  1.00  0.00    -0.052 A 
HETATM   23  C   UNL     1      41.918  -9.366  10.748  1.00  0.00     0.007 A 
HETATM   24  C   UNL     1      43.116  -9.490  11.457  1.00  0.00     0.001 A 
HETATM   25  C   UNL     1      43.232 -10.447  12.461  1.00  0.00     0.000 A 
HETATM   26  C   UNL     1      42.150 -11.268  12.760  1.00  0.00     0.001 A 
HETATM   27  C   UNL     1      40.952 -11.133  12.052  1.00  0.00     0.007 A 
ENDBRANCH  20  22
ENDBRANCH   3  19
TORSDOF 6
ENDMDL
MODEL 9
REMARK VINA RESULT:      -7.6      2.709      4.333
REMARK  6 active torsions:
REMARK  status: ('A' for Active; 'I' for Inactive)
REMARK    1  A    between atoms: C_2  and  O_3 
REMARK    2  A    between atoms: O_3  and  C_4 
REMARK    3  A    between atoms: C_8  and  C_9 
REMARK    4  A    between atoms: C_9  and  N_10 
REMARK       I    between atoms: N_10  and  C_11 
REMARK       I    between atoms: C_11  and  N_12 
REMARK    5  A    between atoms: N_12  and  C_13 
REMARK    6  A    between atoms: C_14  and  C_15 
ROOT
HETATM    1  N   UNL     1      39.463 -12.890   7.231  1.00  0.00    -0.339 N 
HETATM    2  C   UNL     1      39.434 -11.608   7.721  1.00  0.00     0.316 C 
HETATM    3  N   UNL     1      39.760 -11.569   9.058  1.00  0.00    -0.338 N 
HETATM    4  O   UNL     1      39.152 -10.623   7.051  1.00  0.00    -0.247 OA
HETATM    5  H   UNL     1      40.078 -13.534   7.704  1.00  0.00     0.164 HD
HETATM    6  H   UNL     1      39.498 -12.395   9.581  1.00  0.00     0.164 HD
ENDROOT
BRANCH   1   7
HETATM    7  C   UNL     1      39.150 -13.170   5.848  1.00  0.00     0.163 C 
BRANCH   7   8
HETATM    8  C   UNL     1      39.981 -14.289   5.281  1.00  0.00    -0.035 A 
HETATM    9  C   UNL     1      40.107 -14.467   3.900  1.00  0.00     0.028 A 
HETATM   10  C   UNL     1      40.852 -15.535   3.430  1.00  0.00     0.120 A 
HETATM   11  N   UNL     1      41.460 -16.438   4.228  1.00  0.00    -0.237 NA
HETATM   12  C   UNL     1      41.318 -16.265   5.553  1.00  0.00     0.165 A 
HETATM   13  C   UNL     1      40.619 -15.208   6.120  1.00  0.00     0.066 A 
BRANCH  12  14
HETATM   14  O   UNL     1      41.913 -17.137   6.437  1.00  0.00    -0.324 OA
BRANCH  14  15
HETATM   15  C   UNL     1      43.312 -16.984   6.740  1.00  0.00     0.058 C 
HETATM   16  C   UNL     1      43.801 -15.538   6.573  1.00  0.00     0.045 C 
HETATM   17  C   UNL     1      44.200 -17.987   5.985  1.00  0.00     0.045 C 
HETATM   18  C   UNL     1      43.400 -17.331   8.240  1.00  0.00     0.045 C 
ENDBRANCH  14  15
ENDBRANCH  12  14
ENDBRANCH   7   8
ENDBRANCH   1   7
BRANCH   3  19
HETATM   19  C   UNL     1      39.767 -10.326   9.777  1.00  0.00     0.095 A 
HETATM   20  C   UNL     1      40.950  -9.837  10.586  1.00  0.00     0.043 A 
HETATM   21  C   UNL     1      40.585  -9.171   9.279  1.00  0.00     0.037 A 
BRANCH  20  22
HETATM   22  C   UNL     1      42.242 -10.612  10.697  1.00  0.00    -0.052 A 
HETATM   23  C   UNL     1      43.197 -10.585   9.666  1.00  0.00     0.007 A 
HETATM   24  C   UNL     1      44.411 -11.268   9.775  1.00  0.00     0.001 A 
HETATM   25  C   UNL     1      44.700 -11.993  10.928  1.00  0.00     0.000 A 
HETATM   26  C   UNL     1      43.779 -12.025  11.970  1.00  0.00     0.001 A 
HETATM   27  C   UNL     1      42.569 -11.335  11.857  1.00  0.00     0.007 A 
ENDBRANCH  20  22
ENDBRANCH   3  19
TORSDOF 6
ENDMDL
MODEL 10
REMARK VINA RESULT:      -7.3      5.091      7.974
REMARK  6 active torsions:
REMARK  status: ('A' for Active; 'I' for Inactive)
REMARK    1  A    between atoms: C_2  and  O_3 
REMARK    2  A    between atoms: O_3  and  C_4 
REMARK    3  A    between atoms: C_8  and  C_9 
REMARK    4  A    between atoms: C_9  and  N_10 
REMARK       I    between atoms: N_10  and  C_11 
REMARK       I    between atoms: C_11  and  N_12 
REMARK    5  A    between atoms: N_12  and  C_13 
REMARK    6  A    between atoms: C_14  and  C_15 
ROOT
HETATM    1  N   UNL     1      40.613 -16.156   3.977  1.00  0.00    -0.339 N 
HETATM    2  C   UNL     1      41.210 -15.879   5.181  1.00  0.00     0.316 C 
HETATM    3  N   UNL     1      41.660 -17.025   5.799  1.00  0.00    -0.338 N 
HETATM    4  O   UNL     1      41.327 -14.753   5.647  1.00  0.00    -0.247 OA
HETATM    5  H   UNL     1      40.923 -16.992   3.507  1.00  0.00     0.164 HD
HETATM    6  H   UNL     1      41.115 -17.854   5.599  1.00  0.00     0.164 HD
ENDROOT
BRANCH   1   7
HETATM    7  C   UNL     1      40.062 -15.102   3.155  1.00  0.00     0.163 C 
BRANCH   7   8
HETATM    8  C   UNL     1      40.401 -15.265   1.698  1.00  0.00    -0.035 A 
HETATM    9  C   UNL     1      41.184 -16.335   1.254  1.00  0.00     0.028 A 
HETATM   10  C   UNL     1      41.500 -16.416  -0.092  1.00  0.00     0.120 A 
HETATM   11  N   UNL     1      41.109 -15.512  -1.013  1.00  0.00    -0.237 NA
HETATM   12  C   UNL     1      40.370 -14.480  -0.571  1.00  0.00     0.165 A 
HETATM   13  C   UNL     1      39.976 -14.327   0.751  1.00  0.00     0.066 A 
BRANCH  12  14
HETATM   14  O   UNL     1      39.924 -13.516  -1.447  1.00  0.00    -0.324 OA
BRANCH  14  15
HETATM   15  C   UNL     1      40.825 -12.471  -1.860  1.00  0.00     0.058 C 
HETATM   16  C   UNL     1      42.174 -12.528  -1.128  1.00  0.00     0.045 C 
HETATM   17  C   UNL     1      40.190 -11.073  -1.794  1.00  0.00     0.045 C 
HETATM   18  C   UNL     1      41.092 -12.786  -3.346  1.00  0.00     0.045 C 
ENDBRANCH  14  15
ENDBRANCH  12  14
ENDBRANCH   7   8
ENDBRANCH   1   7
BRANCH   3  19
HETATM   19  C   UNL     1      42.298 -16.965   7.084  1.00  0.00     0.095 A 
HETATM   20  C   UNL     1      43.341 -17.961   7.545  1.00  0.00     0.043 A 
HETATM   21  C   UNL     1      43.733 -16.544   7.196  1.00  0.00     0.037 A 
BRANCH  20  22
HETATM   22  C   UNL     1      43.818 -19.105   6.682  1.00  0.00    -0.052 A 
HETATM   23  C   UNL     1      44.536 -18.871   5.496  1.00  0.00     0.007 A 
HETATM   24  C   UNL     1      45.015 -19.923   4.710  1.00  0.00     0.001 A 
HETATM   25  C   UNL     1      44.787 -21.240   5.099  1.00  0.00     0.000 A 
HETATM   26  C   UNL     1      44.092 -21.501   6.275  1.00  0.00     0.001 A 
HETATM   27  C   UNL     1      43.622 -20.444   7.060  1.00  0.00     0.007 A 
ENDBRANCH  20  22
ENDBRANCH   3  19
TORSDOF 6
ENDMDL
