MODEL 1
REMARK VINA RESULT:      -9.1      0.000      0.000
REMARK  6 active torsions:
REMARK  status: ('A' for Active; 'I' for Inactive)
REMARK    1  A    between atoms: C_5  and  C_6 
REMARK    2  A    between atoms: C_12  and  C_13 
REMARK       I    between atoms: C_13  and  N_14 
REMARK    3  A    between atoms: N_14  and  C_15 
REMARK    4  A    between atoms: C_18  and  C_19 
REMARK    5  A    between atoms: C_19  and  O_20 
REMARK    6  A    between atoms: C_25  and  C_26 
ROOT
HETATM    1  C   UNL     1      40.694 -16.243   3.160  1.00  0.00     0.118 C 
HETATM    2  N   UNL     1      40.301 -15.664   1.862  1.00  0.00    -0.365 N 
HETATM    3  C   UNL     1      40.982 -14.592   1.362  1.00  0.00     0.138 A 
HETATM    4  N   UNL     1      41.867 -13.880   2.138  1.00  0.00    -0.240 N 
HETATM    5  N   UNL     1      42.343 -12.778   1.541  1.00  0.00    -0.181 NA
HETATM    6  C   UNL     1      41.833 -12.854   0.308  1.00  0.00     0.160 A 
HETATM    7  C   UNL     1      40.975 -13.966   0.128  1.00  0.00     0.096 A 
HETATM    8  C   UNL     1      42.135 -14.139   3.539  1.00  0.00     0.221 C 
HETATM    9  C   UNL     1      41.083 -15.103   4.118  1.00  0.00     0.066 C 
HETATM   10  H   UNL     1      39.287 -15.674   1.732  1.00  0.00     0.161 HD
ENDROOT
BRANCH   7  11
HETATM   11  C   UNL     1      40.269 -14.311  -1.099  1.00  0.00     0.261 C 
HETATM   12  N   UNL     1      39.013 -13.744  -1.197  1.00  0.00    -0.323 N 
HETATM   13  H   UNL     1      38.712 -13.216  -0.386  1.00  0.00     0.169 HD
HETATM   14  O   UNL     1      40.800 -15.033  -1.935  1.00  0.00    -0.267 OA
BRANCH  12  15
HETATM   15  C   UNL     1      38.130 -13.778  -2.293  1.00  0.00     0.035 A 
HETATM   16  C   UNL     1      37.823 -14.932  -3.012  1.00  0.00     0.030 A 
HETATM   17  C   UNL     1      36.968 -14.877  -4.122  1.00  0.00     0.012 A 
HETATM   18  C   UNL     1      36.397 -13.668  -4.542  1.00  0.00    -0.030 A 
HETATM   19  C   UNL     1      36.712 -12.514  -3.808  1.00  0.00     0.012 A 
HETATM   20  C   UNL     1      37.553 -12.570  -2.690  1.00  0.00     0.030 A 
BRANCH  18  21
HETATM   21  C   UNL     1      35.538 -13.562  -5.790  1.00  0.00     0.147 C 
HETATM   22  C   UNL     1      35.357 -12.154  -6.355  1.00  0.00     0.044 C 
BRANCH  21  23
HETATM   23  O   UNL     1      36.104 -14.374  -6.823  1.00  0.00    -0.391 OA
HETATM   24  H   UNL     1      36.893 -14.803  -6.450  1.00  0.00     0.210 HD
ENDBRANCH  21  23
ENDBRANCH  18  21
ENDBRANCH  12  15
ENDBRANCH   7  11
BRANCH   1  25
HETATM   25  C   UNL     1      41.724 -17.355   3.018  1.00  0.00    -0.035 A 
HETATM   26  C   UNL     1      42.146 -17.839   1.768  1.00  0.00     0.010 A 
HETATM   27  C   UNL     1      43.114 -18.842   1.667  1.00  0.00     0.007 A 
HETATM   28  C   UNL     1      43.685 -19.394   2.815  1.00  0.00    -0.062 A 
HETATM   29  C   UNL     1      44.727 -20.469   2.710  1.00  0.00     0.048 C 
HETATM   30  C   UNL     1      43.236 -18.962   4.066  1.00  0.00     0.007 A 
HETATM   31  C   UNL     1      42.265 -17.961   4.165  1.00  0.00     0.010 A 
ENDBRANCH   1  25
BRANCH   8  32
HETATM   32  C   UNL     1      43.568 -14.589   3.724  1.00  0.00     0.409 C 
HETATM   33  F   UNL     1      44.040 -15.351   2.722  1.00  0.00    -0.169 F 
HETATM   34  F   UNL     1      44.412 -13.541   3.869  1.00  0.00    -0.169 F 
HETATM   35  F   UNL     1      43.679 -15.317   4.868  1.00  0.00    -0.169 F 
ENDBRANCH   8  32
TORSDOF 6
ENDMDL
MODEL 2
REMARK VINA RESULT:      -8.7      3.782      8.824
REMARK  6 active torsions:
REMARK  status: ('A' for Active; 'I' for Inactive)
REMARK    1  A    between atoms: C_5  and  C_6 
REMARK    2  A    between atoms: C_12  and  C_13 
REMARK       I    between atoms: C_13  and  N_14 
REMARK    3  A    between atoms: N_14  and  C_15 
REMARK    4  A    between atoms: C_18  and  C_19 
REMARK    5  A    between atoms: C_19  and  O_20 
REMARK    6  A    between atoms: C_25  and  C_26 
ROOT
HETATM    1  C   UNL     1      41.383 -12.968  -0.543  1.00  0.00     0.118 C 
HETATM    2  N   UNL     1      41.975 -13.779   0.537  1.00  0.00    -0.365 N 
HETATM    3  C   UNL     1      41.224 -14.114   1.626  1.00  0.00     0.138 A 
HETATM    4  N   UNL     1      40.007 -13.520   1.867  1.00  0.00    -0.240 N 
HETATM    5  N   UNL     1      39.465 -13.858   3.046  1.00  0.00    -0.181 NA
HETATM    6  C   UNL     1      40.310 -14.781   3.517  1.00  0.00     0.160 A 
HETATM    7  C   UNL     1      41.430 -14.991   2.676  1.00  0.00     0.096 A 
HETATM    8  C   UNL     1      39.421 -12.471   1.055  1.00  0.00     0.221 C 
HETATM    9  C   UNL     1      40.467 -11.899   0.081  1.00  0.00     0.066 C 
HETATM   10  H   UNL     1      42.954 -13.534   0.704  1.00  0.00     0.161 HD
ENDROOT
BRANCH   7  11
HETATM   11  C   UNL     1      42.520 -15.926   2.922  1.00  0.00     0.261 C 
HETATM   12  N   UNL     1      42.103 -17.229   3.116  1.00  0.00    -0.323 N 
HETATM   13  H   UNL     1      41.099 -17.365   3.127  1.00  0.00     0.169 HD
HETATM   14  O   UNL     1      43.680 -15.533   2.931  1.00  0.00    -0.267 OA
BRANCH  12  15
HETATM   15  C   UNL     1      42.899 -18.381   3.256  1.00  0.00     0.035 A 
HETATM   16  C   UNL     1      43.186 -19.262   2.215  1.00  0.00     0.030 A 
HETATM   17  C   UNL     1      43.950 -20.416   2.443  1.00  0.00     0.012 A 
HETATM   18  C   UNL     1      44.449 -20.718   3.717  1.00  0.00    -0.030 A 
HETATM   19  C   UNL     1      44.154 -19.822   4.757  1.00  0.00     0.012 A 
HETATM   20  C   UNL     1      43.405 -18.662   4.527  1.00  0.00     0.030 A 
BRANCH  18  21
HETATM   21  C   UNL     1      45.205 -22.002   4.014  1.00  0.00     0.147 C 
HETATM   22  C   UNL     1      45.124 -22.503   5.455  1.00  0.00     0.044 C 
BRANCH  21  23
HETATM   23  O   UNL     1      44.717 -23.044   3.164  1.00  0.00    -0.391 OA
HETATM   24  H   UNL     1      45.111 -22.905   2.286  1.00  0.00     0.210 HD
ENDBRANCH  21  23
ENDBRANCH  18  21
ENDBRANCH  12  15
ENDBRANCH   7  11
BRANCH   1  25
HETATM   25  C   UNL     1      40.744 -13.819  -1.631  1.00  0.00    -0.035 A 
HETATM   26  C   UNL     1      40.948 -15.206  -1.723  1.00  0.00     0.010 A 
HETATM   27  C   UNL     1      40.326 -15.967  -2.717  1.00  0.00     0.007 A 
HETATM   28  C   UNL     1      39.485 -15.361  -3.652  1.00  0.00    -0.062 A 
HETATM   29  C   UNL     1      38.813 -16.175  -4.718  1.00  0.00     0.048 C 
HETATM   30  C   UNL     1      39.316 -13.974  -3.607  1.00  0.00     0.007 A 
HETATM   31  C   UNL     1      39.942 -13.213  -2.615  1.00  0.00     0.010 A 
ENDBRANCH   1  25
BRANCH   8  32
HETATM   32  C   UNL     1      38.152 -12.965   0.395  1.00  0.00     0.409 C 
HETATM   33  F   UNL     1      37.838 -12.324  -0.744  1.00  0.00    -0.169 F 
HETATM   34  F   UNL     1      38.212 -14.288   0.112  1.00  0.00    -0.169 F 
HETATM   35  F   UNL     1      37.101 -12.813   1.245  1.00  0.00    -0.169 F 
ENDBRANCH   8  32
TORSDOF 6
ENDMDL
MODEL 3
REMARK VINA RESULT:      -8.5      1.481      1.836
REMARK  6 active torsions:
REMARK  status: ('A' for Active; 'I' for Inactive)
REMARK    1  A    between atoms: C_5  and  C_6 
REMARK    2  A    between atoms: C_12  and  C_13 
REMARK       I    between atoms: C_13  and  N_14 
REMARK    3  A    between atoms: N_14  and  C_15 
REMARK    4  A    between atoms: C_18  and  C_19 
REMARK    5  A    between atoms: C_19  and  O_20 
REMARK    6  A    between atoms: C_25  and  C_26 
ROOT
HETATM    1  C   UNL     1      40.753 -16.308   4.786  1.00  0.00     0.118 C 
HETATM    2  N   UNL     1      39.986 -15.554   3.777  1.00  0.00    -0.365 N 
HETATM    3  C   UNL     1      40.476 -14.376   3.292  1.00  0.00     0.138 A 
HETATM    4  N   UNL     1      41.543 -13.745   3.887  1.00  0.00    -0.240 N 
HETATM    5  N   UNL     1      41.809 -12.534   3.375  1.00  0.00    -0.181 NA
HETATM    6  C   UNL     1      40.957 -12.443   2.350  1.00  0.00     0.160 A 
HETATM    7  C   UNL     1      40.096 -13.562   2.239  1.00  0.00     0.096 A 
HETATM    8  C   UNL     1      42.218 -14.208   5.084  1.00  0.00     0.221 C 
HETATM    9  C   UNL     1      41.396 -15.314   5.770  1.00  0.00     0.066 C 
HETATM   10  H   UNL     1      38.980 -15.605   3.947  1.00  0.00     0.161 HD
ENDROOT
BRANCH   7  11
HETATM   11  C   UNL     1      39.062 -13.749   1.230  1.00  0.00     0.261 C 
HETATM   12  N   UNL     1      39.217 -12.944   0.118  1.00  0.00    -0.323 N 
HETATM   13  H   UNL     1      39.985 -12.284   0.166  1.00  0.00     0.169 HD
HETATM   14  O   UNL     1      38.170 -14.570   1.405  1.00  0.00    -0.267 OA
BRANCH  12  15
HETATM   15  C   UNL     1      38.471 -12.962  -1.075  1.00  0.00     0.035 A 
HETATM   16  C   UNL     1      37.584 -11.956  -1.455  1.00  0.00     0.030 A 
HETATM   17  C   UNL     1      36.840 -12.067  -2.639  1.00  0.00     0.012 A 
HETATM   18  C   UNL     1      36.965 -13.185  -3.475  1.00  0.00    -0.030 A 
HETATM   19  C   UNL     1      37.863 -14.190  -3.082  1.00  0.00     0.012 A 
HETATM   20  C   UNL     1      38.618 -14.073  -1.908  1.00  0.00     0.030 A 
BRANCH  18  21
HETATM   21  C   UNL     1      36.111 -13.375  -4.717  1.00  0.00     0.147 C 
HETATM   22  C   UNL     1      35.977 -12.154  -5.624  1.00  0.00     0.044 C 
BRANCH  21  23
HETATM   23  O   UNL     1      36.651 -14.442  -5.502  1.00  0.00    -0.391 OA
HETATM   24  H   UNL     1      37.619 -14.392  -5.426  1.00  0.00     0.210 HD
ENDBRANCH  21  23
ENDBRANCH  18  21
ENDBRANCH  12  15
ENDBRANCH   7  11
BRANCH   1  25
HETATM   25  C   UNL     1      41.706 -17.318   4.163  1.00  0.00    -0.035 A 
HETATM   26  C   UNL     1      41.831 -17.482   2.773  1.00  0.00     0.010 A 
HETATM   27  C   UNL     1      42.736 -18.398   2.228  1.00  0.00     0.007 A 
HETATM   28  C   UNL     1      43.539 -19.180   3.059  1.00  0.00    -0.062 A 
HETATM   29  C   UNL     1      44.514 -20.162   2.477  1.00  0.00     0.048 C 
HETATM   30  C   UNL     1      43.388 -19.068   4.444  1.00  0.00     0.007 A 
HETATM   31  C   UNL     1      42.480 -18.154   4.988  1.00  0.00     0.010 A 
ENDBRANCH   1  25
BRANCH   8  32
HETATM   32  C   UNL     1      43.646 -14.593   4.766  1.00  0.00     0.409 C 
HETATM   33  F   UNL     1      43.829 -15.040   3.511  1.00  0.00    -0.169 F 
HETATM   34  F   UNL     1      44.503 -13.562   4.958  1.00  0.00    -0.169 F 
HETATM   35  F   UNL     1      44.056 -15.580   5.607  1.00  0.00    -0.169 F 
ENDBRANCH   8  32
TORSDOF 6
ENDMDL
MODEL 4
REMARK VINA RESULT:      -8.4      5.473      9.460
REMARK  6 active torsions:
REMARK  status: ('A' for Active; 'I' for Inactive)
REMARK    1  A    between atoms: C_5  and  C_6 
REMARK    2  A    between atoms: C_12  and  C_13 
REMARK       I    between atoms: C_13  and  N_14 
REMARK    3  A    between atoms: N_14  and  C_15 
REMARK    4  A    between atoms: C_18  and  C_19 
REMARK    5  A    between atoms: C_19  and  O_20 
REMARK    6  A    between atoms: C_25  and  C_26 
ROOT
HETATM    1  C   UNL     1      43.674 -15.851   2.161  1.00  0.00     0.118 C 
HETATM    2  N   UNL     1      43.558 -14.870   3.256  1.00  0.00    -0.365 N 
HETATM    3  C   UNL     1      42.335 -14.589   3.791  1.00  0.00     0.138 A 
HETATM    4  N   UNL     1      41.174 -15.008   3.183  1.00  0.00    -0.240 N 
HETATM    5  N   UNL     1      40.061 -14.531   3.759  1.00  0.00    -0.181 NA
HETATM    6  C   UNL     1      40.525 -13.882   4.831  1.00  0.00     0.160 A 
HETATM    7  C   UNL     1      41.939 -13.882   4.913  1.00  0.00     0.096 A 
HETATM    8  C   UNL     1      41.109 -15.726   1.925  1.00  0.00     0.221 C 
HETATM    9  C   UNL     1      42.473 -15.683   1.213  1.00  0.00     0.066 C 
HETATM   10  H   UNL     1      44.205 -14.087   3.135  1.00  0.00     0.161 HD
ENDROOT
BRANCH   7  11
HETATM   11  C   UNL     1      42.735 -13.255   5.960  1.00  0.00     0.261 C 
HETATM   12  N   UNL     1      42.046 -12.305   6.689  1.00  0.00    -0.323 N 
HETATM   13  H   UNL     1      41.103 -12.116   6.371  1.00  0.00     0.169 HD
HETATM   14  O   UNL     1      43.900 -13.593   6.136  1.00  0.00    -0.267 OA
BRANCH  12  15
HETATM   15  C   UNL     1      42.480 -11.610   7.833  1.00  0.00     0.035 A 
HETATM   16  C   UNL     1      43.653 -11.902   8.526  1.00  0.00     0.030 A 
HETATM   17  C   UNL     1      43.995 -11.192   9.687  1.00  0.00     0.012 A 
HETATM   18  C   UNL     1      43.174 -10.170  10.183  1.00  0.00    -0.030 A 
HETATM   19  C   UNL     1      41.997  -9.884   9.475  1.00  0.00     0.012 A 
HETATM   20  C   UNL     1      41.662 -10.582   8.308  1.00  0.00     0.030 A 
BRANCH  18  21
HETATM   21  C   UNL     1      43.473  -9.444  11.483  1.00  0.00     0.147 C 
HETATM   22  C   UNL     1      42.418  -8.438  11.940  1.00  0.00     0.044 C 
BRANCH  21  23
HETATM   23  O   UNL     1      43.642 -10.402  12.532  1.00  0.00    -0.391 OA
HETATM   24  H   UNL     1      44.555 -10.732  12.474  1.00  0.00     0.210 HD
ENDBRANCH  21  23
ENDBRANCH  18  21
ENDBRANCH  12  15
ENDBRANCH   7  11
BRANCH   1  25
HETATM   25  C   UNL     1      43.912 -17.267   2.666  1.00  0.00    -0.035 A 
HETATM   26  C   UNL     1      44.019 -17.574   4.033  1.00  0.00     0.010 A 
HETATM   27  C   UNL     1      44.210 -18.888   4.470  1.00  0.00     0.007 A 
HETATM   28  C   UNL     1      44.305 -19.934   3.550  1.00  0.00    -0.062 A 
HETATM   29  C   UNL     1      44.508 -21.346   4.015  1.00  0.00     0.048 C 
HETATM   30  C   UNL     1      44.257 -19.637   2.185  1.00  0.00     0.007 A 
HETATM   31  C   UNL     1      44.069 -18.322   1.750  1.00  0.00     0.010 A 
ENDBRANCH   1  25
BRANCH   8  32
HETATM   32  C   UNL     1      40.558 -17.117   2.143  1.00  0.00     0.409 C 
HETATM   33  F   UNL     1      40.945 -18.014   1.219  1.00  0.00    -0.169 F 
HETATM   34  F   UNL     1      40.899 -17.612   3.356  1.00  0.00    -0.169 F 
HETATM   35  F   UNL     1      39.198 -17.083   2.124  1.00  0.00    -0.169 F 
ENDBRANCH   8  32
TORSDOF 6
ENDMDL
MODEL 5
REMARK VINA RESULT:      -8.3      3.421      8.997
REMARK  6 active torsions:
REMARK  status: ('A' for Active; 'I' for Inactive)
REMARK    1  A    between atoms: C_5  and  C_6 
REMARK    2  A    between atoms: C_12  and  C_13 
REMARK       I    between atoms: C_13  and  N_14 
REMARK    3  A    between atoms: N_14  and  C_15 
REMARK    4  A    between atoms: C_18  and  C_19 
REMARK    5  A    between atoms: C_19  and  O_20 
REMARK    6  A    between atoms: C_25  and  C_26 
ROOT
HETATM    1  C   UNL     1      40.310 -12.548  -1.271  1.00  0.00     0.118 C 
HETATM    2  N   UNL     1      40.950 -13.645  -0.521  1.00  0.00    -0.365 N 
HETATM    3  C   UNL     1      40.475 -13.994   0.710  1.00  0.00     0.138 A 
HETATM    4  N   UNL     1      39.574 -13.201   1.381  1.00  0.00    -0.240 N 
HETATM    5  N   UNL     1      39.317 -13.615   2.631  1.00  0.00    -0.181 NA
HETATM    6  C   UNL     1      39.989 -14.767   2.716  1.00  0.00     0.160 A 
HETATM    7  C   UNL     1      40.732 -15.066   1.548  1.00  0.00     0.096 A 
HETATM    8  C   UNL     1      39.077 -11.925   0.906  1.00  0.00     0.221 C 
HETATM    9  C   UNL     1      39.918 -11.432  -0.285  1.00  0.00     0.066 C 
HETATM   10  H   UNL     1      41.964 -13.651  -0.648  1.00  0.00     0.161 HD
ENDROOT
BRANCH   7  11
HETATM   11  C   UNL     1      41.565 -16.244   1.341  1.00  0.00     0.261 C 
HETATM   12  N   UNL     1      42.042 -16.799   2.512  1.00  0.00    -0.323 N 
HETATM   13  H   UNL     1      41.811 -16.291   3.358  1.00  0.00     0.169 HD
HETATM   14  O   UNL     1      41.774 -16.661   0.208  1.00  0.00    -0.267 OA
BRANCH  12  15
HETATM   15  C   UNL     1      42.765 -17.996   2.671  1.00  0.00     0.035 A 
HETATM   16  C   UNL     1      42.718 -19.062   1.773  1.00  0.00     0.030 A 
HETATM   17  C   UNL     1      43.432 -20.242   2.024  1.00  0.00     0.012 A 
HETATM   18  C   UNL     1      44.215 -20.387   3.178  1.00  0.00    -0.030 A 
HETATM   19  C   UNL     1      44.256 -19.307   4.073  1.00  0.00     0.012 A 
HETATM   20  C   UNL     1      43.555 -18.122   3.816  1.00  0.00     0.030 A 
BRANCH  18  21
HETATM   21  C   UNL     1      44.930 -21.683   3.520  1.00  0.00     0.147 C 
HETATM   22  C   UNL     1      44.635 -22.260   4.903  1.00  0.00     0.044 C 
BRANCH  21  23
HETATM   23  O   UNL     1      44.589 -22.680   2.552  1.00  0.00    -0.391 OA
HETATM   24  H   UNL     1      44.685 -23.545   2.987  1.00  0.00     0.210 HD
ENDBRANCH  21  23
ENDBRANCH  18  21
ENDBRANCH  12  15
ENDBRANCH   7  11
BRANCH   1  25
HETATM   25  C   UNL     1      39.192 -13.035  -2.182  1.00  0.00    -0.035 A 
HETATM   26  C   UNL     1      38.839 -14.391  -2.287  1.00  0.00     0.010 A 
HETATM   27  C   UNL     1      37.790 -14.807  -3.110  1.00  0.00     0.007 A 
HETATM   28  C   UNL     1      37.065 -13.878  -3.858  1.00  0.00    -0.062 A 
HETATM   29  C   UNL     1      35.935 -14.321  -4.741  1.00  0.00     0.048 C 
HETATM   30  C   UNL     1      37.439 -12.533  -3.807  1.00  0.00     0.007 A 
HETATM   31  C   UNL     1      38.492 -12.118  -2.985  1.00  0.00     0.010 A 
ENDBRANCH   1  25
BRANCH   8  32
HETATM   32  C   UNL     1      37.591 -12.008   0.634  1.00  0.00     0.409 C 
HETATM   33  F   UNL     1      37.171 -11.220  -0.371  1.00  0.00    -0.169 F 
HETATM   34  F   UNL     1      37.199 -13.272   0.351  1.00  0.00    -0.169 F 
HETATM   35  F   UNL     1      36.898 -11.643   1.747  1.00  0.00    -0.169 F 
ENDBRANCH   8  32
TORSDOF 6
ENDMDL
MODEL 6
REMARK VINA RESULT:      -8.3      3.881      8.915
REMARK  6 active torsions:
REMARK  status: ('A' for Active; 'I' for Inactive)
REMARK    1  A    between atoms: C_5  and  C_6 
REMARK    2  A    between atoms: C_12  and  C_13 
REMARK       I    between atoms: C_13  and  N_14 
REMARK    3  A    between atoms: N_14  and  C_15 
REMARK    4  A    between atoms: C_18  and  C_19 
REMARK    5  A    between atoms: C_19  and  O_20 
REMARK    6  A    between atoms: C_25  and  C_26 
ROOT
HETATM    1  C   UNL     1      38.025 -13.781   1.235  1.00  0.00     0.118 C 
HETATM    2  N   UNL     1      38.868 -14.978   1.406  1.00  0.00    -0.365 N 
HETATM    3  C   UNL     1      39.960 -15.161   0.608  1.00  0.00     0.138 A 
HETATM    4  N   UNL     1      40.165 -14.389  -0.513  1.00  0.00    -0.240 N 
HETATM    5  N   UNL     1      41.204 -14.788  -1.260  1.00  0.00    -0.181 NA
HETATM    6  C   UNL     1      41.744 -15.772  -0.533  1.00  0.00     0.160 A 
HETATM    7  C   UNL     1      41.016 -16.054   0.649  1.00  0.00     0.096 A 
HETATM    8  C   UNL     1      39.257 -13.365  -0.991  1.00  0.00     0.221 C 
HETATM    9  C   UNL     1      37.903 -13.467  -0.267  1.00  0.00     0.066 C 
HETATM   10  H   UNL     1      38.312 -15.806   1.631  1.00  0.00     0.161 HD
ENDROOT
BRANCH   7  11
HETATM   11  C   UNL     1      41.351 -17.071   1.637  1.00  0.00     0.261 C 
HETATM   12  N   UNL     1      42.495 -17.784   1.336  1.00  0.00    -0.323 N 
HETATM   13  H   UNL     1      42.923 -17.560   0.444  1.00  0.00     0.169 HD
HETATM   14  O   UNL     1      40.648 -17.223   2.629  1.00  0.00    -0.267 OA
BRANCH  12  15
HETATM   15  C   UNL     1      43.153 -18.742   2.130  1.00  0.00     0.035 A 
HETATM   16  C   UNL     1      43.421 -20.046   1.718  1.00  0.00     0.030 A 
HETATM   17  C   UNL     1      44.040 -20.958   2.584  1.00  0.00     0.012 A 
HETATM   18  C   UNL     1      44.411 -20.590   3.885  1.00  0.00    -0.030 A 
HETATM   19  C   UNL     1      44.138 -19.273   4.287  1.00  0.00     0.012 A 
HETATM   20  C   UNL     1      43.533 -18.357   3.418  1.00  0.00     0.030 A 
BRANCH  18  21
HETATM   21  C   UNL     1      45.003 -21.577   4.875  1.00  0.00     0.147 C 
HETATM   22  C   UNL     1      44.342 -21.618   6.251  1.00  0.00     0.044 C 
BRANCH  21  23
HETATM   23  O   UNL     1      44.938 -22.896   4.323  1.00  0.00    -0.391 OA
HETATM   24  H   UNL     1      45.427 -23.482   4.925  1.00  0.00     0.210 HD
ENDBRANCH  21  23
ENDBRANCH  18  21
ENDBRANCH  12  15
ENDBRANCH   7  11
BRANCH   1  25
HETATM   25  C   UNL     1      38.473 -12.618   2.109  1.00  0.00    -0.035 A 
HETATM   26  C   UNL     1      37.836 -11.366   2.087  1.00  0.00     0.010 A 
HETATM   27  C   UNL     1      38.252 -10.325   2.922  1.00  0.00     0.007 A 
HETATM   28  C   UNL     1      39.322 -10.505   3.800  1.00  0.00    -0.062 A 
HETATM   29  C   UNL     1      39.768  -9.390   4.700  1.00  0.00     0.048 C 
HETATM   30  C   UNL     1      40.000 -11.726   3.795  1.00  0.00     0.007 A 
HETATM   31  C   UNL     1      39.586 -12.766   2.957  1.00  0.00     0.010 A 
ENDBRANCH   1  25
BRANCH   8  32
HETATM   32  C   UNL     1      39.912 -12.003  -0.908  1.00  0.00     0.409 C 
HETATM   33  F   UNL     1      40.767 -11.865   0.121  1.00  0.00    -0.169 F 
HETATM   34  F   UNL     1      40.588 -11.697  -2.041  1.00  0.00    -0.169 F 
HETATM   35  F   UNL     1      38.961 -11.041  -0.771  1.00  0.00    -0.169 F 
ENDBRANCH   8  32
TORSDOF 6
ENDMDL
MODEL 7
REMARK VINA RESULT:      -8.2      4.321      8.869
REMARK  6 active torsions:
REMARK  status: ('A' for Active; 'I' for Inactive)
REMARK    1  A    between atoms: C_5  and  C_6 
REMARK    2  A    between atoms: C_12  and  C_13 
REMARK       I    between atoms: C_13  and  N_14 
REMARK    3  A    between atoms: N_14  and  C_15 
REMARK    4  A    between atoms: C_18  and  C_19 
REMARK    5  A    between atoms: C_19  and  O_20 
REMARK    6  A    between atoms: C_25  and  C_26 
ROOT
HETATM    1  C   UNL     1      41.889 -10.934   0.972  1.00  0.00     0.118 C 
HETATM    2  N   UNL     1      42.117 -12.231   1.634  1.00  0.00    -0.365 N 
HETATM    3  C   UNL     1      41.076 -13.095   1.813  1.00  0.00     0.138 A 
HETATM    4  N   UNL     1      39.774 -12.698   1.615  1.00  0.00    -0.240 N 
HETATM    5  N   UNL     1      38.868 -13.623   1.967  1.00  0.00    -0.181 NA
HETATM    6  C   UNL     1      39.620 -14.679   2.292  1.00  0.00     0.160 A 
HETATM    7  C   UNL     1      41.010 -14.418   2.215  1.00  0.00     0.096 A 
HETATM    8  C   UNL     1      39.362 -11.356   1.256  1.00  0.00     0.221 C 
HETATM    9  C   UNL     1      40.532 -10.371   1.431  1.00  0.00     0.066 C 
HETATM   10  H   UNL     1      42.796 -12.156   2.395  1.00  0.00     0.161 HD
ENDROOT
BRANCH   7  11
HETATM   11  C   UNL     1      42.076 -15.366   2.512  1.00  0.00     0.261 C 
HETATM   12  N   UNL     1      41.625 -16.641   2.791  1.00  0.00    -0.323 N 
HETATM   13  H   UNL     1      40.617 -16.748   2.817  1.00  0.00     0.169 HD
HETATM   14  O   UNL     1      43.247 -15.006   2.488  1.00  0.00    -0.267 OA
BRANCH  12  15
HETATM   15  C   UNL     1      42.389 -17.805   2.998  1.00  0.00     0.035 A 
HETATM   16  C   UNL     1      43.055 -18.100   4.186  1.00  0.00     0.030 A 
HETATM   17  C   UNL     1      43.837 -19.258   4.300  1.00  0.00     0.012 A 
HETATM   18  C   UNL     1      43.970 -20.155   3.231  1.00  0.00    -0.030 A 
HETATM   19  C   UNL     1      43.293 -19.847   2.041  1.00  0.00     0.012 A 
HETATM   20  C   UNL     1      42.500 -18.698   1.930  1.00  0.00     0.030 A 
BRANCH  18  21
HETATM   21  C   UNL     1      44.877 -21.371   3.295  1.00  0.00     0.147 C 
HETATM   22  C   UNL     1      44.881 -22.128   4.622  1.00  0.00     0.044 C 
BRANCH  21  23
HETATM   23  O   UNL     1      44.501 -22.295   2.269  1.00  0.00    -0.391 OA
HETATM   24  H   UNL     1      45.243 -22.913   2.155  1.00  0.00     0.210 HD
ENDBRANCH  21  23
ENDBRANCH  18  21
ENDBRANCH  12  15
ENDBRANCH   7  11
BRANCH   1  25
HETATM   25  C   UNL     1      42.091 -11.002  -0.535  1.00  0.00    -0.035 A 
HETATM   26  C   UNL     1      42.417 -12.195  -1.201  1.00  0.00     0.010 A 
HETATM   27  C   UNL     1      42.569 -12.234  -2.590  1.00  0.00     0.007 A 
HETATM   28  C   UNL     1      42.403 -11.078  -3.354  1.00  0.00    -0.062 A 
HETATM   29  C   UNL     1      42.562 -11.117  -4.845  1.00  0.00     0.048 C 
HETATM   30  C   UNL     1      42.133  -9.872  -2.701  1.00  0.00     0.007 A 
HETATM   31  C   UNL     1      41.985  -9.834  -1.311  1.00  0.00     0.010 A 
ENDBRANCH   1  25
BRANCH   8  32
HETATM   32  C   UNL     1      38.736 -11.349  -0.121  1.00  0.00     0.409 C 
HETATM   33  F   UNL     1      39.236 -12.275  -0.958  1.00  0.00    -0.169 F 
HETATM   34  F   UNL     1      37.395 -11.532  -0.068  1.00  0.00    -0.169 F 
HETATM   35  F   UNL     1      38.923 -10.135  -0.707  1.00  0.00    -0.169 F 
ENDBRANCH   8  32
TORSDOF 6
ENDMDL
MODEL 8
REMARK VINA RESULT:      -8.2      5.841      9.955
REMARK  6 active torsions:
REMARK  status: ('A' for Active; 'I' for Inactive)
REMARK    1  A    between atoms: C_5  and  C_6 
REMARK    2  A    between atoms: C_12  and  C_13 
REMARK       I    between atoms: C_13  and  N_14 
REMARK    3  A    between atoms: N_14  and  C_15 
REMARK    4  A    between atoms: C_18  and  C_19 
REMARK    5  A    between atoms: C_19  and  O_20 
REMARK    6  A    between atoms: C_25  and  C_26 
ROOT
HETATM    1  C   UNL     1      42.895 -13.595   2.864  1.00  0.00     0.118 C 
HETATM    2  N   UNL     1      42.561 -12.522   3.818  1.00  0.00    -0.365 N 
HETATM    3  C   UNL     1      41.255 -12.242   4.096  1.00  0.00     0.138 A 
HETATM    4  N   UNL     1      40.233 -12.763   3.336  1.00  0.00    -0.240 N 
HETATM    5  N   UNL     1      39.023 -12.279   3.655  1.00  0.00    -0.181 NA
HETATM    6  C   UNL     1      39.271 -11.515   4.723  1.00  0.00     0.160 A 
HETATM    7  C   UNL     1      40.646 -11.450   5.054  1.00  0.00     0.096 A 
HETATM    8  C   UNL     1      40.414 -13.597   2.165  1.00  0.00     0.221 C 
HETATM    9  C   UNL     1      41.883 -13.566   1.705  1.00  0.00     0.066 C 
HETATM   10  H   UNL     1      43.201 -11.728   3.737  1.00  0.00     0.161 HD
ENDROOT
BRANCH   7  11
HETATM   11  C   UNL     1      41.225 -10.696   6.159  1.00  0.00     0.261 C 
HETATM   12  N   UNL     1      41.197 -11.367   7.366  1.00  0.00    -0.323 N 
HETATM   13  H   UNL     1      40.726 -12.264   7.351  1.00  0.00     0.169 HD
HETATM   14  O   UNL     1      41.689  -9.578   5.967  1.00  0.00    -0.267 OA
BRANCH  12  15
HETATM   15  C   UNL     1      41.775 -10.975   8.588  1.00  0.00     0.035 A 
HETATM   16  C   UNL     1      43.145 -10.997   8.846  1.00  0.00     0.030 A 
HETATM   17  C   UNL     1      43.642 -10.635  10.106  1.00  0.00     0.012 A 
HETATM   18  C   UNL     1      42.783 -10.239  11.141  1.00  0.00    -0.030 A 
HETATM   19  C   UNL     1      41.406 -10.219  10.867  1.00  0.00     0.012 A 
HETATM   20  C   UNL     1      40.910 -10.566   9.605  1.00  0.00     0.030 A 
BRANCH  18  21
HETATM   21  C   UNL     1      43.283  -9.925  12.540  1.00  0.00     0.147 C 
HETATM   22  C   UNL     1      42.862  -8.571  13.108  1.00  0.00     0.044 C 
BRANCH  21  23
HETATM   23  O   UNL     1      42.824 -10.936  13.444  1.00  0.00    -0.391 OA
HETATM   24  H   UNL     1      42.245 -10.499  14.091  1.00  0.00     0.210 HD
ENDBRANCH  21  23
ENDBRANCH  18  21
ENDBRANCH  12  15
ENDBRANCH   7  11
BRANCH   1  25
HETATM   25  C   UNL     1      43.072 -14.947   3.542  1.00  0.00    -0.035 A 
HETATM   26  C   UNL     1      42.940 -15.120   4.930  1.00  0.00     0.010 A 
HETATM   27  C   UNL     1      43.080 -16.378   5.522  1.00  0.00     0.007 A 
HETATM   28  C   UNL     1      43.360 -17.501   4.742  1.00  0.00    -0.062 A 
HETATM   29  C   UNL     1      43.507 -18.854   5.374  1.00  0.00     0.048 C 
HETATM   30  C   UNL     1      43.548 -17.337   3.367  1.00  0.00     0.007 A 
HETATM   31  C   UNL     1      43.412 -16.077   2.776  1.00  0.00     0.010 A 
ENDBRANCH   1  25
BRANCH   8  32
HETATM   32  C   UNL     1      39.864 -14.984   2.418  1.00  0.00     0.409 C 
HETATM   33  F   UNL     1      39.967 -15.392   3.695  1.00  0.00    -0.169 F 
HETATM   34  F   UNL     1      38.561 -15.084   2.064  1.00  0.00    -0.169 F 
HETATM   35  F   UNL     1      40.529 -15.890   1.652  1.00  0.00    -0.169 F 
ENDBRANCH   8  32
TORSDOF 6
ENDMDL
MODEL 9
REMARK VINA RESULT:      -8.1      5.442      9.163
REMARK  6 active torsions:
REMARK  status: ('A' for Active; 'I' for Inactive)
REMARK    1  A    between atoms: C_5  and  C_6 
REMARK    2  A    between atoms: C_12  and  C_13 
REMARK       I    between atoms: C_13  and  N_14 
REMARK    3  A    between atoms: N_14  and  C_15 
REMARK    4  A    between atoms: C_18  and  C_19 
REMARK    5  A    between atoms: C_19  and  O_20 
REMARK    6  A    between atoms: C_25  and  C_26 
ROOT
HETATM    1  C   UNL     1      43.532 -15.547   2.751  1.00  0.00     0.118 C 
HETATM    2  N   UNL     1      43.133 -14.503   3.713  1.00  0.00    -0.365 N 
HETATM    3  C   UNL     1      41.810 -14.270   3.953  1.00  0.00     0.138 A 
HETATM    4  N   UNL     1      40.831 -14.809   3.152  1.00  0.00    -0.240 N 
HETATM    5  N   UNL     1      39.596 -14.371   3.439  1.00  0.00    -0.181 NA
HETATM    6  C   UNL     1      39.784 -13.619   4.528  1.00  0.00     0.160 A 
HETATM    7  C   UNL     1      41.146 -13.516   4.905  1.00  0.00     0.096 A 
HETATM    8  C   UNL     1      41.076 -15.616   1.972  1.00  0.00     0.221 C 
HETATM    9  C   UNL     1      42.557 -15.529   1.561  1.00  0.00     0.066 C 
HETATM   10  H   UNL     1      43.749 -13.688   3.666  1.00  0.00     0.161 HD
ENDROOT
BRANCH   7  11
HETATM   11  C   UNL     1      41.664 -12.765   6.041  1.00  0.00     0.261 C 
HETATM   12  N   UNL     1      40.725 -11.951   6.644  1.00  0.00    -0.323 N 
HETATM   13  H   UNL     1      39.819 -11.926   6.191  1.00  0.00     0.169 HD
HETATM   14  O   UNL     1      42.832 -12.896   6.387  1.00  0.00    -0.267 OA
BRANCH  12  15
HETATM   15  C   UNL     1      40.864 -11.195   7.823  1.00  0.00     0.035 A 
HETATM   16  C   UNL     1      42.046 -10.567   8.212  1.00  0.00     0.030 A 
HETATM   17  C   UNL     1      42.120  -9.868   9.426  1.00  0.00     0.012 A 
HETATM   18  C   UNL     1      41.014  -9.776  10.281  1.00  0.00    -0.030 A 
HETATM   19  C   UNL     1      39.829 -10.411   9.877  1.00  0.00     0.012 A 
HETATM   20  C   UNL     1      39.749 -11.096   8.658  1.00  0.00     0.030 A 
BRANCH  18  21
HETATM   21  C   UNL     1      41.087  -9.102  11.640  1.00  0.00     0.147 C 
HETATM   22  C   UNL     1      42.183  -8.051  11.803  1.00  0.00     0.044 C 
BRANCH  21  23
HETATM   23  O   UNL     1      39.835  -8.469  11.921  1.00  0.00    -0.391 OA
HETATM   24  H   UNL     1      39.821  -7.630  11.430  1.00  0.00     0.210 HD
ENDBRANCH  21  23
ENDBRANCH  18  21
ENDBRANCH  12  15
ENDBRANCH   7  11
BRANCH   1  25
HETATM   25  C   UNL     1      43.731 -16.905   3.410  1.00  0.00    -0.035 A 
HETATM   26  C   UNL     1      43.980 -18.074   2.672  1.00  0.00     0.010 A 
HETATM   27  C   UNL     1      44.187 -19.303   3.305  1.00  0.00     0.007 A 
HETATM   28  C   UNL     1      44.146 -19.399   4.697  1.00  0.00    -0.062 A 
HETATM   29  C   UNL     1      44.370 -20.716   5.380  1.00  0.00     0.048 C 
HETATM   30  C   UNL     1      43.845 -18.256   5.443  1.00  0.00     0.007 A 
HETATM   31  C   UNL     1      43.635 -17.028   4.808  1.00  0.00     0.010 A 
ENDBRANCH   1  25
BRANCH   8  32
HETATM   32  C   UNL     1      40.564 -17.024   2.183  1.00  0.00     0.409 C 
HETATM   33  F   UNL     1      41.121 -17.940   1.371  1.00  0.00    -0.169 F 
HETATM   34  F   UNL     1      40.751 -17.444   3.456  1.00  0.00    -0.169 F 
HETATM   35  F   UNL     1      39.221 -17.063   1.971  1.00  0.00    -0.169 F 
ENDBRANCH   8  32
TORSDOF 6
ENDMDL
MODEL 10
REMARK VINA RESULT:      -8.1      3.571      8.526
REMARK  6 active torsions:
REMARK  status: ('A' for Active; 'I' for Inactive)
REMARK    1  A    between atoms: C_5  and  C_6 
REMARK    2  A    between atoms: C_12  and  C_13 
REMARK       I    between atoms: C_13  and  N_14 
REMARK    3  A    between atoms: N_14  and  C_15 
REMARK    4  A    between atoms: C_18  and  C_19 
REMARK    5  A    between atoms: C_19  and  O_20 
REMARK    6  A    between atoms: C_25  and  C_26 
ROOT
HETATM    1  C   UNL     1      41.451 -11.564   0.766  1.00  0.00     0.118 C 
HETATM    2  N   UNL     1      42.111 -12.650   1.515  1.00  0.00    -0.365 N 
HETATM    3  C   UNL     1      41.577 -13.086   2.692  1.00  0.00     0.138 A 
HETATM    4  N   UNL     1      40.578 -12.386   3.328  1.00  0.00    -0.240 N 
HETATM    5  N   UNL     1      40.265 -12.873   4.538  1.00  0.00    -0.181 NA
HETATM    6  C   UNL     1      41.007 -13.981   4.624  1.00  0.00     0.160 A 
HETATM    7  C   UNL     1      41.849 -14.175   3.501  1.00  0.00     0.096 A 
HETATM    8  C   UNL     1      40.029 -11.125   2.871  1.00  0.00     0.221 C 
HETATM    9  C   UNL     1      40.914 -10.523   1.765  1.00  0.00     0.066 C 
HETATM   10  H   UNL     1      43.130 -12.583   1.461  1.00  0.00     0.161 HD
ENDROOT
BRANCH   7  11
HETATM   11  C   UNL     1      42.774 -15.285   3.308  1.00  0.00     0.261 C 
HETATM   12  N   UNL     1      42.232 -16.519   3.607  1.00  0.00    -0.323 N 
HETATM   13  H   UNL     1      41.290 -16.500   3.982  1.00  0.00     0.169 HD
HETATM   14  O   UNL     1      43.911 -15.077   2.902  1.00  0.00    -0.267 OA
BRANCH  12  15
HETATM   15  C   UNL     1      42.810 -17.788   3.417  1.00  0.00     0.035 A 
HETATM   16  C   UNL     1      43.676 -18.395   4.325  1.00  0.00     0.030 A 
HETATM   17  C   UNL     1      44.250 -19.644   4.043  1.00  0.00     0.012 A 
HETATM   18  C   UNL     1      43.971 -20.319   2.847  1.00  0.00    -0.030 A 
HETATM   19  C   UNL     1      43.095 -19.698   1.942  1.00  0.00     0.012 A 
HETATM   20  C   UNL     1      42.511 -18.459   2.229  1.00  0.00     0.030 A 
BRANCH  18  21
HETATM   21  C   UNL     1      44.642 -21.630   2.474  1.00  0.00     0.147 C 
HETATM   22  C   UNL     1      44.623 -22.715   3.548  1.00  0.00     0.044 C 
BRANCH  21  23
HETATM   23  O   UNL     1      44.016 -22.166   1.305  1.00  0.00    -0.391 OA
HETATM   24  H   UNL     1      43.927 -21.436   0.668  1.00  0.00     0.210 HD
ENDBRANCH  21  23
ENDBRANCH  18  21
ENDBRANCH  12  15
ENDBRANCH   7  11
BRANCH   1  25
HETATM   25  C   UNL     1      40.435 -12.082  -0.243  1.00  0.00    -0.035 A 
HETATM   26  C   UNL     1      39.714 -11.229  -1.096  1.00  0.00     0.010 A 
HETATM   27  C   UNL     1      38.809 -11.734  -2.033  1.00  0.00     0.007 A 
HETATM   28  C   UNL     1      38.595 -13.110  -2.141  1.00  0.00    -0.062 A 
HETATM   29  C   UNL     1      37.626 -13.656  -3.149  1.00  0.00     0.048 C 
HETATM   30  C   UNL     1      39.263 -13.967  -1.264  1.00  0.00     0.007 A 
HETATM   31  C   UNL     1      40.166 -13.460  -0.324  1.00  0.00     0.010 A 
ENDBRANCH   1  25
BRANCH   8  32
HETATM   32  C   UNL     1      38.575 -11.294   2.489  1.00  0.00     0.409 C 
HETATM   33  F   UNL     1      38.171 -10.491   1.489  1.00  0.00    -0.169 F 
HETATM   34  F   UNL     1      38.292 -12.567   2.126  1.00  0.00    -0.169 F 
HETATM   35  F   UNL     1      37.782 -11.028   3.562  1.00  0.00    -0.169 F 
ENDBRANCH   8  32
TORSDOF 6
ENDMDL
