MODEL 1
REMARK VINA RESULT:     -10.2      0.000      0.000
REMARK  9 active torsions:
REMARK  status: ('A' for Active; 'I' for Inactive)
REMARK    1  A    between atoms: C_2  and  C_3 
REMARK    2  A    between atoms: C_4  and  N_5 
REMARK       I    between atoms: N_5  and  C_6 
REMARK    3  A    between atoms: C_6  and  C_7 
REMARK    4  A    between atoms: C_7  and  N_8 
REMARK    5  A    between atoms: N_12  and  C_13 
REMARK    6  A    between atoms: C_15  and  N_16 
REMARK    7  A    between atoms: N_16  and  C_17 
REMARK    8  A    between atoms: C_24  and  N_25 
REMARK    9  A    between atoms: N_25  and  C_26 
ROOT
HETATM    1  C   UNL     1      41.840 -16.017   4.134  1.00  0.00     0.240 A 
HETATM    2  N   UNL     1      42.862 -16.839   3.969  1.00  0.00    -0.030 NA
HETATM    3  C   UNL     1      43.083 -17.279   2.734  1.00  0.00     0.745 A 
HETATM    4  N   UNL     1      42.339 -16.946   1.691  1.00  0.00     0.131 NA
HETATM    5  C   UNL     1      41.369 -16.070   1.926  1.00  0.00     0.745 A 
HETATM    6  N   UNL     1      41.057 -15.640   3.142  1.00  0.00    -0.030 NA
ENDROOT
BRANCH   1   7
HETATM    7  N   UNL     1      41.535 -15.564   5.420  1.00  0.00    -0.247 NA
HETATM    8  C   UNL     1      41.544 -14.104   5.601  1.00  0.00     0.126 C 
HETATM    9  C   UNL     1      42.975 -13.551   5.780  1.00  0.00     0.250 C 
HETATM   10  N   UNL     1      43.698 -14.314   6.880  1.00  0.00    -0.060 N 
HETATM   11  H   UNL     1      43.179 -14.186   7.766  1.00  0.00     0.280 HD
HETATM   12  C   UNL     1      43.688 -15.827   6.628  1.00  0.00     0.250 C 
HETATM   13  C   UNL     1      42.233 -16.326   6.469  1.00  0.00     0.126 C 
BRANCH  10  14
HETATM   14  C   UNL     1      45.090 -13.766   7.175  1.00  0.00     0.337 C 
BRANCH  14  15
HETATM   15  C   UNL     1      45.001 -12.599   8.162  1.00  0.00     0.248 C 
HETATM   16  N   UNL     1      43.850 -12.578   8.926  1.00  0.00    -0.325 N 
HETATM   17  H   UNL     1      43.046 -13.053   8.531  1.00  0.00     0.169 HD
HETATM   18  O   UNL     1      45.911 -11.767   8.161  1.00  0.00    -0.271 OA
BRANCH  16  19
HETATM   19  C   UNL     1      43.528 -11.497   9.786  1.00  0.00     0.047 A 
HETATM   20  C   UNL     1      42.615 -10.482   9.420  1.00  0.00    -0.031 A 
HETATM   21  C   UNL     1      42.322  -9.470  10.353  1.00  0.00     0.009 A 
HETATM   22  C   UNL     1      42.935  -9.438  11.601  1.00  0.00     0.001 A 
HETATM   23  C   UNL     1      43.876 -10.404  11.933  1.00  0.00     0.009 A 
HETATM   24  C   UNL     1      44.193 -11.433  11.034  1.00  0.00    -0.035 A 
HETATM   25  C   UNL     1      45.211 -12.457  11.466  1.00  0.00     0.050 C 
BRANCH  20  26
HETATM   26  C   UNL     1      42.042 -10.305   8.028  1.00  0.00     0.036 C 
HETATM   27  C   UNL     1      40.685 -10.983   7.884  1.00  0.00     0.010 C 
ENDBRANCH  20  26
ENDBRANCH  16  19
ENDBRANCH  14  15
ENDBRANCH  10  14
ENDBRANCH   1   7
BRANCH   3  28
HETATM   28  N   UNL     1      44.094 -18.210   2.500  1.00  0.00    -0.188 N 
HETATM   29  H   UNL     1      44.980 -17.746   2.355  1.00  0.00     0.184 HD
BRANCH  28  30
HETATM   30  C   UNL     1      44.167 -19.584   2.770  1.00  0.00     0.049 A 
HETATM   31  C   UNL     1      44.667 -20.000   4.013  1.00  0.00     0.030 A 
HETATM   32  C   UNL     1      44.812 -21.357   4.315  1.00  0.00     0.002 A 
HETATM   33  C   UNL     1      44.462 -22.321   3.375  1.00  0.00     0.000 A 
HETATM   34  C   UNL     1      43.972 -21.929   2.133  1.00  0.00     0.002 A 
HETATM   35  C   UNL     1      43.837 -20.571   1.832  1.00  0.00     0.030 A 
ENDBRANCH  28  30
ENDBRANCH   3  28
BRANCH   5  36
HETATM   36  N   UNL     1      40.635 -15.647   0.817  1.00  0.00    -0.188 N 
HETATM   37  H   UNL     1      39.800 -16.211   0.724  1.00  0.00     0.184 HD
BRANCH  36  38
HETATM   38  C   UNL     1      41.065 -15.061  -0.388  1.00  0.00     0.049 A 
HETATM   39  C   UNL     1      41.649 -13.791  -0.469  1.00  0.00     0.030 A 
HETATM   40  C   UNL     1      42.035 -13.248  -1.699  1.00  0.00     0.002 A 
HETATM   41  C   UNL     1      41.819 -13.959  -2.874  1.00  0.00     0.000 A 
HETATM   42  C   UNL     1      41.215 -15.211  -2.820  1.00  0.00     0.002 A 
HETATM   43  C   UNL     1      40.837 -15.753  -1.587  1.00  0.00     0.030 A 
ENDBRANCH  36  38
ENDBRANCH   5  36
TORSDOF 9
ENDMDL
MODEL 2
REMARK VINA RESULT:     -10.2      0.148      5.053
REMARK  9 active torsions:
REMARK  status: ('A' for Active; 'I' for Inactive)
REMARK    1  A    between atoms: C_2  and  C_3 
REMARK    2  A    between atoms: C_4  and  N_5 
REMARK       I    between atoms: N_5  and  C_6 
REMARK    3  A    between atoms: C_6  and  C_7 
REMARK    4  A    between atoms: C_7  and  N_8 
REMARK    5  A    between atoms: N_12  and  C_13 
REMARK    6  A    between atoms: C_15  and  N_16 
REMARK    7  A    between atoms: N_16  and  C_17 
REMARK    8  A    between atoms: C_24  and  N_25 
REMARK    9  A    between atoms: N_25  and  C_26 
ROOT
HETATM    1  C   UNL     1      41.756 -16.013   4.123  1.00  0.00     0.240 A 
HETATM    2  N   UNL     1      40.989 -15.628   3.118  1.00  0.00    -0.030 NA
HETATM    3  C   UNL     1      41.330 -16.056   1.906  1.00  0.00     0.745 A 
HETATM    4  N   UNL     1      42.383 -16.822   1.666  1.00  0.00     0.131 NA
HETATM    5  C   UNL     1      43.068 -17.216   2.733  1.00  0.00     0.745 A 
HETATM    6  N   UNL     1      42.818 -16.778   3.961  1.00  0.00    -0.030 NA
ENDROOT
BRANCH   1   7
HETATM    7  N   UNL     1      41.469 -15.554   5.410  1.00  0.00    -0.247 NA
HETATM    8  C   UNL     1      41.514 -14.095   5.593  1.00  0.00     0.126 C 
HETATM    9  C   UNL     1      42.959 -13.576   5.764  1.00  0.00     0.250 C 
HETATM   10  N   UNL     1      43.669 -14.358   6.860  1.00  0.00    -0.060 N 
HETATM   11  H   UNL     1      43.158 -14.218   7.749  1.00  0.00     0.280 HD
HETATM   12  C   UNL     1      43.622 -15.870   6.607  1.00  0.00     0.250 C 
HETATM   13  C   UNL     1      42.153 -16.334   6.456  1.00  0.00     0.126 C 
BRANCH  10  14
HETATM   14  C   UNL     1      45.076 -13.844   7.149  1.00  0.00     0.337 C 
BRANCH  14  15
HETATM   15  C   UNL     1      45.017 -12.653   8.110  1.00  0.00     0.248 C 
HETATM   16  N   UNL     1      43.919 -12.645   8.948  1.00  0.00    -0.325 N 
HETATM   17  H   UNL     1      43.106 -13.152   8.621  1.00  0.00     0.169 HD
HETATM   18  O   UNL     1      45.899 -11.797   8.027  1.00  0.00    -0.271 OA
BRANCH  16  19
HETATM   19  C   UNL     1      43.623 -11.551   9.801  1.00  0.00     0.047 A 
HETATM   20  C   UNL     1      42.676 -10.558   9.461  1.00  0.00    -0.031 A 
HETATM   21  C   UNL     1      42.414  -9.530  10.387  1.00  0.00     0.009 A 
HETATM   22  C   UNL     1      43.087  -9.463  11.602  1.00  0.00     0.001 A 
HETATM   23  C   UNL     1      44.059 -10.407  11.906  1.00  0.00     0.009 A 
HETATM   24  C   UNL     1      44.348 -11.450  11.013  1.00  0.00    -0.035 A 
HETATM   25  C   UNL     1      45.402 -12.449  11.415  1.00  0.00     0.050 C 
BRANCH  20  26
HETATM   26  C   UNL     1      42.032 -10.419   8.096  1.00  0.00     0.036 C 
HETATM   27  C   UNL     1      40.519 -10.587   8.164  1.00  0.00     0.010 C 
ENDBRANCH  20  26
ENDBRANCH  16  19
ENDBRANCH  14  15
ENDBRANCH  10  14
ENDBRANCH   1   7
BRANCH   3  28
HETATM   28  N   UNL     1      40.614 -15.624   0.792  1.00  0.00    -0.188 N 
HETATM   29  H   UNL     1      39.630 -15.539   1.010  1.00  0.00     0.184 HD
BRANCH  28  30
HETATM   30  C   UNL     1      41.029 -14.986  -0.386  1.00  0.00     0.049 A 
HETATM   31  C   UNL     1      40.855 -15.651  -1.609  1.00  0.00     0.030 A 
HETATM   32  C   UNL     1      41.298 -15.084  -2.808  1.00  0.00     0.002 A 
HETATM   33  C   UNL     1      41.926 -13.843  -2.802  1.00  0.00     0.000 A 
HETATM   34  C   UNL     1      42.115 -13.171  -1.598  1.00  0.00     0.002 A 
HETATM   35  C   UNL     1      41.678 -13.745  -0.401  1.00  0.00     0.030 A 
ENDBRANCH  28  30
ENDBRANCH   3  28
BRANCH   5  36
HETATM   36  N   UNL     1      44.127 -18.095   2.499  1.00  0.00    -0.188 N 
HETATM   37  H   UNL     1      44.698 -17.747   1.739  1.00  0.00     0.184 HD
BRANCH  36  38
HETATM   38  C   UNL     1      44.211 -19.487   2.685  1.00  0.00     0.049 A 
HETATM   39  C   UNL     1      43.764 -20.424   1.745  1.00  0.00     0.030 A 
HETATM   40  C   UNL     1      43.850 -21.798   1.994  1.00  0.00     0.002 A 
HETATM   41  C   UNL     1      44.364 -22.257   3.202  1.00  0.00     0.000 A 
HETATM   42  C   UNL     1      44.787 -21.343   4.162  1.00  0.00     0.002 A 
HETATM   43  C   UNL     1      44.706 -19.970   3.905  1.00  0.00     0.030 A 
ENDBRANCH  36  38
ENDBRANCH   5  36
TORSDOF 9
ENDMDL
MODEL 3
REMARK VINA RESULT:     -10.1      1.761      2.719
REMARK  9 active torsions:
REMARK  status: ('A' for Active; 'I' for Inactive)
REMARK    1  A    between atoms: C_2  and  C_3 
REMARK    2  A    between atoms: C_4  and  N_5 
REMARK       I    between atoms: N_5  and  C_6 
REMARK    3  A    between atoms: C_6  and  C_7 
REMARK    4  A    between atoms: C_7  and  N_8 
REMARK    5  A    between atoms: N_12  and  C_13 
REMARK    6  A    between atoms: C_15  and  N_16 
REMARK    7  A    between atoms: N_16  and  C_17 
REMARK    8  A    between atoms: C_24  and  N_25 
REMARK    9  A    between atoms: N_25  and  C_26 
ROOT
HETATM    1  C   UNL     1      41.604 -16.204   4.488  1.00  0.00     0.240 A 
HETATM    2  N   UNL     1      42.654 -16.933   4.151  1.00  0.00    -0.030 NA
HETATM    3  C   UNL     1      42.708 -17.358   2.892  1.00  0.00     0.745 A 
HETATM    4  N   UNL     1      41.777 -17.098   1.988  1.00  0.00     0.131 NA
HETATM    5  C   UNL     1      40.785 -16.310   2.387  1.00  0.00     0.745 A 
HETATM    6  N   UNL     1      40.639 -15.903   3.641  1.00  0.00    -0.030 NA
ENDROOT
BRANCH   1   7
HETATM    7  N   UNL     1      41.475 -15.772   5.811  1.00  0.00    -0.247 NA
HETATM    8  C   UNL     1      40.247 -15.026   6.122  1.00  0.00     0.126 C 
HETATM    9  C   UNL     1      40.338 -13.548   5.682  1.00  0.00     0.250 C 
HETATM   10  N   UNL     1      41.604 -12.914   6.239  1.00  0.00    -0.060 N 
HETATM   11  H   UNL     1      41.564 -12.951   7.273  1.00  0.00     0.280 HD
HETATM   12  C   UNL     1      42.859 -13.711   5.860  1.00  0.00     0.250 C 
HETATM   13  C   UNL     1      42.716 -15.176   6.335  1.00  0.00     0.126 C 
BRANCH  10  14
HETATM   14  C   UNL     1      41.721 -11.427   5.920  1.00  0.00     0.337 C 
BRANCH  14  15
HETATM   15  C   UNL     1      42.022 -10.633   7.194  1.00  0.00     0.248 C 
HETATM   16  N   UNL     1      42.125 -11.401   8.338  1.00  0.00    -0.325 N 
HETATM   17  H   UNL     1      41.638 -12.290   8.323  1.00  0.00     0.169 HD
HETATM   18  O   UNL     1      42.096  -9.407   7.110  1.00  0.00    -0.271 OA
BRANCH  16  19
HETATM   19  C   UNL     1      42.255 -10.828   9.629  1.00  0.00     0.047 A 
HETATM   20  C   UNL     1      43.511 -10.561  10.218  1.00  0.00    -0.031 A 
HETATM   21  C   UNL     1      43.546  -9.951  11.486  1.00  0.00     0.009 A 
HETATM   22  C   UNL     1      42.376  -9.640  12.171  1.00  0.00     0.001 A 
HETATM   23  C   UNL     1      41.144  -9.959  11.615  1.00  0.00     0.009 A 
HETATM   24  C   UNL     1      41.065 -10.563  10.351  1.00  0.00    -0.035 A 
HETATM   25  C   UNL     1      39.696 -10.865   9.799  1.00  0.00     0.050 C 
BRANCH  20  26
HETATM   26  C   UNL     1      44.839 -11.031   9.657  1.00  0.00     0.036 C 
HETATM   27  C   UNL     1      45.471 -12.109  10.529  1.00  0.00     0.010 C 
ENDBRANCH  20  26
ENDBRANCH  16  19
ENDBRANCH  14  15
ENDBRANCH  10  14
ENDBRANCH   1   7
BRANCH   3  28
HETATM   28  N   UNL     1      43.745 -18.197   2.488  1.00  0.00    -0.188 N 
HETATM   29  H   UNL     1      44.561 -17.658   2.234  1.00  0.00     0.184 HD
BRANCH  28  30
HETATM   30  C   UNL     1      43.965 -19.565   2.700  1.00  0.00     0.049 A 
HETATM   31  C   UNL     1      44.560 -19.973   3.903  1.00  0.00     0.030 A 
HETATM   32  C   UNL     1      44.850 -21.319   4.145  1.00  0.00     0.002 A 
HETATM   33  C   UNL     1      44.554 -22.279   3.184  1.00  0.00     0.000 A 
HETATM   34  C   UNL     1      43.971 -21.894   1.980  1.00  0.00     0.002 A 
HETATM   35  C   UNL     1      43.690 -20.547   1.739  1.00  0.00     0.030 A 
ENDBRANCH  28  30
ENDBRANCH   3  28
BRANCH   5  36
HETATM   36  N   UNL     1      39.844 -15.960   1.417  1.00  0.00    -0.188 N 
HETATM   37  H   UNL     1      39.871 -16.628   0.657  1.00  0.00     0.184 HD
BRANCH  36  38
HETATM   38  C   UNL     1      39.347 -14.697   1.047  1.00  0.00     0.049 A 
HETATM   39  C   UNL     1      37.984 -14.379   1.014  1.00  0.00     0.030 A 
HETATM   40  C   UNL     1      37.544 -13.113   0.614  1.00  0.00     0.002 A 
HETATM   41  C   UNL     1      38.464 -12.149   0.216  1.00  0.00     0.000 A 
HETATM   42  C   UNL     1      39.821 -12.452   0.214  1.00  0.00     0.002 A 
HETATM   43  C   UNL     1      40.257 -13.717   0.621  1.00  0.00     0.030 A 
ENDBRANCH  36  38
ENDBRANCH   5  36
TORSDOF 9
ENDMDL
MODEL 4
REMARK VINA RESULT:     -10.1      1.852      5.823
REMARK  9 active torsions:
REMARK  status: ('A' for Active; 'I' for Inactive)
REMARK    1  A    between atoms: C_2  and  C_3 
REMARK    2  A    between atoms: C_4  and  N_5 
REMARK       I    between atoms: N_5  and  C_6 
REMARK    3  A    between atoms: C_6  and  C_7 
REMARK    4  A    between atoms: C_7  and  N_8 
REMARK    5  A    between atoms: N_12  and  C_13 
REMARK    6  A    between atoms: C_15  and  N_16 
REMARK    7  A    between atoms: N_16  and  C_17 
REMARK    8  A    between atoms: C_24  and  N_25 
REMARK    9  A    between atoms: N_25  and  C_26 
ROOT
HETATM    1  C   UNL     1      41.614 -16.220   4.443  1.00  0.00     0.240 A 
HETATM    2  N   UNL     1      40.654 -15.846   3.616  1.00  0.00    -0.030 NA
HETATM    3  C   UNL     1      40.762 -16.248   2.353  1.00  0.00     0.745 A 
HETATM    4  N   UNL     1      41.768 -16.978   1.897  1.00  0.00     0.131 NA
HETATM    5  C   UNL     1      42.661 -17.364   2.802  1.00  0.00     0.745 A 
HETATM    6  N   UNL     1      42.645 -16.950   4.062  1.00  0.00    -0.030 NA
ENDROOT
BRANCH   1   7
HETATM    7  N   UNL     1      41.572 -15.786   5.770  1.00  0.00    -0.247 NA
HETATM    8  C   UNL     1      40.297 -15.202   6.212  1.00  0.00     0.126 C 
HETATM    9  C   UNL     1      40.143 -13.733   5.760  1.00  0.00     0.250 C 
HETATM   10  N   UNL     1      41.366 -12.928   6.173  1.00  0.00    -0.060 N 
HETATM   11  H   UNL     1      41.443 -12.951   7.205  1.00  0.00     0.280 HD
HETATM   12  C   UNL     1      42.667 -13.559   5.662  1.00  0.00     0.250 C 
HETATM   13  C   UNL     1      42.772 -15.022   6.154  1.00  0.00     0.126 C 
BRANCH  10  14
HETATM   14  C   UNL     1      41.249 -11.445   5.838  1.00  0.00     0.337 C 
BRANCH  14  15
HETATM   15  C   UNL     1      41.673 -10.595   7.039  1.00  0.00     0.248 C 
HETATM   16  N   UNL     1      41.609 -11.248   8.255  1.00  0.00    -0.325 N 
HETATM   17  H   UNL     1      40.964 -12.027   8.308  1.00  0.00     0.169 HD
HETATM   18  O   UNL     1      41.978  -9.418   6.839  1.00  0.00    -0.271 OA
BRANCH  16  19
HETATM   19  C   UNL     1      41.823 -10.580   9.488  1.00  0.00     0.047 A 
HETATM   20  C   UNL     1      43.102 -10.466  10.078  1.00  0.00    -0.031 A 
HETATM   21  C   UNL     1      43.228  -9.748  11.283  1.00  0.00     0.009 A 
HETATM   22  C   UNL     1      42.120  -9.185  11.908  1.00  0.00     0.001 A 
HETATM   23  C   UNL     1      40.857  -9.351  11.356  1.00  0.00     0.009 A 
HETATM   24  C   UNL     1      40.688 -10.055  10.154  1.00  0.00    -0.035 A 
HETATM   25  C   UNL     1      39.292 -10.182   9.602  1.00  0.00     0.050 C 
BRANCH  20  26
HETATM   26  C   UNL     1      44.338 -11.200   9.595  1.00  0.00     0.036 C 
HETATM   27  C   UNL     1      45.467 -11.139  10.616  1.00  0.00     0.010 C 
ENDBRANCH  20  26
ENDBRANCH  16  19
ENDBRANCH  14  15
ENDBRANCH  10  14
ENDBRANCH   1   7
BRANCH   3  28
HETATM   28  N   UNL     1      39.829 -15.825   1.408  1.00  0.00    -0.188 N 
HETATM   29  H   UNL     1      39.258 -16.599   1.098  1.00  0.00     0.184 HD
BRANCH  28  30
HETATM   30  C   UNL     1      39.335 -14.549   1.101  1.00  0.00     0.049 A 
HETATM   31  C   UNL     1      37.946 -14.356   1.064  1.00  0.00     0.030 A 
HETATM   32  C   UNL     1      37.399 -13.118   0.713  1.00  0.00     0.002 A 
HETATM   33  C   UNL     1      38.233 -12.054   0.389  1.00  0.00     0.000 A 
HETATM   34  C   UNL     1      39.614 -12.227   0.411  1.00  0.00     0.002 A 
HETATM   35  C   UNL     1      40.157 -13.468   0.755  1.00  0.00     0.030 A 
ENDBRANCH  28  30
ENDBRANCH   3  28
BRANCH   5  36
HETATM   36  N   UNL     1      43.677 -18.207   2.349  1.00  0.00    -0.188 N 
HETATM   37  H   UNL     1      43.955 -17.935   1.414  1.00  0.00     0.184 HD
BRANCH  36  38
HETATM   38  C   UNL     1      43.946 -19.554   2.655  1.00  0.00     0.049 A 
HETATM   39  C   UNL     1      44.568 -19.971   3.838  1.00  0.00     0.030 A 
HETATM   40  C   UNL     1      44.833 -21.324   4.079  1.00  0.00     0.002 A 
HETATM   41  C   UNL     1      44.502 -22.280   3.125  1.00  0.00     0.000 A 
HETATM   42  C   UNL     1      43.909 -21.885   1.930  1.00  0.00     0.002 A 
HETATM   43  C   UNL     1      43.639 -20.532   1.697  1.00  0.00     0.030 A 
ENDBRANCH  36  38
ENDBRANCH   5  36
TORSDOF 9
ENDMDL
MODEL 5
REMARK VINA RESULT:      -9.9      1.876      5.638
REMARK  9 active torsions:
REMARK  status: ('A' for Active; 'I' for Inactive)
REMARK    1  A    between atoms: C_2  and  C_3 
REMARK    2  A    between atoms: C_4  and  N_5 
REMARK       I    between atoms: N_5  and  C_6 
REMARK    3  A    between atoms: C_6  and  C_7 
REMARK    4  A    between atoms: C_7  and  N_8 
REMARK    5  A    between atoms: N_12  and  C_13 
REMARK    6  A    between atoms: C_15  and  N_16 
REMARK    7  A    between atoms: N_16  and  C_17 
REMARK    8  A    between atoms: C_24  and  N_25 
REMARK    9  A    between atoms: N_25  and  C_26 
ROOT
HETATM    1  C   UNL     1      41.578 -16.239   4.493  1.00  0.00     0.240 A 
HETATM    2  N   UNL     1      40.621 -15.859   3.665  1.00  0.00    -0.030 NA
HETATM    3  C   UNL     1      40.739 -16.244   2.397  1.00  0.00     0.745 A 
HETATM    4  N   UNL     1      41.751 -16.963   1.938  1.00  0.00     0.131 NA
HETATM    5  C   UNL     1      42.640 -17.356   2.843  1.00  0.00     0.745 A 
HETATM    6  N   UNL     1      42.615 -16.958   4.108  1.00  0.00    -0.030 NA
ENDROOT
BRANCH   1   7
HETATM    7  N   UNL     1      41.527 -15.822   5.825  1.00  0.00    -0.247 NA
HETATM    8  C   UNL     1      40.265 -15.199   6.252  1.00  0.00     0.126 C 
HETATM    9  C   UNL     1      40.173 -13.719   5.819  1.00  0.00     0.250 C 
HETATM   10  N   UNL     1      41.416 -12.964   6.266  1.00  0.00    -0.060 N 
HETATM   11  H   UNL     1      41.473 -13.005   7.299  1.00  0.00     0.280 HD
HETATM   12  C   UNL     1      42.703 -13.635   5.770  1.00  0.00     0.250 C 
HETATM   13  C   UNL     1      42.746 -15.108   6.242  1.00  0.00     0.126 C 
BRANCH  10  14
HETATM   14  C   UNL     1      41.359 -11.473   5.951  1.00  0.00     0.337 C 
BRANCH  14  15
HETATM   15  C   UNL     1      41.830 -10.658   7.159  1.00  0.00     0.248 C 
HETATM   16  N   UNL     1      41.906 -11.372   8.339  1.00  0.00    -0.325 N 
HETATM   17  H   UNL     1      41.315 -12.192   8.402  1.00  0.00     0.169 HD
HETATM   18  O   UNL     1      42.047  -9.456   6.998  1.00  0.00    -0.271 OA
BRANCH  16  19
HETATM   19  C   UNL     1      42.181 -10.752   9.585  1.00  0.00     0.047 A 
HETATM   20  C   UNL     1      41.184 -10.099  10.345  1.00  0.00    -0.031 A 
HETATM   21  C   UNL     1      41.538  -9.549  11.591  1.00  0.00     0.009 A 
HETATM   22  C   UNL     1      42.845  -9.611  12.064  1.00  0.00     0.001 A 
HETATM   23  C   UNL     1      43.833 -10.200  11.287  1.00  0.00     0.009 A 
HETATM   24  C   UNL     1      43.522 -10.766  10.041  1.00  0.00    -0.035 A 
HETATM   25  C   UNL     1      44.640 -11.404   9.259  1.00  0.00     0.050 C 
BRANCH  20  26
HETATM   26  C   UNL     1      39.784  -9.800   9.846  1.00  0.00     0.036 C 
HETATM   27  C   UNL     1      38.983  -8.993  10.860  1.00  0.00     0.010 C 
ENDBRANCH  20  26
ENDBRANCH  16  19
ENDBRANCH  14  15
ENDBRANCH  10  14
ENDBRANCH   1   7
BRANCH   3  28
HETATM   28  N   UNL     1      39.809 -15.813   1.453  1.00  0.00    -0.188 N 
HETATM   29  H   UNL     1      39.211 -16.576   1.167  1.00  0.00     0.184 HD
BRANCH  28  30
HETATM   30  C   UNL     1      39.351 -14.530   1.122  1.00  0.00     0.049 A 
HETATM   31  C   UNL     1      37.968 -14.293   1.101  1.00  0.00     0.030 A 
HETATM   32  C   UNL     1      37.454 -13.048   0.728  1.00  0.00     0.002 A 
HETATM   33  C   UNL     1      38.317 -12.018   0.365  1.00  0.00     0.000 A 
HETATM   34  C   UNL     1      39.692 -12.235   0.372  1.00  0.00     0.002 A 
HETATM   35  C   UNL     1      40.201 -13.485   0.738  1.00  0.00     0.030 A 
ENDBRANCH  28  30
ENDBRANCH   3  28
BRANCH   5  36
HETATM   36  N   UNL     1      43.664 -18.187   2.384  1.00  0.00    -0.188 N 
HETATM   37  H   UNL     1      43.945 -17.902   1.455  1.00  0.00     0.184 HD
BRANCH  36  38
HETATM   38  C   UNL     1      43.939 -19.536   2.675  1.00  0.00     0.049 A 
HETATM   39  C   UNL     1      44.569 -19.963   3.850  1.00  0.00     0.030 A 
HETATM   40  C   UNL     1      44.841 -21.317   4.076  1.00  0.00     0.002 A 
HETATM   41  C   UNL     1      44.506 -22.265   3.115  1.00  0.00     0.000 A 
HETATM   42  C   UNL     1      43.905 -21.860   1.928  1.00  0.00     0.002 A 
HETATM   43  C   UNL     1      43.629 -20.505   1.710  1.00  0.00     0.030 A 
ENDBRANCH  36  38
ENDBRANCH   5  36
TORSDOF 9
ENDMDL
MODEL 6
REMARK VINA RESULT:      -9.8      3.822      8.350
REMARK  9 active torsions:
REMARK  status: ('A' for Active; 'I' for Inactive)
REMARK    1  A    between atoms: C_2  and  C_3 
REMARK    2  A    between atoms: C_4  and  N_5 
REMARK       I    between atoms: N_5  and  C_6 
REMARK    3  A    between atoms: C_6  and  C_7 
REMARK    4  A    between atoms: C_7  and  N_8 
REMARK    5  A    between atoms: N_12  and  C_13 
REMARK    6  A    between atoms: C_15  and  N_16 
REMARK    7  A    between atoms: N_16  and  C_17 
REMARK    8  A    between atoms: C_24  and  N_25 
REMARK    9  A    between atoms: N_25  and  C_26 
ROOT
HETATM    1  C   UNL     1      42.117 -16.112   3.407  1.00  0.00     0.240 A 
HETATM    2  N   UNL     1      41.364 -15.879   2.346  1.00  0.00    -0.030 NA
HETATM    3  C   UNL     1      41.667 -16.549   1.238  1.00  0.00     0.745 A 
HETATM    4  N   UNL     1      42.669 -17.410   1.150  1.00  0.00     0.131 NA
HETATM    5  C   UNL     1      43.340 -17.635   2.274  1.00  0.00     0.745 A 
HETATM    6  N   UNL     1      43.129 -16.958   3.395  1.00  0.00    -0.030 NA
ENDROOT
BRANCH   1   7
HETATM    7  N   UNL     1      41.871 -15.400   4.583  1.00  0.00    -0.247 NA
HETATM    8  C   UNL     1      40.461 -15.081   4.854  1.00  0.00     0.126 C 
HETATM    9  C   UNL     1      39.978 -13.856   4.048  1.00  0.00     0.250 C 
HETATM   10  N   UNL     1      40.926 -12.684   4.257  1.00  0.00    -0.060 N 
HETATM   11  H   UNL     1      40.931 -12.440   5.263  1.00  0.00     0.280 HD
HETATM   12  C   UNL     1      42.378 -13.058   3.931  1.00  0.00     0.250 C 
HETATM   13  C   UNL     1      42.810 -14.281   4.774  1.00  0.00     0.126 C 
BRANCH  10  14
HETATM   14  C   UNL     1      40.466 -11.408   3.561  1.00  0.00     0.337 C 
BRANCH  14  15
HETATM   15  C   UNL     1      40.361 -11.636   2.051  1.00  0.00     0.248 C 
HETATM   16  N   UNL     1      39.068 -11.712   1.570  1.00  0.00    -0.325 N 
HETATM   17  H   UNL     1      38.361 -11.993   2.239  1.00  0.00     0.169 HD
HETATM   18  O   UNL     1      41.404 -11.780   1.412  1.00  0.00    -0.271 OA
BRANCH  16  19
HETATM   19  C   UNL     1      38.776 -12.063   0.227  1.00  0.00     0.047 A 
HETATM   20  C   UNL     1      38.962 -11.167  -0.849  1.00  0.00    -0.031 A 
HETATM   21  C   UNL     1      38.686 -11.614  -2.155  1.00  0.00     0.009 A 
HETATM   22  C   UNL     1      38.209 -12.899  -2.393  1.00  0.00     0.001 A 
HETATM   23  C   UNL     1      37.970 -13.756  -1.327  1.00  0.00     0.009 A 
HETATM   24  C   UNL     1      38.237 -13.351  -0.010  1.00  0.00    -0.035 A 
HETATM   25  C   UNL     1      37.972 -14.338   1.097  1.00  0.00     0.050 C 
BRANCH  20  26
HETATM   26  C   UNL     1      39.285  -9.694  -0.693  1.00  0.00     0.036 C 
HETATM   27  C   UNL     1      40.722  -9.385  -1.090  1.00  0.00     0.010 C 
ENDBRANCH  20  26
ENDBRANCH  16  19
ENDBRANCH  14  15
ENDBRANCH  10  14
ENDBRANCH   1   7
BRANCH   3  28
HETATM   28  N   UNL     1      40.967 -16.293   0.060  1.00  0.00    -0.188 N 
HETATM   29  H   UNL     1      40.025 -16.656   0.119  1.00  0.00     0.184 HD
BRANCH  28  30
HETATM   30  C   UNL     1      41.198 -15.375  -0.974  1.00  0.00     0.049 A 
HETATM   31  C   UNL     1      40.966 -15.779  -2.297  1.00  0.00     0.030 A 
HETATM   32  C   UNL     1      41.229 -14.922  -3.370  1.00  0.00     0.002 A 
HETATM   33  C   UNL     1      41.733 -13.647  -3.136  1.00  0.00     0.000 A 
HETATM   34  C   UNL     1      41.978 -13.230  -1.830  1.00  0.00     0.002 A 
HETATM   35  C   UNL     1      41.721 -14.093  -0.762  1.00  0.00     0.030 A 
ENDBRANCH  28  30
ENDBRANCH   3  28
BRANCH   5  36
HETATM   36  N   UNL     1      44.341 -18.606   2.212  1.00  0.00    -0.188 N 
HETATM   37  H   UNL     1      44.788 -18.580   1.304  1.00  0.00     0.184 HD
BRANCH  36  38
HETATM   38  C   UNL     1      44.443 -19.850   2.862  1.00  0.00     0.049 A 
HETATM   39  C   UNL     1      44.812 -19.995   4.205  1.00  0.00     0.030 A 
HETATM   40  C   UNL     1      44.922 -21.260   4.793  1.00  0.00     0.002 A 
HETATM   41  C   UNL     1      44.686 -22.404   4.038  1.00  0.00     0.000 A 
HETATM   42  C   UNL     1      44.346 -22.283   2.695  1.00  0.00     0.002 A 
HETATM   43  C   UNL     1      44.231 -21.016   2.112  1.00  0.00     0.030 A 
ENDBRANCH  36  38
ENDBRANCH   5  36
TORSDOF 9
ENDMDL
MODEL 7
REMARK VINA RESULT:      -9.8      3.802      6.625
REMARK  9 active torsions:
REMARK  status: ('A' for Active; 'I' for Inactive)
REMARK    1  A    between atoms: C_2  and  C_3 
REMARK    2  A    between atoms: C_4  and  N_5 
REMARK       I    between atoms: N_5  and  C_6 
REMARK    3  A    between atoms: C_6  and  C_7 
REMARK    4  A    between atoms: C_7  and  N_8 
REMARK    5  A    between atoms: N_12  and  C_13 
REMARK    6  A    between atoms: C_15  and  N_16 
REMARK    7  A    between atoms: N_16  and  C_17 
REMARK    8  A    between atoms: C_24  and  N_25 
REMARK    9  A    between atoms: N_25  and  C_26 
ROOT
HETATM    1  C   UNL     1      42.030 -16.086   3.460  1.00  0.00     0.240 A 
HETATM    2  N   UNL     1      43.062 -16.910   3.507  1.00  0.00    -0.030 NA
HETATM    3  C   UNL     1      43.329 -17.599   2.402  1.00  0.00     0.745 A 
HETATM    4  N   UNL     1      42.620 -17.505   1.287  1.00  0.00     0.131 NA
HETATM    5  C   UNL     1      41.638 -16.612   1.299  1.00  0.00     0.745 A 
HETATM    6  N   UNL     1      41.280 -15.938   2.385  1.00  0.00    -0.030 NA
ENDROOT
BRANCH   1   7
HETATM    7  N   UNL     1      41.678 -15.374   4.609  1.00  0.00    -0.247 NA
HETATM    8  C   UNL     1      40.252 -15.041   4.742  1.00  0.00     0.126 C 
HETATM    9  C   UNL     1      39.863 -13.808   3.898  1.00  0.00     0.250 C 
HETATM   10  N   UNL     1      40.799 -12.647   4.203  1.00  0.00    -0.060 N 
HETATM   11  H   UNL     1      40.708 -12.406   5.206  1.00  0.00     0.280 HD
HETATM   12  C   UNL     1      42.271 -13.036   4.019  1.00  0.00     0.250 C 
HETATM   13  C   UNL     1      42.606 -14.266   4.896  1.00  0.00     0.126 C 
BRANCH  10  14
HETATM   14  C   UNL     1      40.423 -11.364   3.471  1.00  0.00     0.337 C 
BRANCH  14  15
HETATM   15  C   UNL     1      40.349 -11.616   1.962  1.00  0.00     0.248 C 
HETATM   16  N   UNL     1      39.067 -11.651   1.448  1.00  0.00    -0.325 N 
HETATM   17  H   UNL     1      38.332 -11.892   2.102  1.00  0.00     0.169 HD
HETATM   18  O   UNL     1      41.402 -11.813   1.355  1.00  0.00    -0.271 OA
BRANCH  16  19
HETATM   19  C   UNL     1      38.797 -12.016   0.104  1.00  0.00     0.047 A 
HETATM   20  C   UNL     1      39.033 -11.143  -0.982  1.00  0.00    -0.031 A 
HETATM   21  C   UNL     1      38.776 -11.604  -2.287  1.00  0.00     0.009 A 
HETATM   22  C   UNL     1      38.270 -12.879  -2.516  1.00  0.00     0.001 A 
HETATM   23  C   UNL     1      37.984 -13.712  -1.443  1.00  0.00     0.009 A 
HETATM   24  C   UNL     1      38.230 -13.293  -0.126  1.00  0.00    -0.035 A 
HETATM   25  C   UNL     1      37.912 -14.254   0.989  1.00  0.00     0.050 C 
BRANCH  20  26
HETATM   26  C   UNL     1      39.392  -9.676  -0.841  1.00  0.00     0.036 C 
HETATM   27  C   UNL     1      40.844  -9.411  -1.217  1.00  0.00     0.010 C 
ENDBRANCH  20  26
ENDBRANCH  16  19
ENDBRANCH  14  15
ENDBRANCH  10  14
ENDBRANCH   1   7
BRANCH   3  28
HETATM   28  N   UNL     1      44.353 -18.545   2.404  1.00  0.00    -0.188 N 
HETATM   29  H   UNL     1      45.247 -18.103   2.240  1.00  0.00     0.184 HD
BRANCH  28  30
HETATM   30  C   UNL     1      44.407 -19.849   2.916  1.00  0.00     0.049 A 
HETATM   31  C   UNL     1      44.719 -20.028   4.271  1.00  0.00     0.030 A 
HETATM   32  C   UNL     1      44.838 -21.308   4.822  1.00  0.00     0.002 A 
HETATM   33  C   UNL     1      44.650 -22.430   4.022  1.00  0.00     0.000 A 
HETATM   34  C   UNL     1      44.348 -22.274   2.673  1.00  0.00     0.002 A 
HETATM   35  C   UNL     1      44.238 -20.993   2.125  1.00  0.00     0.030 A 
ENDBRANCH  28  30
ENDBRANCH   3  28
BRANCH   5  36
HETATM   36  N   UNL     1      40.940 -16.443   0.102  1.00  0.00    -0.188 N 
HETATM   37  H   UNL     1      40.519 -17.320  -0.175  1.00  0.00     0.184 HD
BRANCH  36  38
HETATM   38  C   UNL     1      41.171 -15.558  -0.967  1.00  0.00     0.049 A 
HETATM   39  C   UNL     1      40.943 -15.887  -2.309  1.00  0.00     0.030 A 
HETATM   40  C   UNL     1      41.215 -14.975  -3.335  1.00  0.00     0.002 A 
HETATM   41  C   UNL     1      41.743 -13.724  -3.034  1.00  0.00     0.000 A 
HETATM   42  C   UNL     1      42.004 -13.387  -1.710  1.00  0.00     0.002 A 
HETATM   43  C   UNL     1      41.725 -14.300  -0.688  1.00  0.00     0.030 A 
ENDBRANCH  36  38
ENDBRANCH   5  36
TORSDOF 9
ENDMDL
MODEL 8
REMARK VINA RESULT:      -9.8      2.617      9.523
REMARK  9 active torsions:
REMARK  status: ('A' for Active; 'I' for Inactive)
REMARK    1  A    between atoms: C_2  and  C_3 
REMARK    2  A    between atoms: C_4  and  N_5 
REMARK       I    between atoms: N_5  and  C_6 
REMARK    3  A    between atoms: C_6  and  C_7 
REMARK    4  A    between atoms: C_7  and  N_8 
REMARK    5  A    between atoms: N_12  and  C_13 
REMARK    6  A    between atoms: C_15  and  N_16 
REMARK    7  A    between atoms: N_16  and  C_17 
REMARK    8  A    between atoms: C_24  and  N_25 
REMARK    9  A    between atoms: N_25  and  C_26 
ROOT
HETATM    1  C   UNL     1      42.488 -14.451   5.490  1.00  0.00     0.240 A 
HETATM    2  N   UNL     1      43.395 -13.694   6.083  1.00  0.00    -0.030 NA
HETATM    3  C   UNL     1      44.369 -14.325   6.731  1.00  0.00     0.745 A 
HETATM    4  N   UNL     1      44.464 -15.643   6.815  1.00  0.00     0.131 NA
HETATM    5  C   UNL     1      43.550 -16.333   6.144  1.00  0.00     0.745 A 
HETATM    6  N   UNL     1      42.518 -15.769   5.529  1.00  0.00    -0.030 NA
ENDROOT
BRANCH   1   7
HETATM    7  N   UNL     1      41.416 -13.839   4.835  1.00  0.00    -0.247 NA
HETATM    8  C   UNL     1      40.445 -14.749   4.210  1.00  0.00     0.126 C 
HETATM    9  C   UNL     1      40.938 -15.274   2.844  1.00  0.00     0.250 C 
HETATM   10  N   UNL     1      41.355 -14.111   1.955  1.00  0.00    -0.060 N 
HETATM   11  H   UNL     1      40.532 -13.503   1.800  1.00  0.00     0.280 HD
HETATM   12  C   UNL     1      42.392 -13.211   2.640  1.00  0.00     0.250 C 
HETATM   13  C   UNL     1      41.840 -12.706   3.994  1.00  0.00     0.126 C 
BRANCH  10  14
HETATM   14  C   UNL     1      41.772 -14.546   0.554  1.00  0.00     0.337 C 
BRANCH  14  15
HETATM   15  C   UNL     1      41.379 -13.478  -0.471  1.00  0.00     0.248 C 
HETATM   16  N   UNL     1      42.300 -13.285  -1.482  1.00  0.00    -0.325 N 
HETATM   17  H   UNL     1      43.257 -13.544  -1.267  1.00  0.00     0.169 HD
HETATM   18  O   UNL     1      40.329 -12.859  -0.290  1.00  0.00    -0.271 OA
BRANCH  16  19
HETATM   19  C   UNL     1      42.176 -12.242  -2.435  1.00  0.00     0.047 A 
HETATM   20  C   UNL     1      42.803 -10.986  -2.272  1.00  0.00    -0.031 A 
HETATM   21  C   UNL     1      42.660 -10.023  -3.289  1.00  0.00     0.009 A 
HETATM   22  C   UNL     1      41.893 -10.277  -4.421  1.00  0.00     0.001 A 
HETATM   23  C   UNL     1      41.230 -11.490  -4.549  1.00  0.00     0.009 A 
HETATM   24  C   UNL     1      41.350 -12.479  -3.561  1.00  0.00    -0.035 A 
HETATM   25  C   UNL     1      40.617 -13.778  -3.772  1.00  0.00     0.050 C 
BRANCH  20  26
HETATM   26  C   UNL     1      43.493 -10.530  -1.001  1.00  0.00     0.036 C 
HETATM   27  C   UNL     1      44.057  -9.122  -1.138  1.00  0.00     0.010 C 
ENDBRANCH  20  26
ENDBRANCH  16  19
ENDBRANCH  14  15
ENDBRANCH  10  14
ENDBRANCH   1   7
BRANCH   3  28
HETATM   28  N   UNL     1      45.314 -13.591   7.446  1.00  0.00    -0.188 N 
HETATM   29  H   UNL     1      46.167 -13.491   6.912  1.00  0.00     0.184 HD
BRANCH  28  30
HETATM   30  C   UNL     1      45.180 -12.722   8.538  1.00  0.00     0.049 A 
HETATM   31  C   UNL     1      46.105 -11.678   8.686  1.00  0.00     0.030 A 
HETATM   32  C   UNL     1      46.049 -10.814   9.783  1.00  0.00     0.002 A 
HETATM   33  C   UNL     1      45.068 -10.984  10.755  1.00  0.00     0.000 A 
HETATM   34  C   UNL     1      44.146 -12.019  10.631  1.00  0.00     0.002 A 
HETATM   35  C   UNL     1      44.211 -12.885   9.536  1.00  0.00     0.030 A 
ENDBRANCH  28  30
ENDBRANCH   3  28
BRANCH   5  36
HETATM   36  N   UNL     1      43.692 -17.722   6.154  1.00  0.00    -0.188 N 
HETATM   37  H   UNL     1      43.981 -18.029   7.074  1.00  0.00     0.184 HD
BRANCH  36  38
HETATM   38  C   UNL     1      44.047 -18.607   5.120  1.00  0.00     0.049 A 
HETATM   39  C   UNL     1      43.719 -18.401   3.775  1.00  0.00     0.030 A 
HETATM   40  C   UNL     1      44.076 -19.329   2.790  1.00  0.00     0.002 A 
HETATM   41  C   UNL     1      44.748 -20.494   3.142  1.00  0.00     0.000 A 
HETATM   42  C   UNL     1      45.060 -20.734   4.476  1.00  0.00     0.002 A 
HETATM   43  C   UNL     1      44.706 -19.799   5.456  1.00  0.00     0.030 A 
ENDBRANCH  36  38
ENDBRANCH   5  36
TORSDOF 9
ENDMDL
MODEL 9
REMARK VINA RESULT:      -9.8      2.726      9.765
REMARK  9 active torsions:
REMARK  status: ('A' for Active; 'I' for Inactive)
REMARK    1  A    between atoms: C_2  and  C_3 
REMARK    2  A    between atoms: C_4  and  N_5 
REMARK       I    between atoms: N_5  and  C_6 
REMARK    3  A    between atoms: C_6  and  C_7 
REMARK    4  A    between atoms: C_7  and  N_8 
REMARK    5  A    between atoms: N_12  and  C_13 
REMARK    6  A    between atoms: C_15  and  N_16 
REMARK    7  A    between atoms: N_16  and  C_17 
REMARK    8  A    between atoms: C_24  and  N_25 
REMARK    9  A    between atoms: N_25  and  C_26 
ROOT
HETATM    1  C   UNL     1      42.506 -14.533   5.752  1.00  0.00     0.240 A 
HETATM    2  N   UNL     1      43.446 -13.730   6.217  1.00  0.00    -0.030 NA
HETATM    3  C   UNL     1      44.301 -14.252   7.092  1.00  0.00     0.745 A 
HETATM    4  N   UNL     1      44.247 -15.506   7.513  1.00  0.00     0.131 NA
HETATM    5  C   UNL     1      43.313 -16.266   6.954  1.00  0.00     0.745 A 
HETATM    6  N   UNL     1      42.393 -15.794   6.123  1.00  0.00    -0.030 NA
ENDROOT
BRANCH   1   7
HETATM    7  N   UNL     1      41.554 -14.022   4.866  1.00  0.00    -0.247 NA
HETATM    8  C   UNL     1      40.551 -14.982   4.382  1.00  0.00     0.126 C 
HETATM    9  C   UNL     1      41.096 -15.863   3.236  1.00  0.00     0.250 C 
HETATM   10  N   UNL     1      41.693 -14.989   2.143  1.00  0.00    -0.060 N 
HETATM   11  H   UNL     1      40.948 -14.377   1.765  1.00  0.00     0.280 HD
HETATM   12  C   UNL     1      42.756 -14.029   2.693  1.00  0.00     0.250 C 
HETATM   13  C   UNL     1      42.151 -13.166   3.826  1.00  0.00     0.126 C 
BRANCH  10  14
HETATM   14  C   UNL     1      42.175 -15.785   0.934  1.00  0.00     0.337 C 
BRANCH  14  15
HETATM   15  C   UNL     1      41.402 -15.364  -0.319  1.00  0.00     0.248 C 
HETATM   16  N   UNL     1      40.947 -14.060  -0.303  1.00  0.00    -0.325 N 
HETATM   17  H   UNL     1      40.815 -13.647   0.613  1.00  0.00     0.169 HD
HETATM   18  O   UNL     1      41.209 -16.211  -1.193  1.00  0.00    -0.271 OA
BRANCH  16  19
HETATM   19  C   UNL     1      40.091 -13.541  -1.308  1.00  0.00     0.047 A 
HETATM   20  C   UNL     1      40.576 -13.077  -2.552  1.00  0.00    -0.031 A 
HETATM   21  C   UNL     1      39.650 -12.617  -3.508  1.00  0.00     0.009 A 
HETATM   22  C   UNL     1      38.287 -12.585  -3.236  1.00  0.00     0.001 A 
HETATM   23  C   UNL     1      37.821 -12.985  -1.991  1.00  0.00     0.009 A 
HETATM   24  C   UNL     1      38.709 -13.455  -1.011  1.00  0.00    -0.035 A 
HETATM   25  C   UNL     1      38.133 -13.890   0.311  1.00  0.00     0.050 C 
BRANCH  20  26
HETATM   26  C   UNL     1      42.043 -12.881  -2.882  1.00  0.00     0.036 C 
HETATM   27  C   UNL     1      42.254 -11.735  -3.863  1.00  0.00     0.010 C 
ENDBRANCH  20  26
ENDBRANCH  16  19
ENDBRANCH  14  15
ENDBRANCH  10  14
ENDBRANCH   1   7
BRANCH   3  28
HETATM   28  N   UNL     1      45.268 -13.442   7.685  1.00  0.00    -0.188 N 
HETATM   29  H   UNL     1      46.034 -13.276   7.047  1.00  0.00     0.184 HD
BRANCH  28  30
HETATM   30  C   UNL     1      45.205 -12.584   8.792  1.00  0.00     0.049 A 
HETATM   31  C   UNL     1      44.213 -12.803   9.758  1.00  0.00     0.030 A 
HETATM   32  C   UNL     1      44.071 -11.947  10.855  1.00  0.00     0.002 A 
HETATM   33  C   UNL     1      44.919 -10.854  10.999  1.00  0.00     0.000 A 
HETATM   34  C   UNL     1      45.905 -10.614  10.046  1.00  0.00     0.002 A 
HETATM   35  C   UNL     1      46.037 -11.468   8.948  1.00  0.00     0.030 A 
ENDBRANCH  28  30
ENDBRANCH   3  28
BRANCH   5  36
HETATM   36  N   UNL     1      43.304 -17.611   7.327  1.00  0.00    -0.188 N 
HETATM   37  H   UNL     1      43.342 -17.687   8.335  1.00  0.00     0.184 HD
BRANCH  36  38
HETATM   38  C   UNL     1      43.792 -18.745   6.651  1.00  0.00     0.049 A 
HETATM   39  C   UNL     1      44.464 -18.687   5.424  1.00  0.00     0.030 A 
HETATM   40  C   UNL     1      44.905 -19.851   4.784  1.00  0.00     0.002 A 
HETATM   41  C   UNL     1      44.659 -21.096   5.352  1.00  0.00     0.000 A 
HETATM   42  C   UNL     1      43.968 -21.178   6.556  1.00  0.00     0.002 A 
HETATM   43  C   UNL     1      43.535 -20.012   7.196  1.00  0.00     0.030 A 
ENDBRANCH  36  38
ENDBRANCH   5  36
TORSDOF 9
ENDMDL
MODEL 10
REMARK VINA RESULT:      -9.7      2.335      6.108
REMARK  9 active torsions:
REMARK  status: ('A' for Active; 'I' for Inactive)
REMARK    1  A    between atoms: C_2  and  C_3 
REMARK    2  A    between atoms: C_4  and  N_5 
REMARK       I    between atoms: N_5  and  C_6 
REMARK    3  A    between atoms: C_6  and  C_7 
REMARK    4  A    between atoms: C_7  and  N_8 
REMARK    5  A    between atoms: N_12  and  C_13 
REMARK    6  A    between atoms: C_15  and  N_16 
REMARK    7  A    between atoms: N_16  and  C_17 
REMARK    8  A    between atoms: C_24  and  N_25 
REMARK    9  A    between atoms: N_25  and  C_26 
ROOT
HETATM    1  C   UNL     1      41.598 -14.254   3.319  1.00  0.00     0.240 A 
HETATM    2  N   UNL     1      40.533 -14.094   2.553  1.00  0.00    -0.030 NA
HETATM    3  C   UNL     1      39.866 -15.194   2.218  1.00  0.00     0.745 A 
HETATM    4  N   UNL     1      40.218 -16.412   2.599  1.00  0.00     0.131 NA
HETATM    5  C   UNL     1      41.262 -16.485   3.416  1.00  0.00     0.745 A 
HETATM    6  N   UNL     1      42.007 -15.435   3.739  1.00  0.00    -0.030 NA
ENDROOT
BRANCH   1   7
HETATM    7  N   UNL     1      42.362 -13.135   3.661  1.00  0.00    -0.247 NA
HETATM    8  C   UNL     1      43.101 -13.230   4.928  1.00  0.00     0.126 C 
HETATM    9  C   UNL     1      42.199 -12.947   6.149  1.00  0.00     0.250 C 
HETATM   10  N   UNL     1      41.461 -11.630   5.962  1.00  0.00    -0.060 N 
HETATM   11  H   UNL     1      42.160 -10.869   5.882  1.00  0.00     0.280 HD
HETATM   12  C   UNL     1      40.681 -11.593   4.642  1.00  0.00     0.250 C 
HETATM   13  C   UNL     1      41.635 -11.870   3.456  1.00  0.00     0.126 C 
BRANCH  10  14
HETATM   14  C   UNL     1      40.615 -11.238   7.168  1.00  0.00     0.337 C 
BRANCH  14  15
HETATM   15  C   UNL     1      41.495 -10.604   8.249  1.00  0.00     0.248 C 
HETATM   16  N   UNL     1      41.407 -11.209   9.488  1.00  0.00    -0.325 N 
HETATM   17  H   UNL     1      40.550 -11.715   9.677  1.00  0.00     0.169 HD
HETATM   18  O   UNL     1      42.151  -9.605   7.951  1.00  0.00    -0.271 OA
BRANCH  16  19
HETATM   19  C   UNL     1      42.036 -10.672  10.642  1.00  0.00     0.047 A 
HETATM   20  C   UNL     1      43.402 -10.886  10.931  1.00  0.00    -0.031 A 
HETATM   21  C   UNL     1      43.953 -10.280  12.076  1.00  0.00     0.009 A 
HETATM   22  C   UNL     1      43.172  -9.511  12.932  1.00  0.00     0.001 A 
HETATM   23  C   UNL     1      41.817  -9.353  12.677  1.00  0.00     0.009 A 
HETATM   24  C   UNL     1      41.229  -9.935  11.543  1.00  0.00    -0.035 A 
HETATM   25  C   UNL     1      39.757  -9.709  11.318  1.00  0.00     0.050 C 
BRANCH  20  26
HETATM   26  C   UNL     1      44.295 -11.859  10.185  1.00  0.00     0.036 C 
HETATM   27  C   UNL     1      45.549 -11.180   9.650  1.00  0.00     0.010 C 
ENDBRANCH  20  26
ENDBRANCH  16  19
ENDBRANCH  14  15
ENDBRANCH  10  14
ENDBRANCH   1   7
BRANCH   3  28
HETATM   28  N   UNL     1      38.780 -15.109   1.348  1.00  0.00    -0.188 N 
HETATM   29  H   UNL     1      38.102 -15.830   1.552  1.00  0.00     0.184 HD
BRANCH  28  30
HETATM   30  C   UNL     1      38.322 -14.059   0.539  1.00  0.00     0.049 A 
HETATM   31  C   UNL     1      38.836 -13.938  -0.761  1.00  0.00     0.030 A 
HETATM   32  C   UNL     1      38.454 -12.881  -1.592  1.00  0.00     0.002 A 
HETATM   33  C   UNL     1      37.554 -11.925  -1.134  1.00  0.00     0.000 A 
HETATM   34  C   UNL     1      37.039 -12.022   0.155  1.00  0.00     0.002 A 
HETATM   35  C   UNL     1      37.430 -13.076   0.986  1.00  0.00     0.030 A 
ENDBRANCH  28  30
ENDBRANCH   3  28
BRANCH   5  36
HETATM   36  N   UNL     1      41.588 -17.756   3.893  1.00  0.00    -0.188 N 
HETATM   37  H   UNL     1      41.255 -17.861   4.843  1.00  0.00     0.184 HD
BRANCH  36  38
HETATM   38  C   UNL     1      42.668 -18.599   3.571  1.00  0.00     0.049 A 
HETATM   39  C   UNL     1      42.836 -19.199   2.317  1.00  0.00     0.030 A 
HETATM   40  C   UNL     1      43.917 -20.050   2.061  1.00  0.00     0.002 A 
HETATM   41  C   UNL     1      44.836 -20.333   3.065  1.00  0.00     0.000 A 
HETATM   42  C   UNL     1      44.672 -19.769   4.326  1.00  0.00     0.002 A 
HETATM   43  C   UNL     1      43.594 -18.914   4.576  1.00  0.00     0.030 A 
ENDBRANCH  36  38
ENDBRANCH   5  36
TORSDOF 9
ENDMDL
