MODEL 1
REMARK VINA RESULT:      -8.5      0.000      0.000
REMARK  7 active torsions:
REMARK  status: ('A' for Active; 'I' for Inactive)
REMARK    1  A    between atoms: C_2  and  C_3 
REMARK    2  A    between atoms: C_3  and  C_4 
REMARK    3  A    between atoms: C_3  and  C_12 
REMARK    4  A    between atoms: C_7  and  O_8 
REMARK    5  A    between atoms: C_12  and  C_13 
REMARK       I    between atoms: C_13  and  N_14 
REMARK    6  A    between atoms: N_14  and  C_15 
REMARK    7  A    between atoms: C_22  and  C_23 
REMARK       I    between atoms: C_23  and  N_24 
ROOT
HETATM    1  C   UNL     1      43.738 -17.917   1.834  1.00  0.00     0.222 C 
HETATM    2  N   UNL     1      42.399 -17.966   1.465  1.00  0.00    -0.327 N 
HETATM    3  O   UNL     1      44.445 -16.921   1.793  1.00  0.00    -0.273 OA
HETATM    4  H   UNL     1      41.988 -18.885   1.365  1.00  0.00     0.169 HD
ENDROOT
BRANCH   2   5
HETATM    5  C   UNL     1      41.592 -16.875   1.076  1.00  0.00     0.035 A 
HETATM    6  C   UNL     1      41.618 -16.318  -0.211  1.00  0.00     0.046 A 
HETATM    7  C   UNL     1      40.781 -15.223  -0.514  1.00  0.00     0.030 A 
HETATM    8  C   UNL     1      39.939 -14.729   0.472  1.00  0.00     0.063 A 
HETATM    9  C   UNL     1      40.544 -14.397  -1.654  1.00  0.00     0.156 A 
HETATM   10  N   UNL     1      39.252 -13.706  -0.118  1.00  0.00    -0.277 N 
HETATM   11  C   UNL     1      39.893 -15.251   1.767  1.00  0.00     0.034 A 
HETATM   12  H   UNL     1      38.539 -13.121   0.304  1.00  0.00     0.189 HD
HETATM   13  N   UNL     1      39.592 -13.470  -1.396  1.00  0.00    -0.168 NA
HETATM   14  C   UNL     1      40.748 -16.325   2.050  1.00  0.00     0.032 A 
BRANCH   9  15
HETATM   15  C   UNL     1      41.206 -14.465  -2.964  1.00  0.00     0.270 C 
HETATM   16  N   UNL     1      42.428 -13.852  -3.006  1.00  0.00    -0.365 N 
HETATM   17  H   UNL     1      42.789 -13.430  -2.159  1.00  0.00     0.159 HD
HETATM   18  H   UNL     1      42.967 -13.877  -3.856  1.00  0.00     0.159 HD
HETATM   19  O   UNL     1      40.743 -15.023  -3.953  1.00  0.00    -0.266 OA
ENDBRANCH   9  15
ENDBRANCH   2   5
BRANCH   1  20
HETATM   20  C   UNL     1      44.250 -19.293   2.249  1.00  0.00     0.112 C 
BRANCH  20  21
HETATM   21  C   UNL     1      43.831 -19.841   3.630  1.00  0.00     0.027 C 
BRANCH  21  22
HETATM   22  C   UNL     1      44.518 -21.174   4.000  1.00  0.00     0.005 C 
HETATM   23  C   UNL     1      44.470 -22.197   2.871  1.00  0.00     0.006 C 
ENDBRANCH  21  22
BRANCH  21  24
HETATM   24  C   UNL     1      43.884 -18.795   4.735  1.00  0.00    -0.053 A 
HETATM   25  C   UNL     1      42.832 -17.904   4.976  1.00  0.00     0.010 A 
HETATM   26  C   UNL     1      42.930 -16.936   5.981  1.00  0.00     0.037 A 
HETATM   27  C   UNL     1      44.083 -16.823   6.755  1.00  0.00     0.068 A 
HETATM   28  C   UNL     1      45.134 -17.711   6.534  1.00  0.00     0.037 A 
HETATM   29  C   UNL     1      45.033 -18.688   5.536  1.00  0.00     0.010 A 
BRANCH  27  30
HETATM   30  O   UNL     1      44.057 -15.822   7.686  1.00  0.00    -0.356 OA
HETATM   31  C   UNL     1      44.427 -14.526   7.237  1.00  0.00     0.210 C 
ENDBRANCH  27  30
ENDBRANCH  21  24
ENDBRANCH  20  21
ENDBRANCH   1  20
TORSDOF 7
ENDMDL
MODEL 2
REMARK VINA RESULT:      -8.3      1.811      2.178
REMARK  7 active torsions:
REMARK  status: ('A' for Active; 'I' for Inactive)
REMARK    1  A    between atoms: C_2  and  C_3 
REMARK    2  A    between atoms: C_3  and  C_4 
REMARK    3  A    between atoms: C_3  and  C_12 
REMARK    4  A    between atoms: C_7  and  O_8 
REMARK    5  A    between atoms: C_12  and  C_13 
REMARK       I    between atoms: C_13  and  N_14 
REMARK    6  A    between atoms: N_14  and  C_15 
REMARK    7  A    between atoms: C_22  and  C_23 
REMARK       I    between atoms: C_23  and  N_24 
ROOT
HETATM    1  C   UNL     1      42.291 -17.330   1.071  1.00  0.00     0.222 C 
HETATM    2  N   UNL     1      42.587 -16.067   0.572  1.00  0.00    -0.327 N 
HETATM    3  O   UNL     1      41.165 -17.775   1.241  1.00  0.00    -0.273 OA
HETATM    4  H   UNL     1      43.545 -15.756   0.662  1.00  0.00     0.169 HD
ENDROOT
BRANCH   2   5
HETATM    5  C   UNL     1      41.664 -15.117   0.082  1.00  0.00     0.035 A 
HETATM    6  C   UNL     1      40.933 -15.294  -1.102  1.00  0.00     0.046 A 
HETATM    7  C   UNL     1      40.034 -14.291  -1.523  1.00  0.00     0.030 A 
HETATM    8  C   UNL     1      39.886 -13.152  -0.742  1.00  0.00     0.063 A 
HETATM    9  C   UNL     1      39.162 -14.095  -2.635  1.00  0.00     0.156 A 
HETATM   10  N   UNL     1      38.950 -12.393  -1.386  1.00  0.00    -0.277 N 
HETATM   11  C   UNL     1      40.605 -12.938   0.436  1.00  0.00     0.034 A 
HETATM   12  H   UNL     1      38.584 -11.493  -1.094  1.00  0.00     0.189 HD
HETATM   13  N   UNL     1      38.493 -12.922  -2.532  1.00  0.00    -0.168 NA
HETATM   14  C   UNL     1      41.506 -13.939   0.823  1.00  0.00     0.032 A 
BRANCH   9  15
HETATM   15  C   UNL     1      38.962 -14.987  -3.786  1.00  0.00     0.270 C 
HETATM   16  N   UNL     1      37.703 -14.939  -4.319  1.00  0.00    -0.365 N 
HETATM   17  H   UNL     1      37.028 -14.300  -3.915  1.00  0.00     0.159 HD
HETATM   18  H   UNL     1      37.486 -15.494  -5.131  1.00  0.00     0.159 HD
HETATM   19  O   UNL     1      39.824 -15.716  -4.264  1.00  0.00    -0.266 OA
ENDBRANCH   9  15
ENDBRANCH   2   5
BRANCH   1  20
HETATM   20  C   UNL     1      43.559 -18.090   1.446  1.00  0.00     0.112 C 
BRANCH  20  21
HETATM   21  C   UNL     1      43.418 -19.372   2.295  1.00  0.00     0.027 C 
BRANCH  21  22
HETATM   22  C   UNL     1      44.307 -20.537   1.809  1.00  0.00     0.005 C 
HETATM   23  C   UNL     1      43.548 -21.855   1.704  1.00  0.00     0.006 C 
ENDBRANCH  21  22
BRANCH  21  24
HETATM   24  C   UNL     1      43.506 -19.115   3.793  1.00  0.00    -0.053 A 
HETATM   25  C   UNL     1      42.565 -18.340   4.480  1.00  0.00     0.010 A 
HETATM   26  C   UNL     1      42.697 -18.101   5.851  1.00  0.00     0.037 A 
HETATM   27  C   UNL     1      43.778 -18.614   6.565  1.00  0.00     0.068 A 
HETATM   28  C   UNL     1      44.718 -19.396   5.898  1.00  0.00     0.037 A 
HETATM   29  C   UNL     1      44.581 -19.646   4.526  1.00  0.00     0.010 A 
BRANCH  27  30
HETATM   30  O   UNL     1      43.799 -18.288   7.893  1.00  0.00    -0.356 OA
HETATM   31  C   UNL     1      43.334 -16.989   8.236  1.00  0.00     0.210 C 
ENDBRANCH  27  30
ENDBRANCH  21  24
ENDBRANCH  20  21
ENDBRANCH   1  20
TORSDOF 7
ENDMDL
MODEL 3
REMARK VINA RESULT:      -8.2      1.776      3.918
REMARK  7 active torsions:
REMARK  status: ('A' for Active; 'I' for Inactive)
REMARK    1  A    between atoms: C_2  and  C_3 
REMARK    2  A    between atoms: C_3  and  C_4 
REMARK    3  A    between atoms: C_3  and  C_12 
REMARK    4  A    between atoms: C_7  and  O_8 
REMARK    5  A    between atoms: C_12  and  C_13 
REMARK       I    between atoms: C_13  and  N_14 
REMARK    6  A    between atoms: N_14  and  C_15 
REMARK    7  A    between atoms: C_22  and  C_23 
REMARK       I    between atoms: C_23  and  N_24 
ROOT
HETATM    1  C   UNL     1      41.418 -15.344   3.778  1.00  0.00     0.222 C 
HETATM    2  N   UNL     1      40.707 -15.931   2.739  1.00  0.00    -0.327 N 
HETATM    3  O   UNL     1      41.691 -14.155   3.863  1.00  0.00    -0.273 OA
HETATM    4  H   UNL     1      40.717 -16.941   2.695  1.00  0.00     0.169 HD
ENDROOT
BRANCH   2   5
HETATM    5  C   UNL     1      40.090 -15.264   1.657  1.00  0.00     0.035 A 
HETATM    6  C   UNL     1      40.690 -15.122   0.398  1.00  0.00     0.046 A 
HETATM    7  C   UNL     1      40.006 -14.435  -0.628  1.00  0.00     0.030 A 
HETATM    8  C   UNL     1      38.742 -13.924  -0.365  1.00  0.00     0.063 A 
HETATM    9  C   UNL     1      40.278 -14.075  -1.982  1.00  0.00     0.156 A 
HETATM   10  N   UNL     1      38.336 -13.346  -1.534  1.00  0.00    -0.277 N 
HETATM   11  C   UNL     1      38.118 -14.037   0.880  1.00  0.00     0.034 A 
HETATM   12  H   UNL     1      37.454 -12.881  -1.715  1.00  0.00     0.189 HD
HETATM   13  N   UNL     1      39.235 -13.410  -2.530  1.00  0.00    -0.168 NA
HETATM   14  C   UNL     1      38.826 -14.706   1.888  1.00  0.00     0.032 A 
BRANCH   9  15
HETATM   15  C   UNL     1      41.503 -14.340  -2.751  1.00  0.00     0.270 C 
HETATM   16  N   UNL     1      42.554 -13.527  -2.426  1.00  0.00    -0.365 N 
HETATM   17  H   UNL     1      42.429 -12.841  -1.691  1.00  0.00     0.159 HD
HETATM   18  H   UNL     1      43.442 -13.659  -2.881  1.00  0.00     0.159 HD
HETATM   19  O   UNL     1      41.616 -15.210  -3.606  1.00  0.00    -0.266 OA
ENDBRANCH   9  15
ENDBRANCH   2   5
BRANCH   1  20
HETATM   20  C   UNL     1      41.880 -16.385   4.793  1.00  0.00     0.112 C 
BRANCH  20  21
HETATM   21  C   UNL     1      43.391 -16.684   4.895  1.00  0.00     0.027 C 
BRANCH  21  22
HETATM   22  C   UNL     1      43.973 -16.451   6.306  1.00  0.00     0.005 C 
HETATM   23  C   UNL     1      44.185 -14.974   6.622  1.00  0.00     0.006 C 
ENDBRANCH  21  22
BRANCH  21  24
HETATM   24  C   UNL     1      43.784 -18.021   4.282  1.00  0.00    -0.053 A 
HETATM   25  C   UNL     1      43.389 -18.402   2.994  1.00  0.00     0.010 A 
HETATM   26  C   UNL     1      43.744 -19.651   2.476  1.00  0.00     0.037 A 
HETATM   27  C   UNL     1      44.485 -20.555   3.236  1.00  0.00     0.068 A 
HETATM   28  C   UNL     1      44.895 -20.186   4.514  1.00  0.00     0.037 A 
HETATM   29  C   UNL     1      44.550 -18.930   5.030  1.00  0.00     0.010 A 
BRANCH  27  30
HETATM   30  O   UNL     1      44.744 -21.748   2.620  1.00  0.00    -0.356 OA
HETATM   31  C   UNL     1      44.062 -21.995   1.398  1.00  0.00     0.210 C 
ENDBRANCH  27  30
ENDBRANCH  21  24
ENDBRANCH  20  21
ENDBRANCH   1  20
TORSDOF 7
ENDMDL
MODEL 4
REMARK VINA RESULT:      -8.0      3.043      9.220
REMARK  7 active torsions:
REMARK  status: ('A' for Active; 'I' for Inactive)
REMARK    1  A    between atoms: C_2  and  C_3 
REMARK    2  A    between atoms: C_3  and  C_4 
REMARK    3  A    between atoms: C_3  and  C_12 
REMARK    4  A    between atoms: C_7  and  O_8 
REMARK    5  A    between atoms: C_12  and  C_13 
REMARK       I    between atoms: C_13  and  N_14 
REMARK    6  A    between atoms: N_14  and  C_15 
REMARK    7  A    between atoms: C_22  and  C_23 
REMARK       I    between atoms: C_23  and  N_24 
ROOT
HETATM    1  C   UNL     1      41.549 -16.462   0.370  1.00  0.00     0.222 C 
HETATM    2  N   UNL     1      42.778 -17.082   0.564  1.00  0.00    -0.327 N 
HETATM    3  O   UNL     1      40.655 -16.394   1.200  1.00  0.00    -0.273 OA
HETATM    4  H   UNL     1      43.346 -17.233  -0.259  1.00  0.00     0.169 HD
ENDROOT
BRANCH   2   5
HETATM    5  C   UNL     1      43.255 -17.651   1.766  1.00  0.00     0.035 A 
HETATM    6  C   UNL     1      43.597 -19.005   1.894  1.00  0.00     0.046 A 
HETATM    7  C   UNL     1      44.060 -19.492   3.134  1.00  0.00     0.030 A 
HETATM    8  C   UNL     1      44.178 -18.610   4.200  1.00  0.00     0.063 A 
HETATM    9  C   UNL     1      44.469 -20.758   3.652  1.00  0.00     0.156 A 
HETATM   10  N   UNL     1      44.663 -19.359   5.236  1.00  0.00    -0.277 N 
HETATM   11  C   UNL     1      43.837 -17.259   4.112  1.00  0.00     0.034 A 
HETATM   12  H   UNL     1      44.883 -19.040   6.173  1.00  0.00     0.189 HD
HETATM   13  N   UNL     1      44.846 -20.658   4.948  1.00  0.00    -0.168 NA
HETATM   14  C   UNL     1      43.361 -16.802   2.876  1.00  0.00     0.032 A 
BRANCH   9  15
HETATM   15  C   UNL     1      44.498 -22.048   2.948  1.00  0.00     0.270 C 
HETATM   16  N   UNL     1      44.746 -23.122   3.758  1.00  0.00    -0.365 N 
HETATM   17  H   UNL     1      44.866 -22.964   4.751  1.00  0.00     0.159 HD
HETATM   18  H   UNL     1      44.753 -24.049   3.365  1.00  0.00     0.159 HD
HETATM   19  O   UNL     1      44.310 -22.192   1.745  1.00  0.00    -0.266 OA
ENDBRANCH   9  15
ENDBRANCH   2   5
BRANCH   1  20
HETATM   20  C   UNL     1      41.421 -15.917  -1.049  1.00  0.00     0.112 C 
BRANCH  20  21
HETATM   21  C   UNL     1      40.688 -14.574  -1.251  1.00  0.00     0.027 C 
BRANCH  21  22
HETATM   22  C   UNL     1      41.640 -13.369  -1.414  1.00  0.00     0.005 C 
HETATM   23  C   UNL     1      41.620 -12.433  -0.209  1.00  0.00     0.006 C 
ENDBRANCH  21  22
BRANCH  21  24
HETATM   24  C   UNL     1      39.592 -14.637  -2.306  1.00  0.00    -0.053 A 
HETATM   25  C   UNL     1      38.532 -13.724  -2.343  1.00  0.00     0.010 A 
HETATM   26  C   UNL     1      37.527 -13.833  -3.310  1.00  0.00     0.037 A 
HETATM   27  C   UNL     1      37.545 -14.864  -4.247  1.00  0.00     0.068 A 
HETATM   28  C   UNL     1      38.600 -15.773  -4.229  1.00  0.00     0.037 A 
HETATM   29  C   UNL     1      39.614 -15.659  -3.269  1.00  0.00     0.010 A 
BRANCH  27  30
HETATM   30  O   UNL     1      36.493 -14.868  -5.120  1.00  0.00    -0.356 OA
HETATM   31  C   UNL     1      35.387 -14.039  -4.788  1.00  0.00     0.210 C 
ENDBRANCH  27  30
ENDBRANCH  21  24
ENDBRANCH  20  21
ENDBRANCH   1  20
TORSDOF 7
ENDMDL
MODEL 5
REMARK VINA RESULT:      -7.7      2.301      4.385
REMARK  7 active torsions:
REMARK  status: ('A' for Active; 'I' for Inactive)
REMARK    1  A    between atoms: C_2  and  C_3 
REMARK    2  A    between atoms: C_3  and  C_4 
REMARK    3  A    between atoms: C_3  and  C_12 
REMARK    4  A    between atoms: C_7  and  O_8 
REMARK    5  A    between atoms: C_12  and  C_13 
REMARK       I    between atoms: C_13  and  N_14 
REMARK    6  A    between atoms: N_14  and  C_15 
REMARK    7  A    between atoms: C_22  and  C_23 
REMARK       I    between atoms: C_23  and  N_24 
ROOT
HETATM    1  C   UNL     1      40.641 -15.194   2.746  1.00  0.00     0.222 C 
HETATM    2  N   UNL     1      41.446 -15.123   1.616  1.00  0.00    -0.327 N 
HETATM    3  O   UNL     1      39.640 -14.520   2.943  1.00  0.00    -0.273 OA
HETATM    4  H   UNL     1      42.341 -15.592   1.665  1.00  0.00     0.169 HD
ENDROOT
BRANCH   2   5
HETATM    5  C   UNL     1      41.209 -14.347   0.460  1.00  0.00     0.035 A 
HETATM    6  C   UNL     1      40.484 -14.816  -0.646  1.00  0.00     0.046 A 
HETATM    7  C   UNL     1      40.298 -13.977  -1.764  1.00  0.00     0.030 A 
HETATM    8  C   UNL     1      40.830 -12.694  -1.737  1.00  0.00     0.063 A 
HETATM    9  C   UNL     1      39.666 -14.089  -3.039  1.00  0.00     0.156 A 
HETATM   10  N   UNL     1      40.472 -12.129  -2.928  1.00  0.00    -0.277 N 
HETATM   11  C   UNL     1      41.566 -12.198  -0.658  1.00  0.00     0.034 A 
HETATM   12  H   UNL     1      40.680 -11.191  -3.250  1.00  0.00     0.189 HD
HETATM   13  N   UNL     1      39.776 -12.939  -3.743  1.00  0.00    -0.168 NA
HETATM   14  C   UNL     1      41.755 -13.057   0.432  1.00  0.00     0.032 A 
BRANCH   9  15
HETATM   15  C   UNL     1      38.978 -15.262  -3.598  1.00  0.00     0.270 C 
HETATM   16  N   UNL     1      37.730 -15.478  -3.080  1.00  0.00    -0.365 N 
HETATM   17  H   UNL     1      37.371 -14.827  -2.391  1.00  0.00     0.159 HD
HETATM   18  H   UNL     1      37.173 -16.241  -3.428  1.00  0.00     0.159 HD
HETATM   19  O   UNL     1      39.441 -15.999  -4.461  1.00  0.00    -0.266 OA
ENDBRANCH   9  15
ENDBRANCH   2   5
BRANCH   1  20
HETATM   20  C   UNL     1      41.195 -16.188   3.762  1.00  0.00     0.112 C 
BRANCH  20  21
HETATM   21  C   UNL     1      42.726 -16.279   3.933  1.00  0.00     0.027 C 
BRANCH  21  22
HETATM   22  C   UNL     1      43.234 -15.701   5.271  1.00  0.00     0.005 C 
HETATM   23  C   UNL     1      43.702 -14.255   5.151  1.00  0.00     0.006 C 
ENDBRANCH  21  22
BRANCH  21  24
HETATM   24  C   UNL     1      43.289 -17.656   3.605  1.00  0.00    -0.053 A 
HETATM   25  C   UNL     1      43.078 -18.279   2.370  1.00  0.00     0.010 A 
HETATM   26  C   UNL     1      43.585 -19.558   2.117  1.00  0.00     0.037 A 
HETATM   27  C   UNL     1      44.297 -20.250   3.094  1.00  0.00     0.068 A 
HETATM   28  C   UNL     1      44.525 -19.638   4.324  1.00  0.00     0.037 A 
HETATM   29  C   UNL     1      44.028 -18.353   4.575  1.00  0.00     0.010 A 
BRANCH  27  30
HETATM   30  O   UNL     1      44.717 -21.498   2.725  1.00  0.00    -0.356 OA
HETATM   31  C   UNL     1      44.143 -22.039   1.543  1.00  0.00     0.210 C 
ENDBRANCH  27  30
ENDBRANCH  21  24
ENDBRANCH  20  21
ENDBRANCH   1  20
TORSDOF 7
ENDMDL
MODEL 6
REMARK VINA RESULT:      -7.5      2.832      9.130
REMARK  7 active torsions:
REMARK  status: ('A' for Active; 'I' for Inactive)
REMARK    1  A    between atoms: C_2  and  C_3 
REMARK    2  A    between atoms: C_3  and  C_4 
REMARK    3  A    between atoms: C_3  and  C_12 
REMARK    4  A    between atoms: C_7  and  O_8 
REMARK    5  A    between atoms: C_12  and  C_13 
REMARK       I    between atoms: C_13  and  N_14 
REMARK    6  A    between atoms: N_14  and  C_15 
REMARK    7  A    between atoms: C_22  and  C_23 
REMARK       I    between atoms: C_23  and  N_24 
ROOT
HETATM    1  C   UNL     1      41.740 -16.130   1.009  1.00  0.00     0.222 C 
HETATM    2  N   UNL     1      43.034 -16.515   1.340  1.00  0.00    -0.327 N 
HETATM    3  O   UNL     1      40.719 -16.618   1.472  1.00  0.00    -0.273 OA
HETATM    4  H   UNL     1      43.777 -16.167   0.749  1.00  0.00     0.169 HD
ENDROOT
BRANCH   2   5
HETATM    5  C   UNL     1      43.408 -17.453   2.327  1.00  0.00     0.035 A 
HETATM    6  C   UNL     1      43.413 -17.165   3.700  1.00  0.00     0.046 A 
HETATM    7  C   UNL     1      43.806 -18.160   4.620  1.00  0.00     0.030 A 
HETATM    8  C   UNL     1      44.168 -19.412   4.140  1.00  0.00     0.063 A 
HETATM    9  C   UNL     1      43.961 -18.246   6.036  1.00  0.00     0.156 A 
HETATM   10  N   UNL     1      44.470 -20.150   5.250  1.00  0.00    -0.277 N 
HETATM   11  C   UNL     1      44.185 -19.731   2.780  1.00  0.00     0.034 A 
HETATM   12  H   UNL     1      44.765 -21.119   5.280  1.00  0.00     0.189 HD
HETATM   13  N   UNL     1      44.364 -19.483   6.410  1.00  0.00    -0.168 NA
HETATM   14  C   UNL     1      43.810 -18.720   1.885  1.00  0.00     0.032 A 
BRANCH   9  15
HETATM   15  C   UNL     1      43.745 -17.182   7.028  1.00  0.00     0.270 C 
HETATM   16  N   UNL     1      43.142 -17.606   8.181  1.00  0.00    -0.365 N 
HETATM   17  H   UNL     1      42.916 -18.589   8.277  1.00  0.00     0.159 HD
HETATM   18  H   UNL     1      42.984 -16.950   8.928  1.00  0.00     0.159 HD
HETATM   19  O   UNL     1      44.073 -16.011   6.879  1.00  0.00    -0.266 OA
ENDBRANCH   9  15
ENDBRANCH   2   5
BRANCH   1  20
HETATM   20  C   UNL     1      41.741 -15.046  -0.064  1.00  0.00     0.112 C 
BRANCH  20  21
HETATM   21  C   UNL     1      40.515 -14.113  -0.160  1.00  0.00     0.027 C 
BRANCH  21  22
HETATM   22  C   UNL     1      40.849 -12.626   0.086  1.00  0.00     0.005 C 
HETATM   23  C   UNL     1      42.081 -12.434   0.965  1.00  0.00     0.006 C 
ENDBRANCH  21  22
BRANCH  21  24
HETATM   24  C   UNL     1      39.668 -14.355  -1.402  1.00  0.00    -0.053 A 
HETATM   25  C   UNL     1      38.370 -13.849  -1.536  1.00  0.00     0.010 A 
HETATM   26  C   UNL     1      37.612 -14.118  -2.680  1.00  0.00     0.037 A 
HETATM   27  C   UNL     1      38.122 -14.911  -3.706  1.00  0.00     0.068 A 
HETATM   28  C   UNL     1      39.416 -15.413  -3.591  1.00  0.00     0.037 A 
HETATM   29  C   UNL     1      40.182 -15.134  -2.451  1.00  0.00     0.010 A 
BRANCH  27  30
HETATM   30  O   UNL     1      37.270 -15.115  -4.755  1.00  0.00    -0.356 OA
HETATM   31  C   UNL     1      36.075 -14.344  -4.764  1.00  0.00     0.210 C 
ENDBRANCH  27  30
ENDBRANCH  21  24
ENDBRANCH  20  21
ENDBRANCH   1  20
TORSDOF 7
ENDMDL
MODEL 7
REMARK VINA RESULT:      -7.4      2.709      7.285
REMARK  7 active torsions:
REMARK  status: ('A' for Active; 'I' for Inactive)
REMARK    1  A    between atoms: C_2  and  C_3 
REMARK    2  A    between atoms: C_3  and  C_4 
REMARK    3  A    between atoms: C_3  and  C_12 
REMARK    4  A    between atoms: C_7  and  O_8 
REMARK    5  A    between atoms: C_12  and  C_13 
REMARK       I    between atoms: C_13  and  N_14 
REMARK    6  A    between atoms: N_14  and  C_15 
REMARK    7  A    between atoms: C_22  and  C_23 
REMARK       I    between atoms: C_23  and  N_24 
ROOT
HETATM    1  C   UNL     1      41.530 -16.809   0.921  1.00  0.00     0.222 C 
HETATM    2  N   UNL     1      42.854 -17.102   1.224  1.00  0.00    -0.327 N 
HETATM    3  O   UNL     1      40.558 -17.406   1.360  1.00  0.00    -0.273 OA
HETATM    4  H   UNL     1      43.561 -16.661   0.650  1.00  0.00     0.169 HD
ENDROOT
BRANCH   2   5
HETATM    5  C   UNL     1      43.314 -18.059   2.155  1.00  0.00     0.035 A 
HETATM    6  C   UNL     1      43.439 -17.799   3.528  1.00  0.00     0.046 A 
HETATM    7  C   UNL     1      43.912 -18.811   4.389  1.00  0.00     0.030 A 
HETATM    8  C   UNL     1      44.231 -20.052   3.855  1.00  0.00     0.063 A 
HETATM    9  C   UNL     1      44.191 -18.925   5.785  1.00  0.00     0.156 A 
HETATM   10  N   UNL     1      44.630 -20.812   4.918  1.00  0.00    -0.277 N 
HETATM   11  C   UNL     1      44.128 -20.344   2.493  1.00  0.00     0.034 A 
HETATM   12  H   UNL     1      44.926 -21.781   4.904  1.00  0.00     0.189 HD
HETATM   13  N   UNL     1      44.625 -20.168   6.097  1.00  0.00    -0.168 NA
HETATM   14  C   UNL     1      43.676 -19.317   1.654  1.00  0.00     0.032 A 
BRANCH   9  15
HETATM   15  C   UNL     1      44.063 -17.882   6.813  1.00  0.00     0.270 C 
HETATM   16  N   UNL     1      43.170 -18.181   7.805  1.00  0.00    -0.365 N 
HETATM   17  H   UNL     1      42.694 -19.075   7.777  1.00  0.00     0.159 HD
HETATM   18  H   UNL     1      43.041 -17.537   8.568  1.00  0.00     0.159 HD
HETATM   19  O   UNL     1      44.691 -16.830   6.823  1.00  0.00    -0.266 OA
ENDBRANCH   9  15
ENDBRANCH   2   5
BRANCH   1  20
HETATM   20  C   UNL     1      41.431 -15.672  -0.091  1.00  0.00     0.112 C 
BRANCH  20  21
HETATM   21  C   UNL     1      40.855 -14.321   0.385  1.00  0.00     0.027 C 
BRANCH  21  22
HETATM   22  C   UNL     1      39.368 -14.120   0.023  1.00  0.00     0.005 C 
HETATM   23  C   UNL     1      39.156 -13.029  -1.021  1.00  0.00     0.006 C 
ENDBRANCH  21  22
BRANCH  21  24
HETATM   24  C   UNL     1      41.181 -14.006   1.839  1.00  0.00    -0.053 A 
HETATM   25  C   UNL     1      42.457 -13.608   2.254  1.00  0.00     0.010 A 
HETATM   26  C   UNL     1      42.725 -13.357   3.603  1.00  0.00     0.037 A 
HETATM   27  C   UNL     1      41.734 -13.513   4.571  1.00  0.00     0.068 A 
HETATM   28  C   UNL     1      40.456 -13.897   4.171  1.00  0.00     0.037 A 
HETATM   29  C   UNL     1      40.183 -14.138   2.818  1.00  0.00     0.010 A 
BRANCH  27  30
HETATM   30  O   UNL     1      42.134 -13.257   5.852  1.00  0.00    -0.356 OA
HETATM   31  C   UNL     1      43.456 -13.650   6.197  1.00  0.00     0.210 C 
ENDBRANCH  27  30
ENDBRANCH  21  24
ENDBRANCH  20  21
ENDBRANCH   1  20
TORSDOF 7
ENDMDL
MODEL 8
REMARK VINA RESULT:      -7.4      3.145      8.228
REMARK  7 active torsions:
REMARK  status: ('A' for Active; 'I' for Inactive)
REMARK    1  A    between atoms: C_2  and  C_3 
REMARK    2  A    between atoms: C_3  and  C_4 
REMARK    3  A    between atoms: C_3  and  C_12 
REMARK    4  A    between atoms: C_7  and  O_8 
REMARK    5  A    between atoms: C_12  and  C_13 
REMARK       I    between atoms: C_13  and  N_14 
REMARK    6  A    between atoms: N_14  and  C_15 
REMARK    7  A    between atoms: C_22  and  C_23 
REMARK       I    between atoms: C_23  and  N_24 
ROOT
HETATM    1  C   UNL     1      41.518 -17.000   0.669  1.00  0.00     0.222 C 
HETATM    2  N   UNL     1      42.801 -16.990   1.204  1.00  0.00    -0.327 N 
HETATM    3  O   UNL     1      40.630 -17.781   0.981  1.00  0.00    -0.273 OA
HETATM    4  H   UNL     1      43.488 -16.423   0.726  1.00  0.00     0.169 HD
ENDROOT
BRANCH   2   5
HETATM    5  C   UNL     1      43.280 -17.798   2.259  1.00  0.00     0.035 A 
HETATM    6  C   UNL     1      43.250 -17.404   3.605  1.00  0.00     0.046 A 
HETATM    7  C   UNL     1      43.755 -18.270   4.597  1.00  0.00     0.030 A 
HETATM    8  C   UNL     1      44.261 -19.506   4.214  1.00  0.00     0.063 A 
HETATM    9  C   UNL     1      43.917 -18.226   6.015  1.00  0.00     0.156 A 
HETATM   10  N   UNL     1      44.646 -20.114   5.376  1.00  0.00    -0.277 N 
HETATM   11  C   UNL     1      44.317 -19.927   2.884  1.00  0.00     0.034 A 
HETATM   12  H   UNL     1      45.052 -21.037   5.480  1.00  0.00     0.189 HD
HETATM   13  N   UNL     1      44.461 -19.374   6.481  1.00  0.00    -0.168 NA
HETATM   14  C   UNL     1      43.828 -19.041   1.915  1.00  0.00     0.032 A 
BRANCH   9  15
HETATM   15  C   UNL     1      43.578 -17.120   6.921  1.00  0.00     0.270 C 
HETATM   16  N   UNL     1      43.090 -17.521   8.135  1.00  0.00    -0.365 N 
HETATM   17  H   UNL     1      43.021 -18.513   8.327  1.00  0.00     0.159 HD
HETATM   18  H   UNL     1      42.861 -16.830   8.831  1.00  0.00     0.159 HD
HETATM   19  O   UNL     1      43.716 -15.931   6.656  1.00  0.00    -0.266 OA
ENDBRANCH   9  15
ENDBRANCH   2   5
BRANCH   1  20
HETATM   20  C   UNL     1      41.361 -15.940  -0.417  1.00  0.00     0.112 C 
BRANCH  20  21
HETATM   21  C   UNL     1      40.713 -14.593  -0.033  1.00  0.00     0.027 C 
BRANCH  21  22
HETATM   22  C   UNL     1      40.241 -14.530   1.436  1.00  0.00     0.005 C 
HETATM   23  C   UNL     1      38.722 -14.557   1.570  1.00  0.00     0.006 C 
ENDBRANCH  21  22
BRANCH  21  24
HETATM   24  C   UNL     1      41.531 -13.385  -0.468  1.00  0.00    -0.053 A 
HETATM   25  C   UNL     1      41.710 -12.265   0.352  1.00  0.00     0.010 A 
HETATM   26  C   UNL     1      42.443 -11.161  -0.094  1.00  0.00     0.037 A 
HETATM   27  C   UNL     1      42.999 -11.140  -1.372  1.00  0.00     0.068 A 
HETATM   28  C   UNL     1      42.839 -12.252  -2.195  1.00  0.00     0.037 A 
HETATM   29  C   UNL     1      42.114 -13.364  -1.745  1.00  0.00     0.010 A 
BRANCH  27  30
HETATM   30  O   UNL     1      43.671  -9.993  -1.690  1.00  0.00    -0.356 OA
HETATM   31  C   UNL     1      43.610  -8.936  -0.742  1.00  0.00     0.210 C 
ENDBRANCH  27  30
ENDBRANCH  21  24
ENDBRANCH  20  21
ENDBRANCH   1  20
TORSDOF 7
ENDMDL
MODEL 9
REMARK VINA RESULT:      -7.4      3.418      6.772
REMARK  7 active torsions:
REMARK  status: ('A' for Active; 'I' for Inactive)
REMARK    1  A    between atoms: C_2  and  C_3 
REMARK    2  A    between atoms: C_3  and  C_4 
REMARK    3  A    between atoms: C_3  and  C_12 
REMARK    4  A    between atoms: C_7  and  O_8 
REMARK    5  A    between atoms: C_12  and  C_13 
REMARK       I    between atoms: C_13  and  N_14 
REMARK    6  A    between atoms: N_14  and  C_15 
REMARK    7  A    between atoms: C_22  and  C_23 
REMARK       I    between atoms: C_23  and  N_24 
ROOT
HETATM    1  C   UNL     1      43.810 -18.639   5.300  1.00  0.00     0.222 C 
HETATM    2  N   UNL     1      44.331 -17.379   5.030  1.00  0.00    -0.327 N 
HETATM    3  O   UNL     1      42.811 -18.860   5.970  1.00  0.00    -0.273 OA
HETATM    4  H   UNL     1      45.260 -17.348   4.630  1.00  0.00     0.169 HD
ENDROOT
BRANCH   2   5
HETATM    5  C   UNL     1      43.762 -16.137   5.387  1.00  0.00     0.035 A 
HETATM    6  C   UNL     1      44.313 -15.288   6.357  1.00  0.00     0.046 A 
HETATM    7  C   UNL     1      43.676 -14.065   6.657  1.00  0.00     0.030 A 
HETATM    8  C   UNL     1      42.518 -13.726   5.970  1.00  0.00     0.063 A 
HETATM    9  C   UNL     1      43.903 -12.983   7.560  1.00  0.00     0.156 A 
HETATM   10  N   UNL     1      42.156 -12.501   6.456  1.00  0.00    -0.277 N 
HETATM   11  C   UNL     1      41.934 -14.552   5.006  1.00  0.00     0.034 A 
HETATM   12  H   UNL     1      41.360 -11.940   6.174  1.00  0.00     0.189 HD
HETATM   13  N   UNL     1      42.961 -12.022   7.418  1.00  0.00    -0.168 NA
HETATM   14  C   UNL     1      42.574 -15.769   4.740  1.00  0.00     0.032 A 
BRANCH   9  15
HETATM   15  C   UNL     1      44.981 -12.853   8.551  1.00  0.00     0.270 C 
HETATM   16  N   UNL     1      46.212 -12.601   8.009  1.00  0.00    -0.365 N 
HETATM   17  H   UNL     1      46.288 -12.502   7.003  1.00  0.00     0.159 HD
HETATM   18  H   UNL     1      47.003 -12.466   8.616  1.00  0.00     0.159 HD
HETATM   19  O   UNL     1      44.830 -12.943   9.764  1.00  0.00    -0.266 OA
ENDBRANCH   9  15
ENDBRANCH   2   5
BRANCH   1  20
HETATM   20  C   UNL     1      44.679 -19.740   4.701  1.00  0.00     0.112 C 
BRANCH  20  21
HETATM   21  C   UNL     1      44.511 -20.067   3.202  1.00  0.00     0.027 C 
BRANCH  21  22
HETATM   22  C   UNL     1      44.049 -21.516   2.933  1.00  0.00     0.005 C 
HETATM   23  C   UNL     1      44.268 -21.947   1.487  1.00  0.00     0.006 C 
ENDBRANCH  21  22
BRANCH  21  24
HETATM   24  C   UNL     1      43.712 -19.017   2.441  1.00  0.00    -0.053 A 
HETATM   25  C   UNL     1      42.313 -19.025   2.396  1.00  0.00     0.010 A 
HETATM   26  C   UNL     1      41.615 -18.062   1.661  1.00  0.00     0.037 A 
HETATM   27  C   UNL     1      42.295 -17.080   0.942  1.00  0.00     0.068 A 
HETATM   28  C   UNL     1      43.687 -17.053   0.987  1.00  0.00     0.037 A 
HETATM   29  C   UNL     1      44.387 -18.011   1.732  1.00  0.00     0.010 A 
BRANCH  27  30
HETATM   30  O   UNL     1      41.494 -16.215   0.249  1.00  0.00    -0.356 OA
HETATM   31  C   UNL     1      40.747 -15.284   1.021  1.00  0.00     0.210 C 
ENDBRANCH  27  30
ENDBRANCH  21  24
ENDBRANCH  20  21
ENDBRANCH   1  20
TORSDOF 7
ENDMDL
MODEL 10
REMARK VINA RESULT:      -7.3      2.971      8.261
REMARK  7 active torsions:
REMARK  status: ('A' for Active; 'I' for Inactive)
REMARK    1  A    between atoms: C_2  and  C_3 
REMARK    2  A    between atoms: C_3  and  C_4 
REMARK    3  A    between atoms: C_3  and  C_12 
REMARK    4  A    between atoms: C_7  and  O_8 
REMARK    5  A    between atoms: C_12  and  C_13 
REMARK       I    between atoms: C_13  and  N_14 
REMARK    6  A    between atoms: N_14  and  C_15 
REMARK    7  A    between atoms: C_22  and  C_23 
REMARK       I    between atoms: C_23  and  N_24 
ROOT
HETATM    1  C   UNL     1      40.804 -15.447   3.127  1.00  0.00     0.222 C 
HETATM    2  N   UNL     1      40.826 -16.767   2.694  1.00  0.00    -0.327 N 
HETATM    3  O   UNL     1      41.674 -14.911   3.799  1.00  0.00    -0.273 OA
HETATM    4  H   UNL     1      39.964 -17.135   2.314  1.00  0.00     0.169 HD
ENDROOT
BRANCH   2   5
HETATM    5  C   UNL     1      41.882 -17.690   2.858  1.00  0.00     0.035 A 
HETATM    6  C   UNL     1      42.366 -18.091   4.111  1.00  0.00     0.046 A 
HETATM    7  C   UNL     1      43.430 -19.015   4.186  1.00  0.00     0.030 A 
HETATM    8  C   UNL     1      43.966 -19.518   3.007  1.00  0.00     0.063 A 
HETATM    9  C   UNL     1      44.188 -19.628   5.229  1.00  0.00     0.156 A 
HETATM   10  N   UNL     1      44.944 -20.388   3.397  1.00  0.00    -0.277 N 
HETATM   11  C   UNL     1      43.516 -19.134   1.741  1.00  0.00     0.034 A 
HETATM   12  H   UNL     1      45.541 -20.949   2.800  1.00  0.00     0.189 HD
HETATM   13  N   UNL     1      45.113 -20.478   4.727  1.00  0.00    -0.168 NA
HETATM   14  C   UNL     1      42.473 -18.200   1.693  1.00  0.00     0.032 A 
BRANCH   9  15
HETATM   15  C   UNL     1      44.056 -19.413   6.677  1.00  0.00     0.270 C 
HETATM   16  N   UNL     1      44.489 -18.187   7.102  1.00  0.00    -0.365 N 
HETATM   17  H   UNL     1      44.836 -17.529   6.415  1.00  0.00     0.159 HD
HETATM   18  H   UNL     1      44.407 -17.942   8.075  1.00  0.00     0.159 HD
HETATM   19  O   UNL     1      43.593 -20.229   7.465  1.00  0.00    -0.266 OA
ENDBRANCH   9  15
ENDBRANCH   2   5
BRANCH   1  20
HETATM   20  C   UNL     1      39.515 -14.747   2.710  1.00  0.00     0.112 C 
BRANCH  20  21
HETATM   21  C   UNL     1      39.289 -14.469   1.209  1.00  0.00     0.027 C 
BRANCH  21  22
HETATM   22  C   UNL     1      37.880 -13.926   0.885  1.00  0.00     0.005 C 
HETATM   23  C   UNL     1      37.678 -13.655  -0.602  1.00  0.00     0.006 C 
ENDBRANCH  21  22
BRANCH  21  24
HETATM   24  C   UNL     1      40.416 -13.670   0.567  1.00  0.00    -0.053 A 
HETATM   25  C   UNL     1      40.806 -12.411   1.037  1.00  0.00     0.010 A 
HETATM   26  C   UNL     1      41.826 -11.694   0.403  1.00  0.00     0.037 A 
HETATM   27  C   UNL     1      42.466 -12.207  -0.724  1.00  0.00     0.068 A 
HETATM   28  C   UNL     1      42.096 -13.464  -1.196  1.00  0.00     0.037 A 
HETATM   29  C   UNL     1      41.083 -14.188  -0.555  1.00  0.00     0.010 A 
BRANCH  27  30
HETATM   30  O   UNL     1      43.427 -11.396  -1.260  1.00  0.00    -0.356 OA
HETATM   31  C   UNL     1      42.990 -10.146  -1.777  1.00  0.00     0.210 C 
ENDBRANCH  27  30
ENDBRANCH  21  24
ENDBRANCH  20  21
ENDBRANCH   1  20
TORSDOF 7
ENDMDL
