MODEL 1
REMARK VINA RESULT:      -8.0      0.000      0.000
REMARK  3 active torsions:
REMARK  status: ('A' for Active; 'I' for Inactive)
REMARK    1  A    between atoms: C_6  and  C_7 
REMARK       I    between atoms: C_7  and  N_8 
REMARK    2  A    between atoms: N_8  and  C_9 
REMARK    3  A    between atoms: C_9  and  C_10 
ROOT
HETATM    1  C   UNL     1      42.051 -16.865   5.146  1.00  0.00     0.271 C 
HETATM    2  N   UNL     1      42.614 -15.694   4.703  1.00  0.00    -0.341 N 
HETATM    3  O   UNL     1      40.862 -16.936   5.442  1.00  0.00    -0.266 OA
HETATM    4  H   UNL     1      43.623 -15.647   4.622  1.00  0.00     0.164 HD
ENDROOT
BRANCH   1   5
HETATM    5  C   UNL     1      42.960 -17.983   5.259  1.00  0.00     0.133 A 
HETATM    6  N   UNL     1      43.267 -18.853   4.221  1.00  0.00    -0.300 N 
HETATM    7  C   UNL     1      44.190 -19.768   4.718  1.00  0.00     0.135 A 
HETATM    8  C   UNL     1      42.794 -18.910   2.907  1.00  0.00     0.100 A 
HETATM    9  C   UNL     1      44.667 -20.777   3.833  1.00  0.00     0.057 A 
HETATM   10  N   UNL     1      44.481 -19.530   5.975  1.00  0.00    -0.233 NA
HETATM   11  C   UNL     1      44.224 -20.835   2.559  1.00  0.00    -0.057 A 
HETATM   12  C   UNL     1      44.698 -21.866   1.581  1.00  0.00     0.048 C 
HETATM   13  C   UNL     1      43.244 -19.866   2.076  1.00  0.00     0.024 A 
HETATM   14  C   UNL     1      43.747 -18.422   6.323  1.00  0.00     0.066 A 
HETATM   15  C   UNL     1      43.920 -17.861   7.687  1.00  0.00     0.073 C 
ENDBRANCH   1   5
BRANCH   2  16
HETATM   16  C   UNL     1      41.904 -14.417   4.502  1.00  0.00     0.079 C 
HETATM   17  C   UNL     1      40.966 -14.132   5.690  1.00  0.00     0.046 C 
HETATM   18  C   UNL     1      42.913 -13.270   4.314  1.00  0.00     0.046 C 
BRANCH  16  19
HETATM   19  C   UNL     1      41.081 -14.601   3.224  1.00  0.00     0.128 A 
HETATM   20  S   UNL     1      41.795 -14.875   1.678  1.00  0.00    -0.031 SA
HETATM   21  C   UNL     1      40.209 -14.939   1.026  1.00  0.00     0.187 A 
HETATM   22  N   UNL     1      39.994 -15.138  -0.287  1.00  0.00    -0.377 N 
HETATM   23  N   UNL     1      39.262 -14.762   1.919  1.00  0.00    -0.124 NA
HETATM   24  H   UNL     1      40.743 -14.931  -0.936  1.00  0.00     0.158 HD
HETATM   25  H   UNL     1      39.067 -14.905  -0.628  1.00  0.00     0.158 HD
HETATM   26  N   UNL     1      39.761 -14.568   3.190  1.00  0.00    -0.142 NA
ENDBRANCH  16  19
ENDBRANCH   2  16
TORSDOF 3
ENDMDL
MODEL 2
REMARK VINA RESULT:      -7.9      2.018      2.999
REMARK  3 active torsions:
REMARK  status: ('A' for Active; 'I' for Inactive)
REMARK    1  A    between atoms: C_6  and  C_7 
REMARK       I    between atoms: C_7  and  N_8 
REMARK    2  A    between atoms: N_8  and  C_9 
REMARK    3  A    between atoms: C_9  and  C_10 
ROOT
HETATM    1  C   UNL     1      42.888 -15.934   3.635  1.00  0.00     0.271 C 
HETATM    2  N   UNL     1      41.547 -16.021   3.354  1.00  0.00    -0.341 N 
HETATM    3  O   UNL     1      43.532 -14.918   3.395  1.00  0.00    -0.266 OA
HETATM    4  H   UNL     1      41.098 -16.926   3.425  1.00  0.00     0.164 HD
ENDROOT
BRANCH   1   5
HETATM    5  C   UNL     1      43.476 -17.125   4.204  1.00  0.00     0.133 A 
HETATM    6  N   UNL     1      43.664 -18.316   3.513  1.00  0.00    -0.300 N 
HETATM    7  C   UNL     1      44.277 -19.204   4.392  1.00  0.00     0.135 A 
HETATM    8  C   UNL     1      43.328 -18.675   2.204  1.00  0.00     0.100 A 
HETATM    9  C   UNL     1      44.577 -20.510   3.913  1.00  0.00     0.057 A 
HETATM   10  N   UNL     1      44.487 -18.657   5.565  1.00  0.00    -0.233 NA
HETATM   11  C   UNL     1      44.266 -20.864   2.648  1.00  0.00    -0.057 A 
HETATM   12  C   UNL     1      44.568 -22.220   2.086  1.00  0.00     0.048 C 
HETATM   13  C   UNL     1      43.610 -19.910   1.757  1.00  0.00     0.024 A 
HETATM   14  C   UNL     1      44.018 -17.369   5.465  1.00  0.00     0.066 A 
HETATM   15  C   UNL     1      44.184 -16.465   6.631  1.00  0.00     0.073 C 
ENDBRANCH   1   5
BRANCH   2  16
HETATM   16  C   UNL     1      40.716 -14.949   2.772  1.00  0.00     0.079 C 
HETATM   17  C   UNL     1      41.552 -14.085   1.810  1.00  0.00     0.046 C 
HETATM   18  C   UNL     1      39.497 -15.551   2.051  1.00  0.00     0.046 C 
BRANCH  16  19
HETATM   19  C   UNL     1      40.251 -14.100   3.959  1.00  0.00     0.128 A 
HETATM   20  S   UNL     1      40.146 -14.712   5.568  1.00  0.00    -0.031 SA
HETATM   21  C   UNL     1      39.601 -13.161   6.057  1.00  0.00     0.187 A 
HETATM   22  N   UNL     1      39.284 -12.896   7.337  1.00  0.00    -0.377 N 
HETATM   23  N   UNL     1      39.518 -12.295   5.073  1.00  0.00    -0.124 NA
HETATM   24  H   UNL     1      39.055 -13.670   7.948  1.00  0.00     0.158 HD
HETATM   25  H   UNL     1      38.734 -12.058   7.497  1.00  0.00     0.158 HD
HETATM   26  N   UNL     1      39.893 -12.832   3.860  1.00  0.00    -0.142 NA
ENDBRANCH  16  19
ENDBRANCH   2  16
TORSDOF 3
ENDMDL
MODEL 3
REMARK VINA RESULT:      -7.8      1.459      1.469
REMARK  3 active torsions:
REMARK  status: ('A' for Active; 'I' for Inactive)
REMARK    1  A    between atoms: C_6  and  C_7 
REMARK       I    between atoms: C_7  and  N_8 
REMARK    2  A    between atoms: N_8  and  C_9 
REMARK    3  A    between atoms: C_9  and  C_10 
ROOT
HETATM    1  C   UNL     1      43.039 -15.733   4.075  1.00  0.00     0.271 C 
HETATM    2  N   UNL     1      41.827 -15.410   4.632  1.00  0.00    -0.341 N 
HETATM    3  O   UNL     1      43.615 -14.975   3.300  1.00  0.00    -0.266 OA
HETATM    4  H   UNL     1      41.323 -16.129   5.138  1.00  0.00     0.164 HD
ENDROOT
BRANCH   1   5
HETATM    5  C   UNL     1      43.563 -17.028   4.447  1.00  0.00     0.133 A 
HETATM    6  N   UNL     1      43.624 -18.124   3.597  1.00  0.00    -0.300 N 
HETATM    7  C   UNL     1      44.211 -19.163   4.314  1.00  0.00     0.135 A 
HETATM    8  C   UNL     1      43.196 -18.281   2.275  1.00  0.00     0.100 A 
HETATM    9  C   UNL     1      44.386 -20.411   3.652  1.00  0.00     0.057 A 
HETATM   10  N   UNL     1      44.522 -18.794   5.534  1.00  0.00    -0.233 NA
HETATM   11  C   UNL     1      43.985 -20.569   2.372  1.00  0.00    -0.057 A 
HETATM   12  C   UNL     1      44.155 -21.855   1.621  1.00  0.00     0.048 C 
HETATM   13  C   UNL     1      43.360 -19.461   1.654  1.00  0.00     0.024 A 
HETATM   14  C   UNL     1      44.148 -17.475   5.631  1.00  0.00     0.066 A 
HETATM   15  C   UNL     1      44.441 -16.750   6.892  1.00  0.00     0.073 C 
ENDBRANCH   1   5
BRANCH   2  16
HETATM   16  C   UNL     1      41.084 -14.154   4.413  1.00  0.00     0.079 C 
HETATM   17  C   UNL     1      39.765 -14.165   5.206  1.00  0.00     0.046 C 
HETATM   18  C   UNL     1      41.952 -12.946   4.808  1.00  0.00     0.046 C 
BRANCH  16  19
HETATM   19  C   UNL     1      40.785 -14.111   2.911  1.00  0.00     0.128 A 
HETATM   20  S   UNL     1      39.903 -15.346   2.093  1.00  0.00    -0.031 SA
HETATM   21  C   UNL     1      40.102 -14.444   0.647  1.00  0.00     0.187 A 
HETATM   22  N   UNL     1      39.611 -14.879  -0.528  1.00  0.00    -0.377 N 
HETATM   23  N   UNL     1      40.776 -13.329   0.808  1.00  0.00    -0.124 NA
HETATM   24  H   UNL     1      39.412 -15.866  -0.633  1.00  0.00     0.158 HD
HETATM   25  H   UNL     1      39.987 -14.435  -1.360  1.00  0.00     0.158 HD
HETATM   26  N   UNL     1      41.171 -13.131   2.114  1.00  0.00    -0.142 NA
ENDBRANCH  16  19
ENDBRANCH   2  16
TORSDOF 3
ENDMDL
MODEL 4
REMARK VINA RESULT:      -7.6      2.912      4.668
REMARK  3 active torsions:
REMARK  status: ('A' for Active; 'I' for Inactive)
REMARK    1  A    between atoms: C_6  and  C_7 
REMARK       I    between atoms: C_7  and  N_8 
REMARK    2  A    between atoms: N_8  and  C_9 
REMARK    3  A    between atoms: C_9  and  C_10 
ROOT
HETATM    1  C   UNL     1      41.733 -14.169   1.340  1.00  0.00     0.271 C 
HETATM    2  N   UNL     1      40.979 -14.373   0.211  1.00  0.00    -0.341 N 
HETATM    3  O   UNL     1      42.413 -13.159   1.487  1.00  0.00    -0.266 OA
HETATM    4  H   UNL     1      40.563 -15.286   0.069  1.00  0.00     0.164 HD
ENDROOT
BRANCH   1   5
HETATM    5  C   UNL     1      41.682 -15.234   2.316  1.00  0.00     0.133 A 
HETATM    6  N   UNL     1      42.426 -16.405   2.240  1.00  0.00    -0.300 N 
HETATM    7  C   UNL     1      42.118 -17.156   3.370  1.00  0.00     0.135 A 
HETATM    8  C   UNL     1      43.322 -16.857   1.266  1.00  0.00     0.100 A 
HETATM    9  C   UNL     1      42.762 -18.417   3.526  1.00  0.00     0.057 A 
HETATM   10  N   UNL     1      41.250 -16.543   4.139  1.00  0.00    -0.233 NA
HETATM   11  C   UNL     1      43.636 -18.858   2.595  1.00  0.00    -0.057 A 
HETATM   12  C   UNL     1      44.351 -20.169   2.711  1.00  0.00     0.048 C 
HETATM   13  C   UNL     1      43.925 -18.048   1.414  1.00  0.00     0.024 A 
HETATM   14  C   UNL     1      40.982 -15.347   3.516  1.00  0.00     0.066 A 
HETATM   15  C   UNL     1      40.072 -14.389   4.192  1.00  0.00     0.073 C 
ENDBRANCH   1   5
BRANCH   2  16
HETATM   16  C   UNL     1      40.862 -13.442  -0.928  1.00  0.00     0.079 C 
HETATM   17  C   UNL     1      40.111 -12.167  -0.502  1.00  0.00     0.046 C 
HETATM   18  C   UNL     1      42.257 -13.098  -1.481  1.00  0.00     0.046 C 
BRANCH  16  19
HETATM   19  C   UNL     1      40.052 -14.191  -1.989  1.00  0.00     0.128 A 
HETATM   20  S   UNL     1      40.695 -15.498  -2.912  1.00  0.00    -0.031 SA
HETATM   21  C   UNL     1      39.173 -15.611  -3.697  1.00  0.00     0.187 A 
HETATM   22  N   UNL     1      38.942 -16.522  -4.660  1.00  0.00    -0.377 N 
HETATM   23  N   UNL     1      38.295 -14.729  -3.277  1.00  0.00    -0.124 NA
HETATM   24  H   UNL     1      39.735 -16.920  -5.148  1.00  0.00     0.158 HD
HETATM   25  H   UNL     1      38.129 -16.357  -5.244  1.00  0.00     0.158 HD
HETATM   26  N   UNL     1      38.797 -13.908  -2.290  1.00  0.00    -0.142 NA
ENDBRANCH  16  19
ENDBRANCH   2  16
TORSDOF 3
ENDMDL
MODEL 5
REMARK VINA RESULT:      -7.5      2.526      6.659
REMARK  3 active torsions:
REMARK  status: ('A' for Active; 'I' for Inactive)
REMARK    1  A    between atoms: C_6  and  C_7 
REMARK       I    between atoms: C_7  and  N_8 
REMARK    2  A    between atoms: N_8  and  C_9 
REMARK    3  A    between atoms: C_9  and  C_10 
ROOT
HETATM    1  C   UNL     1      43.086 -16.319   4.325  1.00  0.00     0.271 C 
HETATM    2  N   UNL     1      43.223 -17.608   4.778  1.00  0.00    -0.341 N 
HETATM    3  O   UNL     1      43.400 -15.356   5.017  1.00  0.00    -0.266 OA
HETATM    4  H   UNL     1      42.809 -18.356   4.235  1.00  0.00     0.164 HD
ENDROOT
BRANCH   1   5
HETATM    5  C   UNL     1      42.529 -16.189   2.998  1.00  0.00     0.133 A 
HETATM    6  N   UNL     1      41.357 -15.504   2.702  1.00  0.00    -0.300 N 
HETATM    7  C   UNL     1      41.175 -15.585   1.324  1.00  0.00     0.135 A 
HETATM    8  C   UNL     1      40.449 -14.843   3.535  1.00  0.00     0.100 A 
HETATM    9  C   UNL     1      40.028 -14.952   0.768  1.00  0.00     0.057 A 
HETATM   10  N   UNL     1      42.141 -16.259   0.747  1.00  0.00    -0.233 NA
HETATM   11  C   UNL     1      39.151 -14.304   1.563  1.00  0.00    -0.057 A 
HETATM   12  C   UNL     1      37.933 -13.610   1.032  1.00  0.00     0.048 C 
HETATM   13  C   UNL     1      39.366 -14.250   3.007  1.00  0.00     0.024 A 
HETATM   14  C   UNL     1      42.997 -16.624   1.759  1.00  0.00     0.066 A 
HETATM   15  C   UNL     1      44.241 -17.350   1.402  1.00  0.00     0.073 C 
ENDBRANCH   1   5
BRANCH   2  16
HETATM   16  C   UNL     1      43.764 -18.007   6.092  1.00  0.00     0.079 C 
HETATM   17  C   UNL     1      45.079 -17.259   6.380  1.00  0.00     0.046 C 
HETATM   18  C   UNL     1      42.727 -17.741   7.198  1.00  0.00     0.046 C 
BRANCH  16  19
HETATM   19  C   UNL     1      44.036 -19.510   5.984  1.00  0.00     0.128 A 
HETATM   20  S   UNL     1      44.802 -20.231   4.617  1.00  0.00    -0.031 SA
HETATM   21  C   UNL     1      44.648 -21.746   5.407  1.00  0.00     0.187 A 
HETATM   22  N   UNL     1      45.079 -22.885   4.837  1.00  0.00    -0.377 N 
HETATM   23  N   UNL     1      44.067 -21.673   6.582  1.00  0.00    -0.124 NA
HETATM   24  H   UNL     1      45.197 -22.908   3.831  1.00  0.00     0.158 HD
HETATM   25  H   UNL     1      44.724 -23.748   5.237  1.00  0.00     0.158 HD
HETATM   26  N   UNL     1      43.713 -20.384   6.921  1.00  0.00    -0.142 NA
ENDBRANCH  16  19
ENDBRANCH   2  16
TORSDOF 3
ENDMDL
MODEL 6
REMARK VINA RESULT:      -7.4      2.606      4.262
REMARK  3 active torsions:
REMARK  status: ('A' for Active; 'I' for Inactive)
REMARK    1  A    between atoms: C_6  and  C_7 
REMARK       I    between atoms: C_7  and  N_8 
REMARK    2  A    between atoms: N_8  and  C_9 
REMARK    3  A    between atoms: C_9  and  C_10 
ROOT
HETATM    1  C   UNL     1      42.937 -14.691   2.902  1.00  0.00     0.271 C 
HETATM    2  N   UNL     1      41.657 -14.576   2.417  1.00  0.00    -0.341 N 
HETATM    3  O   UNL     1      43.692 -13.726   2.962  1.00  0.00    -0.266 OA
HETATM    4  H   UNL     1      41.130 -15.424   2.243  1.00  0.00     0.164 HD
ENDROOT
BRANCH   1   5
HETATM    5  C   UNL     1      43.325 -16.023   3.307  1.00  0.00     0.133 A 
HETATM    6  N   UNL     1      43.453 -16.436   4.627  1.00  0.00    -0.300 N 
HETATM    7  C   UNL     1      43.814 -17.780   4.599  1.00  0.00     0.135 A 
HETATM    8  C   UNL     1      43.298 -15.731   5.824  1.00  0.00     0.100 A 
HETATM    9  C   UNL     1      44.009 -18.441   5.845  1.00  0.00     0.057 A 
HETATM   10  N   UNL     1      43.913 -18.230   3.371  1.00  0.00    -0.233 NA
HETATM   11  C   UNL     1      43.851 -17.771   7.007  1.00  0.00    -0.057 A 
HETATM   12  C   UNL     1      44.032 -18.417   8.347  1.00  0.00     0.048 C 
HETATM   13  C   UNL     1      43.485 -16.357   6.998  1.00  0.00     0.024 A 
HETATM   14  C   UNL     1      43.597 -17.167   2.559  1.00  0.00     0.066 A 
HETATM   15  C   UNL     1      43.552 -17.389   1.092  1.00  0.00     0.073 C 
ENDBRANCH   1   5
BRANCH   2  16
HETATM   16  C   UNL     1      41.024 -13.331   1.941  1.00  0.00     0.079 C 
HETATM   17  C   UNL     1      39.513 -13.543   1.735  1.00  0.00     0.046 C 
HETATM   18  C   UNL     1      41.287 -12.186   2.935  1.00  0.00     0.046 C 
BRANCH  16  19
HETATM   19  C   UNL     1      41.691 -13.018   0.598  1.00  0.00     0.128 A 
HETATM   20  S   UNL     1      41.590 -14.066  -0.768  1.00  0.00    -0.031 SA
HETATM   21  C   UNL     1      42.546 -12.932  -1.631  1.00  0.00     0.187 A 
HETATM   22  N   UNL     1      42.904 -13.140  -2.910  1.00  0.00    -0.377 N 
HETATM   23  N   UNL     1      42.889 -11.881  -0.921  1.00  0.00    -0.124 NA
HETATM   24  H   UNL     1      42.893 -14.088  -3.267  1.00  0.00     0.158 HD
HETATM   25  H   UNL     1      43.667 -12.570  -3.259  1.00  0.00     0.158 HD
HETATM   26  N   UNL     1      42.397 -11.926   0.366  1.00  0.00    -0.142 NA
ENDBRANCH  16  19
ENDBRANCH   2  16
TORSDOF 3
ENDMDL
MODEL 7
REMARK VINA RESULT:      -7.4      2.043      2.912
REMARK  3 active torsions:
REMARK  status: ('A' for Active; 'I' for Inactive)
REMARK    1  A    between atoms: C_6  and  C_7 
REMARK       I    between atoms: C_7  and  N_8 
REMARK    2  A    between atoms: N_8  and  C_9 
REMARK    3  A    between atoms: C_9  and  C_10 
ROOT
HETATM    1  C   UNL     1      42.327 -15.095   2.887  1.00  0.00     0.271 C 
HETATM    2  N   UNL     1      41.007 -15.242   2.538  1.00  0.00    -0.341 N 
HETATM    3  O   UNL     1      42.986 -14.127   2.521  1.00  0.00    -0.266 OA
HETATM    4  H   UNL     1      40.554 -16.127   2.732  1.00  0.00     0.164 HD
ENDROOT
BRANCH   1   5
HETATM    5  C   UNL     1      42.876 -16.166   3.686  1.00  0.00     0.133 A 
HETATM    6  N   UNL     1      43.215 -17.420   3.193  1.00  0.00    -0.300 N 
HETATM    7  C   UNL     1      43.730 -18.151   4.259  1.00  0.00     0.135 A 
HETATM    8  C   UNL     1      43.093 -17.960   1.909  1.00  0.00     0.100 A 
HETATM    9  C   UNL     1      44.155 -19.486   4.006  1.00  0.00     0.057 A 
HETATM   10  N   UNL     1      43.741 -17.450   5.368  1.00  0.00    -0.233 NA
HETATM   11  C   UNL     1      44.049 -20.014   2.767  1.00  0.00    -0.057 A 
HETATM   12  C   UNL     1      44.490 -21.408   2.439  1.00  0.00     0.048 C 
HETATM   13  C   UNL     1      43.492 -19.221   1.674  1.00  0.00     0.024 A 
HETATM   14  C   UNL     1      43.236 -16.216   5.032  1.00  0.00     0.066 A 
HETATM   15  C   UNL     1      43.188 -15.165   6.080  1.00  0.00     0.073 C 
ENDBRANCH   1   5
BRANCH   2  16
HETATM   16  C   UNL     1      40.217 -14.292   1.731  1.00  0.00     0.079 C 
HETATM   17  C   UNL     1      38.731 -14.694   1.733  1.00  0.00     0.046 C 
HETATM   18  C   UNL     1      40.399 -12.860   2.264  1.00  0.00     0.046 C 
BRANCH  16  19
HETATM   19  C   UNL     1      40.780 -14.394   0.310  1.00  0.00     0.128 A 
HETATM   20  S   UNL     1      41.473 -13.053  -0.524  1.00  0.00    -0.031 SA
HETATM   21  C   UNL     1      41.757 -14.104  -1.851  1.00  0.00     0.187 A 
HETATM   22  N   UNL     1      42.331 -13.668  -2.986  1.00  0.00    -0.377 N 
HETATM   23  N   UNL     1      41.351 -15.336  -1.645  1.00  0.00    -0.124 NA
HETATM   24  H   UNL     1      42.303 -12.676  -3.191  1.00  0.00     0.158 HD
HETATM   25  H   UNL     1      42.226 -14.267  -3.798  1.00  0.00     0.158 HD
HETATM   26  N   UNL     1      40.788 -15.509  -0.398  1.00  0.00    -0.142 NA
ENDBRANCH  16  19
ENDBRANCH   2  16
TORSDOF 3
ENDMDL
MODEL 8
REMARK VINA RESULT:      -7.2      2.725      4.046
REMARK  3 active torsions:
REMARK  status: ('A' for Active; 'I' for Inactive)
REMARK    1  A    between atoms: C_6  and  C_7 
REMARK       I    between atoms: C_7  and  N_8 
REMARK    2  A    between atoms: N_8  and  C_9 
REMARK    3  A    between atoms: C_9  and  C_10 
ROOT
HETATM    1  C   UNL     1      40.673 -15.950   1.973  1.00  0.00     0.271 C 
HETATM    2  N   UNL     1      41.340 -15.070   1.157  1.00  0.00    -0.341 N 
HETATM    3  O   UNL     1      39.518 -16.293   1.743  1.00  0.00    -0.266 OA
HETATM    4  H   UNL     1      42.229 -14.701   1.472  1.00  0.00     0.164 HD
ENDROOT
BRANCH   1   5
HETATM    5  C   UNL     1      41.419 -16.414   3.120  1.00  0.00     0.133 A 
HETATM    6  N   UNL     1      42.284 -17.501   3.108  1.00  0.00    -0.300 N 
HETATM    7  C   UNL     1      42.823 -17.607   4.386  1.00  0.00     0.135 A 
HETATM    8  C   UNL     1      42.612 -18.395   2.084  1.00  0.00     0.100 A 
HETATM    9  C   UNL     1      43.750 -18.659   4.631  1.00  0.00     0.057 A 
HETATM   10  N   UNL     1      42.366 -16.671   5.184  1.00  0.00    -0.233 NA
HETATM   11  C   UNL     1      44.081 -19.522   3.647  1.00  0.00    -0.057 A 
HETATM   12  C   UNL     1      45.059 -20.641   3.843  1.00  0.00     0.048 C 
HETATM   13  C   UNL     1      43.485 -19.389   2.320  1.00  0.00     0.024 A 
HETATM   14  C   UNL     1      41.513 -15.913   4.418  1.00  0.00     0.066 A 
HETATM   15  C   UNL     1      40.885 -14.717   5.035  1.00  0.00     0.073 C 
ENDBRANCH   1   5
BRANCH   2  16
HETATM   16  C   UNL     1      40.802 -14.455  -0.072  1.00  0.00     0.079 C 
HETATM   17  C   UNL     1      40.967 -15.411  -1.267  1.00  0.00     0.046 C 
HETATM   18  C   UNL     1      39.324 -14.074   0.127  1.00  0.00     0.046 C 
BRANCH  16  19
HETATM   19  C   UNL     1      41.638 -13.192  -0.299  1.00  0.00     0.128 A 
HETATM   20  S   UNL     1      41.991 -12.568  -1.867  1.00  0.00    -0.031 SA
HETATM   21  C   UNL     1      42.863 -11.305  -1.101  1.00  0.00     0.187 A 
HETATM   22  N   UNL     1      43.486 -10.347  -1.810  1.00  0.00    -0.377 N 
HETATM   23  N   UNL     1      42.867 -11.385   0.210  1.00  0.00    -0.124 NA
HETATM   24  H   UNL     1      43.718 -10.536  -2.778  1.00  0.00     0.158 HD
HETATM   25  H   UNL     1      44.182  -9.803  -1.311  1.00  0.00     0.158 HD
HETATM   26  N   UNL     1      42.160 -12.472   0.678  1.00  0.00    -0.142 NA
ENDBRANCH  16  19
ENDBRANCH   2  16
TORSDOF 3
ENDMDL
MODEL 9
REMARK VINA RESULT:      -7.1      3.717      7.943
REMARK  3 active torsions:
REMARK  status: ('A' for Active; 'I' for Inactive)
REMARK    1  A    between atoms: C_6  and  C_7 
REMARK       I    between atoms: C_7  and  N_8 
REMARK    2  A    between atoms: N_8  and  C_9 
REMARK    3  A    between atoms: C_9  and  C_10 
ROOT
HETATM    1  C   UNL     1      41.273 -15.114  -0.016  1.00  0.00     0.271 C 
HETATM    2  N   UNL     1      42.403 -15.844   0.257  1.00  0.00    -0.341 N 
HETATM    3  O   UNL     1      40.288 -15.154   0.716  1.00  0.00    -0.266 OA
HETATM    4  H   UNL     1      43.124 -15.898  -0.454  1.00  0.00     0.164 HD
ENDROOT
BRANCH   1   5
HETATM    5  C   UNL     1      41.324 -14.327  -1.226  1.00  0.00     0.133 A 
HETATM    6  N   UNL     1      41.800 -13.024  -1.297  1.00  0.00    -0.300 N 
HETATM    7  C   UNL     1      41.708 -12.629  -2.628  1.00  0.00     0.135 A 
HETATM    8  C   UNL     1      42.282 -12.173  -0.298  1.00  0.00     0.100 A 
HETATM    9  C   UNL     1      42.142 -11.314  -2.961  1.00  0.00     0.057 A 
HETATM   10  N   UNL     1      41.219 -13.583  -3.384  1.00  0.00    -0.233 NA
HETATM   11  C   UNL     1      42.618 -10.488  -2.005  1.00  0.00    -0.057 A 
HETATM   12  C   UNL     1      43.098  -9.099  -2.299  1.00  0.00     0.048 C 
HETATM   13  C   UNL     1      42.687 -10.932  -0.616  1.00  0.00     0.024 A 
HETATM   14  C   UNL     1      40.993 -14.645  -2.543  1.00  0.00     0.066 A 
HETATM   15  C   UNL     1      40.498 -15.916  -3.129  1.00  0.00     0.073 C 
ENDBRANCH   1   5
BRANCH   2  16
HETATM   16  C   UNL     1      42.603 -16.723   1.425  1.00  0.00     0.079 C 
HETATM   17  C   UNL     1      41.461 -17.752   1.523  1.00  0.00     0.046 C 
HETATM   18  C   UNL     1      43.969 -17.426   1.336  1.00  0.00     0.046 C 
BRANCH  16  19
HETATM   19  C   UNL     1      42.572 -15.797   2.645  1.00  0.00     0.128 A 
HETATM   20  S   UNL     1      41.482 -16.016   3.964  1.00  0.00    -0.031 SA
HETATM   21  C   UNL     1      42.187 -14.633   4.695  1.00  0.00     0.187 A 
HETATM   22  N   UNL     1      41.763 -14.171   5.885  1.00  0.00    -0.377 N 
HETATM   23  N   UNL     1      43.145 -14.088   3.981  1.00  0.00    -0.124 NA
HETATM   24  H   UNL     1      40.834 -14.427   6.199  1.00  0.00     0.158 HD
HETATM   25  H   UNL     1      42.039 -13.224   6.120  1.00  0.00     0.158 HD
HETATM   26  N   UNL     1      43.372 -14.756   2.797  1.00  0.00    -0.142 NA
ENDBRANCH  16  19
ENDBRANCH   2  16
TORSDOF 3
ENDMDL
MODEL 10
REMARK VINA RESULT:      -6.9      2.400      4.299
REMARK  3 active torsions:
REMARK  status: ('A' for Active; 'I' for Inactive)
REMARK    1  A    between atoms: C_6  and  C_7 
REMARK       I    between atoms: C_7  and  N_8 
REMARK    2  A    between atoms: N_8  and  C_9 
REMARK    3  A    between atoms: C_9  and  C_10 
ROOT
HETATM    1  C   UNL     1      41.254 -16.440   2.883  1.00  0.00     0.271 C 
HETATM    2  N   UNL     1      41.309 -15.079   3.057  1.00  0.00    -0.341 N 
HETATM    3  O   UNL     1      40.268 -16.989   2.402  1.00  0.00    -0.266 OA
HETATM    4  H   UNL     1      42.074 -14.693   3.597  1.00  0.00     0.164 HD
ENDROOT
BRANCH   1   5
HETATM    5  C   UNL     1      42.422 -17.165   3.328  1.00  0.00     0.133 A 
HETATM    6  N   UNL     1      42.709 -17.453   4.656  1.00  0.00    -0.300 N 
HETATM    7  C   UNL     1      43.895 -18.181   4.668  1.00  0.00     0.135 A 
HETATM    8  C   UNL     1      42.031 -17.116   5.831  1.00  0.00     0.100 A 
HETATM    9  C   UNL     1      44.406 -18.600   5.929  1.00  0.00     0.057 A 
HETATM   10  N   UNL     1      44.360 -18.371   3.455  1.00  0.00    -0.233 NA
HETATM   11  C   UNL     1      43.752 -18.287   7.069  1.00  0.00    -0.057 A 
HETATM   12  C   UNL     1      44.236 -18.710   8.423  1.00  0.00     0.048 C 
HETATM   13  C   UNL     1      42.517 -17.509   7.020  1.00  0.00     0.024 A 
HETATM   14  C   UNL     1      43.456 -17.768   2.613  1.00  0.00     0.066 A 
HETATM   15  C   UNL     1      43.677 -17.876   1.149  1.00  0.00     0.073 C 
ENDBRANCH   1   5
BRANCH   2  16
HETATM   16  C   UNL     1      40.251 -14.119   2.686  1.00  0.00     0.079 C 
HETATM   17  C   UNL     1      40.810 -13.047   1.733  1.00  0.00     0.046 C 
HETATM   18  C   UNL     1      39.063 -14.857   2.045  1.00  0.00     0.046 C 
BRANCH  16  19
HETATM   19  C   UNL     1      39.811 -13.466   4.000  1.00  0.00     0.128 A 
HETATM   20  S   UNL     1      40.208 -14.112   5.549  1.00  0.00    -0.031 SA
HETATM   21  C   UNL     1      39.354 -12.798   6.247  1.00  0.00     0.187 A 
HETATM   22  N   UNL     1      39.237 -12.661   7.580  1.00  0.00    -0.377 N 
HETATM   23  N   UNL     1      38.833 -11.977   5.364  1.00  0.00    -0.124 NA
HETATM   24  H   UNL     1      39.364 -13.480   8.162  1.00  0.00     0.158 HD
HETATM   25  H   UNL     1      38.515 -12.025   7.902  1.00  0.00     0.158 HD
HETATM   26  N   UNL     1      39.096 -12.358   4.065  1.00  0.00    -0.142 NA
ENDBRANCH  16  19
ENDBRANCH   2  16
TORSDOF 3
ENDMDL
