MODEL 1
REMARK VINA RESULT:      -8.5      0.000      0.000
REMARK  11 active torsions:
REMARK  status: ('A' for Active; 'I' for Inactive)
REMARK       I    between atoms: N_6  and  C_7 
REMARK    1  A    between atoms: C_7  and  C_8 
REMARK    2  A    between atoms: C_10  and  S_11 
REMARK    3  A    between atoms: S_11  and  N_12 
REMARK    4  A    between atoms: N_12  and  C_13 
REMARK    5  A    between atoms: C_15  and  O_16 
REMARK    6  A    between atoms: C_23  and  N_24 
REMARK    7  A    between atoms: N_24  and  C_25 
REMARK    8  A    between atoms: C_25  and  C_26 
REMARK    9  A    between atoms: C_26  and  C_27 
REMARK   10  A    between atoms: C_29  and  O_30 
REMARK   11  A    between atoms: C_32  and  O_33 
ROOT
HETATM    1  C   UNL     1      41.398 -13.002   5.393  1.00  0.00     0.033 A 
HETATM    2  C   UNL     1      41.446 -12.638   4.049  1.00  0.00     0.044 A 
HETATM    3  C   UNL     1      40.903 -13.487   3.065  1.00  0.00     0.102 A 
HETATM    4  C   UNL     1      40.316 -14.729   3.390  1.00  0.00     0.031 A 
HETATM    5  C   UNL     1      40.379 -15.106   4.742  1.00  0.00     0.026 A 
HETATM    6  C   UNL     1      40.891 -14.255   5.731  1.00  0.00     0.019 A 
ENDROOT
BRANCH   4   7
HETATM    7  N   UNL     1      39.863 -15.624   2.412  1.00  0.00    -0.291 NA
HETATM    8  H   UNL     1      38.836 -15.619   2.331  1.00  0.00     0.127 HD
BRANCH   7   9
HETATM    9  C   UNL     1      40.329 -17.020   2.377  1.00  0.00     0.097 C 
BRANCH   9  10
HETATM   10  C   UNL     1      41.761 -17.100   1.827  1.00  0.00     0.053 C 
BRANCH  10  11
HETATM   11  C   UNL     1      42.648 -18.004   2.649  1.00  0.00    -0.054 A 
HETATM   12  C   UNL     1      43.282 -19.112   2.063  1.00  0.00     0.046 A 
HETATM   13  C   UNL     1      44.112 -19.948   2.822  1.00  0.00     0.102 A 
HETATM   14  C   UNL     1      44.307 -19.679   4.191  1.00  0.00     0.101 A 
HETATM   15  C   UNL     1      43.674 -18.577   4.773  1.00  0.00     0.040 A 
HETATM   16  C   UNL     1      42.852 -17.746   4.007  1.00  0.00     0.010 A 
BRANCH  13  17
HETATM   17  O   UNL     1      44.773 -21.044   2.325  1.00  0.00    -0.353 OA
HETATM   18  C   UNL     1      44.056 -21.930   1.479  1.00  0.00     0.210 C 
ENDBRANCH  13  17
BRANCH  14  19
HETATM   19  O   UNL     1      45.135 -20.542   4.864  1.00  0.00    -0.353 OA
HETATM   20  C   UNL     1      44.533 -21.590   5.609  1.00  0.00     0.210 C 
ENDBRANCH  14  19
ENDBRANCH  10  11
ENDBRANCH   9  10
ENDBRANCH   7   9
ENDBRANCH   4   7
BRANCH   3  21
HETATM   21  S   UNL     1      40.855 -12.843   1.396  1.00  0.00     0.265 S 
HETATM   22  O   UNL     1      39.497 -13.000   0.914  1.00  0.00    -0.200 OA
HETATM   23  O   UNL     1      41.479 -11.535   1.431  1.00  0.00    -0.200 OA
BRANCH  21  24
HETATM   24  N   UNL     1      41.809 -13.931   0.530  1.00  0.00    -0.280 N 
HETATM   25  H   UNL     1      42.781 -13.918   0.842  1.00  0.00     0.179 HD
BRANCH  24  26
HETATM   26  C   UNL     1      41.584 -14.072  -0.867  1.00  0.00     0.045 A 
HETATM   27  C   UNL     1      40.931 -15.208  -1.354  1.00  0.00     0.066 A 
HETATM   28  C   UNL     1      40.749 -15.362  -2.730  1.00  0.00     0.070 A 
HETATM   29  C   UNL     1      41.218 -14.374  -3.601  1.00  0.00     0.037 A 
HETATM   30  C   UNL     1      41.872 -13.244  -3.112  1.00  0.00     0.005 A 
HETATM   31  C   UNL     1      42.063 -13.098  -1.742  1.00  0.00     0.030 A 
BRANCH  28  32
HETATM   32  O   UNL     1      40.144 -16.421  -3.347  1.00  0.00    -0.356 OA
HETATM   33  C   UNL     1      38.948 -16.155  -4.069  1.00  0.00     0.210 C 
ENDBRANCH  28  32
ENDBRANCH  24  26
ENDBRANCH  21  24
ENDBRANCH   3  21
BRANCH   1  34
HETATM   34  C   UNL     1      41.926 -12.127   6.479  1.00  0.00     0.253 C 
HETATM   35  N   UNL     1      41.215 -10.981   6.864  1.00  0.00    -0.345 N 
HETATM   36  C   UNL     1      41.917 -10.082   7.787  1.00  0.00     0.154 C 
HETATM   37  C   UNL     1      39.762 -11.025   7.084  1.00  0.00     0.154 C 
HETATM   38  C   UNL     1      41.681 -10.503   9.247  1.00  0.00     0.254 C 
HETATM   39  N   UNL     1      40.171 -10.536   9.525  1.00  0.00    -0.072 N 
HETATM   40  C   UNL     1      39.875 -10.914  10.947  1.00  0.00     0.269 C 
HETATM   41  H   UNL     1      39.821  -9.580   9.385  1.00  0.00     0.279 HD
HETATM   42  C   UNL     1      39.438 -11.439   8.534  1.00  0.00     0.254 C 
HETATM   43  O   UNL     1      42.974 -12.437   7.042  1.00  0.00    -0.267 OA
ENDBRANCH   1  34
TORSDOF 11
ENDMDL
MODEL 2
REMARK VINA RESULT:      -8.3      2.746      8.992
REMARK  11 active torsions:
REMARK  status: ('A' for Active; 'I' for Inactive)
REMARK       I    between atoms: N_6  and  C_7 
REMARK    1  A    between atoms: C_7  and  C_8 
REMARK    2  A    between atoms: C_10  and  S_11 
REMARK    3  A    between atoms: S_11  and  N_12 
REMARK    4  A    between atoms: N_12  and  C_13 
REMARK    5  A    between atoms: C_15  and  O_16 
REMARK    6  A    between atoms: C_23  and  N_24 
REMARK    7  A    between atoms: N_24  and  C_25 
REMARK    8  A    between atoms: C_25  and  C_26 
REMARK    9  A    between atoms: C_26  and  C_27 
REMARK   10  A    between atoms: C_29  and  O_30 
REMARK   11  A    between atoms: C_32  and  O_33 
ROOT
HETATM    1  C   UNL     1      40.580 -14.011   2.960  1.00  0.00     0.033 A 
HETATM    2  C   UNL     1      40.891 -15.248   3.520  1.00  0.00     0.044 A 
HETATM    3  C   UNL     1      41.678 -15.320   4.686  1.00  0.00     0.102 A 
HETATM    4  C   UNL     1      42.191 -14.165   5.315  1.00  0.00     0.031 A 
HETATM    5  C   UNL     1      41.942 -12.946   4.664  1.00  0.00     0.026 A 
HETATM    6  C   UNL     1      41.137 -12.862   3.519  1.00  0.00     0.019 A 
ENDROOT
BRANCH   4   7
HETATM    7  N   UNL     1      43.055 -14.232   6.416  1.00  0.00    -0.291 NA
HETATM    8  H   UNL     1      42.539 -14.270   7.308  1.00  0.00     0.127 HD
BRANCH   7   9
HETATM    9  C   UNL     1      44.179 -13.293   6.565  1.00  0.00     0.097 C 
BRANCH   9  10
HETATM   10  C   UNL     1      44.873 -13.489   7.921  1.00  0.00     0.053 C 
BRANCH  10  11
HETATM   11  C   UNL     1      44.562 -12.378   8.896  1.00  0.00    -0.054 A 
HETATM   12  C   UNL     1      43.408 -11.594   8.744  1.00  0.00     0.046 A 
HETATM   13  C   UNL     1      43.112 -10.569   9.653  1.00  0.00     0.102 A 
HETATM   14  C   UNL     1      43.988 -10.316  10.727  1.00  0.00     0.101 A 
HETATM   15  C   UNL     1      45.138 -11.097  10.875  1.00  0.00     0.040 A 
HETATM   16  C   UNL     1      45.422 -12.120   9.967  1.00  0.00     0.010 A 
BRANCH  13  17
HETATM   17  O   UNL     1      42.003  -9.763   9.580  1.00  0.00    -0.353 OA
HETATM   18  C   UNL     1      41.135  -9.919   8.468  1.00  0.00     0.210 C 
ENDBRANCH  13  17
BRANCH  14  19
HETATM   19  O   UNL     1      43.628  -9.298  11.573  1.00  0.00    -0.353 OA
HETATM   20  C   UNL     1      43.213  -9.644  12.886  1.00  0.00     0.210 C 
ENDBRANCH  14  19
ENDBRANCH  10  11
ENDBRANCH   9  10
ENDBRANCH   7   9
ENDBRANCH   4   7
BRANCH   3  21
HETATM   21  S   UNL     1      41.864 -16.941   5.421  1.00  0.00     0.265 S 
HETATM   22  O   UNL     1      41.751 -16.778   6.857  1.00  0.00    -0.200 OA
HETATM   23  O   UNL     1      40.971 -17.833   4.708  1.00  0.00    -0.200 OA
BRANCH  21  24
HETATM   24  N   UNL     1      43.472 -17.333   5.100  1.00  0.00    -0.280 N 
HETATM   25  H   UNL     1      44.072 -16.507   5.091  1.00  0.00     0.179 HD
BRANCH  24  26
HETATM   26  C   UNL     1      43.748 -18.339   4.133  1.00  0.00     0.045 A 
HETATM   27  C   UNL     1      44.068 -19.634   4.549  1.00  0.00     0.066 A 
HETATM   28  C   UNL     1      44.379 -20.607   3.597  1.00  0.00     0.070 A 
HETATM   29  C   UNL     1      44.361 -20.272   2.239  1.00  0.00     0.037 A 
HETATM   30  C   UNL     1      44.044 -18.978   1.828  1.00  0.00     0.005 A 
HETATM   31  C   UNL     1      43.747 -18.007   2.778  1.00  0.00     0.030 A 
BRANCH  28  32
HETATM   32  O   UNL     1      44.723 -21.904   3.856  1.00  0.00    -0.356 OA
HETATM   33  C   UNL     1      45.139 -22.214   5.181  1.00  0.00     0.210 C 
ENDBRANCH  28  32
ENDBRANCH  24  26
ENDBRANCH  21  24
ENDBRANCH   3  21
BRANCH   1  34
HETATM   34  C   UNL     1      39.725 -13.873   1.746  1.00  0.00     0.253 C 
HETATM   35  N   UNL     1      40.210 -13.191   0.621  1.00  0.00    -0.345 N 
HETATM   36  C   UNL     1      39.223 -12.930  -0.434  1.00  0.00     0.154 C 
HETATM   37  C   UNL     1      41.564 -13.439   0.105  1.00  0.00     0.154 C 
HETATM   38  C   UNL     1      39.138 -14.116  -1.410  1.00  0.00     0.254 C 
HETATM   39  N   UNL     1      40.533 -14.391  -1.991  1.00  0.00    -0.072 N 
HETATM   40  C   UNL     1      40.512 -15.524  -2.976  1.00  0.00     0.269 C 
HETATM   41  H   UNL     1      40.814 -13.547  -2.506  1.00  0.00     0.279 HD
HETATM   42  C   UNL     1      41.566 -14.619  -0.889  1.00  0.00     0.254 C 
HETATM   43  O   UNL     1      38.606 -14.383   1.740  1.00  0.00    -0.267 OA
ENDBRANCH   1  34
TORSDOF 11
ENDMDL
MODEL 3
REMARK VINA RESULT:      -8.3      1.896      6.358
REMARK  11 active torsions:
REMARK  status: ('A' for Active; 'I' for Inactive)
REMARK       I    between atoms: N_6  and  C_7 
REMARK    1  A    between atoms: C_7  and  C_8 
REMARK    2  A    between atoms: C_10  and  S_11 
REMARK    3  A    between atoms: S_11  and  N_12 
REMARK    4  A    between atoms: N_12  and  C_13 
REMARK    5  A    between atoms: C_15  and  O_16 
REMARK    6  A    between atoms: C_23  and  N_24 
REMARK    7  A    between atoms: N_24  and  C_25 
REMARK    8  A    between atoms: C_25  and  C_26 
REMARK    9  A    between atoms: C_26  and  C_27 
REMARK   10  A    between atoms: C_29  and  O_30 
REMARK   11  A    between atoms: C_32  and  O_33 
ROOT
HETATM    1  C   UNL     1      40.691 -12.230   4.930  1.00  0.00     0.033 A 
HETATM    2  C   UNL     1      41.385 -13.310   5.469  1.00  0.00     0.044 A 
HETATM    3  C   UNL     1      41.284 -14.585   4.877  1.00  0.00     0.102 A 
HETATM    4  C   UNL     1      40.473 -14.821   3.746  1.00  0.00     0.031 A 
HETATM    5  C   UNL     1      39.710 -13.731   3.295  1.00  0.00     0.026 A 
HETATM    6  C   UNL     1      39.827 -12.454   3.860  1.00  0.00     0.019 A 
ENDROOT
BRANCH   4   7
HETATM    7  N   UNL     1      40.288 -16.103   3.210  1.00  0.00    -0.291 NA
HETATM    8  H   UNL     1      41.000 -16.767   3.546  1.00  0.00     0.127 HD
BRANCH   7   9
HETATM    9  C   UNL     1      40.100 -16.308   1.764  1.00  0.00     0.097 C 
BRANCH   9  10
HETATM   10  C   UNL     1      41.442 -16.200   1.023  1.00  0.00     0.053 C 
BRANCH  10  11
HETATM   11  C   UNL     1      41.360 -15.312  -0.195  1.00  0.00    -0.054 A 
HETATM   12  C   UNL     1      40.987 -15.838  -1.442  1.00  0.00     0.046 A 
HETATM   13  C   UNL     1      40.902 -15.015  -2.573  1.00  0.00     0.102 A 
HETATM   14  C   UNL     1      41.201 -13.643  -2.458  1.00  0.00     0.101 A 
HETATM   15  C   UNL     1      41.574 -13.121  -1.217  1.00  0.00     0.040 A 
HETATM   16  C   UNL     1      41.651 -13.949  -0.094  1.00  0.00     0.010 A 
BRANCH  13  17
HETATM   17  O   UNL     1      40.539 -15.448  -3.824  1.00  0.00    -0.353 OA
HETATM   18  C   UNL     1      39.249 -16.018  -3.985  1.00  0.00     0.210 C 
ENDBRANCH  13  17
BRANCH  14  19
HETATM   19  O   UNL     1      41.093 -12.903  -3.609  1.00  0.00    -0.353 OA
HETATM   20  C   UNL     1      42.091 -11.925  -3.863  1.00  0.00     0.210 C 
ENDBRANCH  14  19
ENDBRANCH  10  11
ENDBRANCH   9  10
ENDBRANCH   7   9
ENDBRANCH   4   7
BRANCH   3  21
HETATM   21  S   UNL     1      42.355 -15.857   5.537  1.00  0.00     0.265 S 
HETATM   22  O   UNL     1      43.254 -15.216   6.478  1.00  0.00    -0.200 OA
HETATM   23  O   UNL     1      41.502 -16.949   5.960  1.00  0.00    -0.200 OA
BRANCH  21  24
HETATM   24  N   UNL     1      43.286 -16.313   4.207  1.00  0.00    -0.280 N 
HETATM   25  H   UNL     1      42.956 -15.879   3.344  1.00  0.00     0.179 HD
BRANCH  24  26
HETATM   26  C   UNL     1      43.734 -17.660   4.120  1.00  0.00     0.045 A 
HETATM   27  C   UNL     1      43.463 -18.409   2.972  1.00  0.00     0.066 A 
HETATM   28  C   UNL     1      43.869 -19.744   2.908  1.00  0.00     0.070 A 
HETATM   29  C   UNL     1      44.546 -20.310   3.992  1.00  0.00     0.037 A 
HETATM   30  C   UNL     1      44.812 -19.560   5.137  1.00  0.00     0.005 A 
HETATM   31  C   UNL     1      44.396 -18.234   5.204  1.00  0.00     0.030 A 
BRANCH  28  32
HETATM   32  O   UNL     1      43.662 -20.598   1.861  1.00  0.00    -0.356 OA
HETATM   33  C   UNL     1      44.264 -21.884   1.943  1.00  0.00     0.210 C 
ENDBRANCH  28  32
ENDBRANCH  24  26
ENDBRANCH  21  24
ENDBRANCH   3  21
BRANCH   1  34
HETATM   34  C   UNL     1      40.788 -10.853   5.495  1.00  0.00     0.253 C 
HETATM   35  N   UNL     1      39.854 -10.419   6.447  1.00  0.00    -0.345 N 
HETATM   36  C   UNL     1      39.909  -8.991   6.781  1.00  0.00     0.154 C 
HETATM   37  C   UNL     1      39.472 -11.270   7.583  1.00  0.00     0.154 C 
HETATM   38  C   UNL     1      40.917  -8.732   7.913  1.00  0.00     0.254 C 
HETATM   39  N   UNL     1      40.538  -9.586   9.131  1.00  0.00    -0.072 N 
HETATM   40  C   UNL     1      41.470  -9.358  10.285  1.00  0.00     0.269 C 
HETATM   41  H   UNL     1      39.603  -9.281   9.431  1.00  0.00     0.279 HD
HETATM   42  C   UNL     1      40.438 -11.068   8.769  1.00  0.00     0.254 C 
HETATM   43  O   UNL     1      41.706 -10.120   5.134  1.00  0.00    -0.267 OA
ENDBRANCH   1  34
TORSDOF 11
ENDMDL
MODEL 4
REMARK VINA RESULT:      -8.2      0.979      2.025
REMARK  11 active torsions:
REMARK  status: ('A' for Active; 'I' for Inactive)
REMARK       I    between atoms: N_6  and  C_7 
REMARK    1  A    between atoms: C_7  and  C_8 
REMARK    2  A    between atoms: C_10  and  S_11 
REMARK    3  A    between atoms: S_11  and  N_12 
REMARK    4  A    between atoms: N_12  and  C_13 
REMARK    5  A    between atoms: C_15  and  O_16 
REMARK    6  A    between atoms: C_23  and  N_24 
REMARK    7  A    between atoms: N_24  and  C_25 
REMARK    8  A    between atoms: C_25  and  C_26 
REMARK    9  A    between atoms: C_26  and  C_27 
REMARK   10  A    between atoms: C_29  and  O_30 
REMARK   11  A    between atoms: C_32  and  O_33 
ROOT
HETATM    1  C   UNL     1      41.420 -13.087   5.395  1.00  0.00     0.033 A 
HETATM    2  C   UNL     1      41.374 -12.764   4.041  1.00  0.00     0.044 A 
HETATM    3  C   UNL     1      40.861 -13.688   3.108  1.00  0.00     0.102 A 
HETATM    4  C   UNL     1      40.400 -14.964   3.497  1.00  0.00     0.031 A 
HETATM    5  C   UNL     1      40.558 -15.291   4.854  1.00  0.00     0.026 A 
HETATM    6  C   UNL     1      41.041 -14.368   5.793  1.00  0.00     0.019 A 
ENDROOT
BRANCH   4   7
HETATM    7  N   UNL     1      39.981 -15.925   2.568  1.00  0.00    -0.291 NA
HETATM    8  H   UNL     1      38.960 -16.060   2.587  1.00  0.00     0.127 HD
BRANCH   7   9
HETATM    9  C   UNL     1      40.627 -17.246   2.489  1.00  0.00     0.097 C 
BRANCH   9  10
HETATM   10  C   UNL     1      42.106 -17.103   2.098  1.00  0.00     0.053 C 
BRANCH  10  11
HETATM   11  C   UNL     1      42.979 -18.153   2.743  1.00  0.00    -0.054 A 
HETATM   12  C   UNL     1      43.295 -18.082   4.109  1.00  0.00     0.046 A 
HETATM   13  C   UNL     1      44.098 -19.060   4.711  1.00  0.00     0.102 A 
HETATM   14  C   UNL     1      44.599 -20.124   3.936  1.00  0.00     0.101 A 
HETATM   15  C   UNL     1      44.285 -20.192   2.576  1.00  0.00     0.040 A 
HETATM   16  C   UNL     1      43.480 -19.215   1.984  1.00  0.00     0.010 A 
BRANCH  13  17
HETATM   17  O   UNL     1      44.447 -19.069   6.039  1.00  0.00    -0.353 OA
HETATM   18  C   UNL     1      45.193 -17.970   6.540  1.00  0.00     0.210 C 
ENDBRANCH  13  17
BRANCH  14  19
HETATM   19  O   UNL     1      45.375 -21.042   4.599  1.00  0.00    -0.353 OA
HETATM   20  C   UNL     1      44.748 -22.231   5.055  1.00  0.00     0.210 C 
ENDBRANCH  14  19
ENDBRANCH  10  11
ENDBRANCH   9  10
ENDBRANCH   7   9
ENDBRANCH   4   7
BRANCH   3  21
HETATM   21  S   UNL     1      40.680 -13.104   1.427  1.00  0.00     0.265 S 
HETATM   22  O   UNL     1      39.356 -13.491   0.978  1.00  0.00    -0.200 OA
HETATM   23  O   UNL     1      41.084 -11.712   1.418  1.00  0.00    -0.200 OA
BRANCH  21  24
HETATM   24  N   UNL     1      41.781 -14.045   0.565  1.00  0.00    -0.280 N 
HETATM   25  H   UNL     1      42.745 -13.859   0.847  1.00  0.00     0.179 HD
BRANCH  24  26
HETATM   26  C   UNL     1      41.548 -14.270  -0.820  1.00  0.00     0.045 A 
HETATM   27  C   UNL     1      41.745 -13.233  -1.735  1.00  0.00     0.066 A 
HETATM   28  C   UNL     1      41.475 -13.447  -3.088  1.00  0.00     0.070 A 
HETATM   29  C   UNL     1      41.016 -14.699  -3.509  1.00  0.00     0.037 A 
HETATM   30  C   UNL     1      40.818 -15.731  -2.592  1.00  0.00     0.005 A 
HETATM   31  C   UNL     1      41.076 -15.512  -1.242  1.00  0.00     0.030 A 
BRANCH  28  32
HETATM   32  O   UNL     1      41.607 -12.527  -4.090  1.00  0.00    -0.356 OA
HETATM   33  C   UNL     1      42.356 -11.353  -3.799  1.00  0.00     0.210 C 
ENDBRANCH  28  32
ENDBRANCH  24  26
ENDBRANCH  21  24
ENDBRANCH   3  21
BRANCH   1  34
HETATM   34  C   UNL     1      41.921 -12.136   6.429  1.00  0.00     0.253 C 
HETATM   35  N   UNL     1      41.163 -11.005   6.766  1.00  0.00    -0.345 N 
HETATM   36  C   UNL     1      41.835 -10.030   7.633  1.00  0.00     0.154 C 
HETATM   37  C   UNL     1      39.716 -11.102   7.007  1.00  0.00     0.154 C 
HETATM   38  C   UNL     1      41.634 -10.387   9.116  1.00  0.00     0.254 C 
HETATM   39  N   UNL     1      40.130 -10.473   9.415  1.00  0.00    -0.072 N 
HETATM   40  C   UNL     1      39.867 -10.791  10.858  1.00  0.00     0.269 C 
HETATM   41  H   UNL     1      39.736  -9.541   9.232  1.00  0.00     0.279 HD
HETATM   42  C   UNL     1      39.427 -11.456   8.481  1.00  0.00     0.254 C 
HETATM   43  O   UNL     1      42.987 -12.371   6.993  1.00  0.00    -0.267 OA
ENDBRANCH   1  34
TORSDOF 11
ENDMDL
MODEL 5
REMARK VINA RESULT:      -8.1      2.446      8.924
REMARK  11 active torsions:
REMARK  status: ('A' for Active; 'I' for Inactive)
REMARK       I    between atoms: N_6  and  C_7 
REMARK    1  A    between atoms: C_7  and  C_8 
REMARK    2  A    between atoms: C_10  and  S_11 
REMARK    3  A    between atoms: S_11  and  N_12 
REMARK    4  A    between atoms: N_12  and  C_13 
REMARK    5  A    between atoms: C_15  and  O_16 
REMARK    6  A    between atoms: C_23  and  N_24 
REMARK    7  A    between atoms: N_24  and  C_25 
REMARK    8  A    between atoms: C_25  and  C_26 
REMARK    9  A    between atoms: C_26  and  C_27 
REMARK   10  A    between atoms: C_29  and  O_30 
REMARK   11  A    between atoms: C_32  and  O_33 
ROOT
HETATM    1  C   UNL     1      39.026 -13.357   2.321  1.00  0.00     0.033 A 
HETATM    2  C   UNL     1      39.820 -14.317   2.944  1.00  0.00     0.044 A 
HETATM    3  C   UNL     1      40.239 -14.133   4.277  1.00  0.00     0.102 A 
HETATM    4  C   UNL     1      39.896 -12.981   5.017  1.00  0.00     0.031 A 
HETATM    5  C   UNL     1      39.182 -11.991   4.321  1.00  0.00     0.026 A 
HETATM    6  C   UNL     1      38.737 -12.177   3.005  1.00  0.00     0.019 A 
ENDROOT
BRANCH   4   7
HETATM    7  N   UNL     1      40.389 -12.743   6.306  1.00  0.00    -0.291 NA
HETATM    8  H   UNL     1      40.627 -13.618   6.795  1.00  0.00     0.127 HD
BRANCH   7   9
HETATM    9  C   UNL     1      39.680 -11.859   7.246  1.00  0.00     0.097 C 
BRANCH   9  10
HETATM   10  C   UNL     1      40.524 -10.616   7.563  1.00  0.00     0.053 C 
BRANCH  10  11
HETATM   11  C   UNL     1      41.215 -10.712   8.903  1.00  0.00    -0.054 A 
HETATM   12  C   UNL     1      42.614 -10.640   8.994  1.00  0.00     0.046 A 
HETATM   13  C   UNL     1      43.257 -10.721  10.237  1.00  0.00     0.102 A 
HETATM   14  C   UNL     1      42.491 -10.882  11.408  1.00  0.00     0.101 A 
HETATM   15  C   UNL     1      41.098 -10.956  11.315  1.00  0.00     0.040 A 
HETATM   16  C   UNL     1      40.465 -10.869  10.072  1.00  0.00     0.010 A 
BRANCH  13  17
HETATM   17  O   UNL     1      44.617 -10.652  10.414  1.00  0.00    -0.353 OA
HETATM   18  C   UNL     1      45.448 -11.274   9.446  1.00  0.00     0.210 C 
ENDBRANCH  13  17
BRANCH  14  19
HETATM   19  O   UNL     1      43.194 -10.951  12.585  1.00  0.00    -0.353 OA
HETATM   20  C   UNL     1      43.206  -9.799  13.416  1.00  0.00     0.210 C 
ENDBRANCH  14  19
ENDBRANCH  10  11
ENDBRANCH   9  10
ENDBRANCH   7   9
ENDBRANCH   4   7
BRANCH   3  21
HETATM   21  S   UNL     1      41.099 -15.506   5.037  1.00  0.00     0.265 S 
HETATM   22  O   UNL     1      42.519 -15.238   4.924  1.00  0.00    -0.200 OA
HETATM   23  O   UNL     1      40.489 -15.719   6.335  1.00  0.00    -0.200 OA
BRANCH  21  24
HETATM   24  N   UNL     1      40.762 -16.797   4.006  1.00  0.00    -0.280 N 
HETATM   25  H   UNL     1      39.988 -17.367   4.349  1.00  0.00     0.179 HD
BRANCH  24  26
HETATM   26  C   UNL     1      41.849 -17.486   3.400  1.00  0.00     0.045 A 
HETATM   27  C   UNL     1      42.674 -18.303   4.176  1.00  0.00     0.066 A 
HETATM   28  C   UNL     1      43.765 -18.944   3.584  1.00  0.00     0.070 A 
HETATM   29  C   UNL     1      44.012 -18.762   2.220  1.00  0.00     0.037 A 
HETATM   30  C   UNL     1      43.188 -17.943   1.449  1.00  0.00     0.005 A 
HETATM   31  C   UNL     1      42.110 -17.296   2.043  1.00  0.00     0.030 A 
BRANCH  28  32
HETATM   32  O   UNL     1      44.661 -19.757   4.219  1.00  0.00    -0.356 OA
HETATM   33  C   UNL     1      44.300 -20.241   5.507  1.00  0.00     0.210 C 
ENDBRANCH  28  32
ENDBRANCH  24  26
ENDBRANCH  21  24
ENDBRANCH   3  21
BRANCH   1  34
HETATM   34  C   UNL     1      38.525 -13.515   0.925  1.00  0.00     0.253 C 
HETATM   35  N   UNL     1      39.230 -12.938  -0.141  1.00  0.00    -0.345 N 
HETATM   36  C   UNL     1      38.549 -12.972  -1.441  1.00  0.00     0.154 C 
HETATM   37  C   UNL     1      40.692 -13.063  -0.245  1.00  0.00     0.154 C 
HETATM   38  C   UNL     1      38.851 -14.284  -2.184  1.00  0.00     0.254 C 
HETATM   39  N   UNL     1      40.372 -14.440  -2.335  1.00  0.00    -0.072 N 
HETATM   40  C   UNL     1      40.732 -15.692  -3.079  1.00  0.00     0.269 C 
HETATM   41  H   UNL     1      40.699 -13.646  -2.900  1.00  0.00     0.279 HD
HETATM   42  C   UNL     1      41.081 -14.360  -0.984  1.00  0.00     0.254 C 
HETATM   43  O   UNL     1      37.507 -14.173   0.724  1.00  0.00    -0.267 OA
ENDBRANCH   1  34
TORSDOF 11
ENDMDL
MODEL 6
REMARK VINA RESULT:      -7.8      1.918      6.417
REMARK  11 active torsions:
REMARK  status: ('A' for Active; 'I' for Inactive)
REMARK       I    between atoms: N_6  and  C_7 
REMARK    1  A    between atoms: C_7  and  C_8 
REMARK    2  A    between atoms: C_10  and  S_11 
REMARK    3  A    between atoms: S_11  and  N_12 
REMARK    4  A    between atoms: N_12  and  C_13 
REMARK    5  A    between atoms: C_15  and  O_16 
REMARK    6  A    between atoms: C_23  and  N_24 
REMARK    7  A    between atoms: N_24  and  C_25 
REMARK    8  A    between atoms: C_25  and  C_26 
REMARK    9  A    between atoms: C_26  and  C_27 
REMARK   10  A    between atoms: C_29  and  O_30 
REMARK   11  A    between atoms: C_32  and  O_33 
ROOT
HETATM    1  C   UNL     1      40.775 -11.474   6.397  1.00  0.00     0.033 A 
HETATM    2  C   UNL     1      41.707 -12.493   6.211  1.00  0.00     0.044 A 
HETATM    3  C   UNL     1      41.422 -13.565   5.343  1.00  0.00     0.102 A 
HETATM    4  C   UNL     1      40.195 -13.662   4.652  1.00  0.00     0.031 A 
HETATM    5  C   UNL     1      39.243 -12.671   4.943  1.00  0.00     0.026 A 
HETATM    6  C   UNL     1      39.528 -11.586   5.784  1.00  0.00     0.019 A 
ENDROOT
BRANCH   4   7
HETATM    7  N   UNL     1      39.863 -14.772   3.864  1.00  0.00    -0.291 NA
HETATM    8  H   UNL     1      40.589 -15.503   3.903  1.00  0.00     0.127 HD
BRANCH   7   9
HETATM    9  C   UNL     1      39.429 -14.617   2.466  1.00  0.00     0.097 C 
BRANCH   9  10
HETATM   10  C   UNL     1      40.564 -14.040   1.607  1.00  0.00     0.053 C 
BRANCH  10  11
HETATM   11  C   UNL     1      40.399 -14.358   0.140  1.00  0.00    -0.054 A 
HETATM   12  C   UNL     1      39.480 -13.647  -0.648  1.00  0.00     0.046 A 
HETATM   13  C   UNL     1      39.331 -13.935  -2.012  1.00  0.00     0.102 A 
HETATM   14  C   UNL     1      40.107 -14.955  -2.597  1.00  0.00     0.101 A 
HETATM   15  C   UNL     1      41.019 -15.663  -1.810  1.00  0.00     0.040 A 
HETATM   16  C   UNL     1      41.165 -15.366  -0.452  1.00  0.00     0.010 A 
BRANCH  13  17
HETATM   17  O   UNL     1      38.463 -13.283  -2.852  1.00  0.00    -0.353 OA
HETATM   18  C   UNL     1      38.698 -11.909  -3.120  1.00  0.00     0.210 C 
ENDBRANCH  13  17
BRANCH  14  19
HETATM   19  O   UNL     1      39.904 -15.175  -3.937  1.00  0.00    -0.353 OA
HETATM   20  C   UNL     1      38.974 -16.182  -4.308  1.00  0.00     0.210 C 
ENDBRANCH  14  19
ENDBRANCH  10  11
ENDBRANCH   9  10
ENDBRANCH   7   9
ENDBRANCH   4   7
BRANCH   3  21
HETATM   21  S   UNL     1      42.755 -14.719   5.039  1.00  0.00     0.265 S 
HETATM   22  O   UNL     1      43.214 -14.498   3.682  1.00  0.00    -0.200 OA
HETATM   23  O   UNL     1      43.673 -14.606   6.156  1.00  0.00    -0.200 OA
BRANCH  21  24
HETATM   24  N   UNL     1      41.986 -16.219   5.055  1.00  0.00    -0.280 N 
HETATM   25  H   UNL     1      41.716 -16.499   5.999  1.00  0.00     0.179 HD
BRANCH  24  26
HETATM   26  C   UNL     1      42.469 -17.242   4.193  1.00  0.00     0.045 A 
HETATM   27  C   UNL     1      43.459 -18.119   4.643  1.00  0.00     0.066 A 
HETATM   28  C   UNL     1      43.960 -19.095   3.779  1.00  0.00     0.070 A 
HETATM   29  C   UNL     1      43.459 -19.185   2.477  1.00  0.00     0.037 A 
HETATM   30  C   UNL     1      42.472 -18.306   2.031  1.00  0.00     0.005 A 
HETATM   31  C   UNL     1      41.983 -17.326   2.889  1.00  0.00     0.030 A 
BRANCH  28  32
HETATM   32  O   UNL     1      44.934 -20.008   4.075  1.00  0.00    -0.356 OA
HETATM   33  C   UNL     1      44.713 -20.852   5.199  1.00  0.00     0.210 C 
ENDBRANCH  28  32
ENDBRANCH  24  26
ENDBRANCH  21  24
ENDBRANCH   3  21
BRANCH   1  34
HETATM   34  C   UNL     1      41.036 -10.300   7.277  1.00  0.00     0.253 C 
HETATM   35  N   UNL     1      40.088  -9.919   8.237  1.00  0.00    -0.345 N 
HETATM   36  C   UNL     1      40.343  -8.636   8.903  1.00  0.00     0.154 C 
HETATM   37  C   UNL     1      39.446 -10.913   9.110  1.00  0.00     0.154 C 
HETATM   38  C   UNL     1      41.249  -8.827  10.131  1.00  0.00     0.254 C 
HETATM   39  N   UNL     1      40.599  -9.842  11.083  1.00  0.00    -0.072 N 
HETATM   40  C   UNL     1      41.424 -10.053  12.320  1.00  0.00     0.269 C 
HETATM   41  H   UNL     1      39.701  -9.441  11.382  1.00  0.00     0.279 HD
HETATM   42  C   UNL     1      40.295 -11.161  10.375  1.00  0.00     0.254 C 
HETATM   43  O   UNL     1      42.098  -9.690   7.164  1.00  0.00    -0.267 OA
ENDBRANCH   1  34
TORSDOF 11
ENDMDL
MODEL 7
REMARK VINA RESULT:      -7.8      2.890      8.204
REMARK  11 active torsions:
REMARK  status: ('A' for Active; 'I' for Inactive)
REMARK       I    between atoms: N_6  and  C_7 
REMARK    1  A    between atoms: C_7  and  C_8 
REMARK    2  A    between atoms: C_10  and  S_11 
REMARK    3  A    between atoms: S_11  and  N_12 
REMARK    4  A    between atoms: N_12  and  C_13 
REMARK    5  A    between atoms: C_15  and  O_16 
REMARK    6  A    between atoms: C_23  and  N_24 
REMARK    7  A    between atoms: N_24  and  C_25 
REMARK    8  A    between atoms: C_25  and  C_26 
REMARK    9  A    between atoms: C_26  and  C_27 
REMARK   10  A    between atoms: C_29  and  O_30 
REMARK   11  A    between atoms: C_32  and  O_33 
ROOT
HETATM    1  C   UNL     1      42.896 -14.132   5.758  1.00  0.00     0.033 A 
HETATM    2  C   UNL     1      41.895 -13.288   6.235  1.00  0.00     0.044 A 
HETATM    3  C   UNL     1      41.304 -12.336   5.381  1.00  0.00     0.102 A 
HETATM    4  C   UNL     1      41.707 -12.185   4.037  1.00  0.00     0.031 A 
HETATM    5  C   UNL     1      42.787 -12.982   3.623  1.00  0.00     0.026 A 
HETATM    6  C   UNL     1      43.362 -13.951   4.457  1.00  0.00     0.019 A 
ENDROOT
BRANCH   4   7
HETATM    7  N   UNL     1      41.196 -11.177   3.209  1.00  0.00    -0.291 NA
HETATM    8  H   UNL     1      40.574 -10.535   3.723  1.00  0.00     0.127 HD
BRANCH   7   9
HETATM    9  C   UNL     1      40.574 -11.493   1.913  1.00  0.00     0.097 C 
BRANCH   9  10
HETATM   10  C   UNL     1      39.455 -12.530   2.087  1.00  0.00     0.053 C 
BRANCH  10  11
HETATM   11  C   UNL     1      39.924 -13.939   1.814  1.00  0.00    -0.054 A 
HETATM   12  C   UNL     1      40.471 -14.283   0.567  1.00  0.00     0.046 A 
HETATM   13  C   UNL     1      40.915 -15.588   0.314  1.00  0.00     0.102 A 
HETATM   14  C   UNL     1      40.805 -16.569   1.319  1.00  0.00     0.101 A 
HETATM   15  C   UNL     1      40.258 -16.225   2.559  1.00  0.00     0.040 A 
HETATM   16  C   UNL     1      39.823 -14.920   2.804  1.00  0.00     0.010 A 
BRANCH  13  17
HETATM   17  O   UNL     1      41.468 -16.004  -0.872  1.00  0.00    -0.353 OA
HETATM   18  C   UNL     1      40.885 -15.539  -2.080  1.00  0.00     0.210 C 
ENDBRANCH  13  17
BRANCH  14  19
HETATM   19  O   UNL     1      41.264 -17.821   0.995  1.00  0.00    -0.353 OA
HETATM   20  C   UNL     1      42.364 -18.334   1.732  1.00  0.00     0.210 C 
ENDBRANCH  14  19
ENDBRANCH  10  11
ENDBRANCH   9  10
ENDBRANCH   7   9
ENDBRANCH   4   7
BRANCH   3  21
HETATM   21  S   UNL     1      39.908 -11.432   6.042  1.00  0.00     0.265 S 
HETATM   22  O   UNL     1      40.267 -10.028   6.043  1.00  0.00    -0.200 OA
HETATM   23  O   UNL     1      38.732 -11.893   5.330  1.00  0.00    -0.200 OA
BRANCH  21  24
HETATM   24  N   UNL     1      39.853 -11.922   7.655  1.00  0.00    -0.280 N 
HETATM   25  H   UNL     1      39.129 -12.623   7.816  1.00  0.00     0.179 HD
BRANCH  24  26
HETATM   26  C   UNL     1      40.040 -10.944   8.671  1.00  0.00     0.045 A 
HETATM   27  C   UNL     1      38.932 -10.298   9.225  1.00  0.00     0.066 A 
HETATM   28  C   UNL     1      39.123  -9.309  10.192  1.00  0.00     0.070 A 
HETATM   29  C   UNL     1      40.422  -8.983  10.596  1.00  0.00     0.037 A 
HETATM   30  C   UNL     1      41.525  -9.629  10.039  1.00  0.00     0.005 A 
HETATM   31  C   UNL     1      41.333 -10.605   9.066  1.00  0.00     0.030 A 
BRANCH  28  32
HETATM   32  O   UNL     1      38.141  -8.586  10.808  1.00  0.00    -0.356 OA
HETATM   33  C   UNL     1      37.951  -8.805  12.201  1.00  0.00     0.210 C 
ENDBRANCH  28  32
ENDBRANCH  24  26
ENDBRANCH  21  24
ENDBRANCH   3  21
BRANCH   1  34
HETATM   34  C   UNL     1      43.532 -15.179   6.607  1.00  0.00     0.253 C 
HETATM   35  N   UNL     1      42.792 -16.301   7.008  1.00  0.00    -0.345 N 
HETATM   36  C   UNL     1      43.439 -17.162   8.006  1.00  0.00     0.154 C 
HETATM   37  C   UNL     1      41.955 -17.042   6.053  1.00  0.00     0.154 C 
HETATM   38  C   UNL     1      44.331 -18.214   7.326  1.00  0.00     0.254 C 
HETATM   39  N   UNL     1      43.485 -19.028   6.336  1.00  0.00    -0.072 N 
HETATM   40  C   UNL     1      44.295 -20.095   5.658  1.00  0.00     0.269 C 
HETATM   41  H   UNL     1      42.757 -19.503   6.885  1.00  0.00     0.279 HD
HETATM   42  C   UNL     1      42.779 -18.126   5.326  1.00  0.00     0.254 C 
HETATM   43  O   UNL     1      44.713 -15.056   6.927  1.00  0.00    -0.267 OA
ENDBRANCH   1  34
TORSDOF 11
ENDMDL
MODEL 8
REMARK VINA RESULT:      -7.8      2.752      8.995
REMARK  11 active torsions:
REMARK  status: ('A' for Active; 'I' for Inactive)
REMARK       I    between atoms: N_6  and  C_7 
REMARK    1  A    between atoms: C_7  and  C_8 
REMARK    2  A    between atoms: C_10  and  S_11 
REMARK    3  A    between atoms: S_11  and  N_12 
REMARK    4  A    between atoms: N_12  and  C_13 
REMARK    5  A    between atoms: C_15  and  O_16 
REMARK    6  A    between atoms: C_23  and  N_24 
REMARK    7  A    between atoms: N_24  and  C_25 
REMARK    8  A    between atoms: C_25  and  C_26 
REMARK    9  A    between atoms: C_26  and  C_27 
REMARK   10  A    between atoms: C_29  and  O_30 
REMARK   11  A    between atoms: C_32  and  O_33 
ROOT
HETATM    1  C   UNL     1      39.750 -14.344   0.080  1.00  0.00     0.033 A 
HETATM    2  C   UNL     1      40.942 -15.044   0.254  1.00  0.00     0.044 A 
HETATM    3  C   UNL     1      41.217 -15.681   1.481  1.00  0.00     0.102 A 
HETATM    4  C   UNL     1      40.323 -15.621   2.571  1.00  0.00     0.031 A 
HETATM    5  C   UNL     1      39.182 -14.822   2.391  1.00  0.00     0.026 A 
HETATM    6  C   UNL     1      38.887 -14.208   1.166  1.00  0.00     0.019 A 
ENDROOT
BRANCH   4   7
HETATM    7  N   UNL     1      40.631 -16.167   3.825  1.00  0.00    -0.291 NA
HETATM    8  H   UNL     1      40.062 -17.001   4.032  1.00  0.00     0.127 HD
BRANCH   7   9
HETATM    9  C   UNL     1      40.689 -15.326   5.032  1.00  0.00     0.097 C 
BRANCH   9  10
HETATM   10  C   UNL     1      41.736 -14.215   4.869  1.00  0.00     0.053 C 
BRANCH  10  11
HETATM   11  C   UNL     1      41.121 -12.836   4.860  1.00  0.00    -0.054 A 
HETATM   12  C   UNL     1      40.345 -12.391   5.943  1.00  0.00     0.046 A 
HETATM   13  C   UNL     1      39.780 -11.109   5.942  1.00  0.00     0.102 A 
HETATM   14  C   UNL     1      39.986 -10.258   4.838  1.00  0.00     0.101 A 
HETATM   15  C   UNL     1      40.756 -10.703   3.761  1.00  0.00     0.040 A 
HETATM   16  C   UNL     1      41.321 -11.982   3.772  1.00  0.00     0.010 A 
BRANCH  13  17
HETATM   17  O   UNL     1      39.017 -10.595   6.961  1.00  0.00    -0.353 OA
HETATM   18  C   UNL     1      39.455 -10.807   8.295  1.00  0.00     0.210 C 
ENDBRANCH  13  17
BRANCH  14  19
HETATM   19  O   UNL     1      39.401  -9.018   4.913  1.00  0.00    -0.353 OA
HETATM   20  C   UNL     1      40.242  -7.907   5.189  1.00  0.00     0.210 C 
ENDBRANCH  14  19
ENDBRANCH  10  11
ENDBRANCH   9  10
ENDBRANCH   7   9
ENDBRANCH   4   7
BRANCH   3  21
HETATM   21  S   UNL     1      42.687 -16.700   1.536  1.00  0.00     0.265 S 
HETATM   22  O   UNL     1      43.051 -17.004   0.165  1.00  0.00    -0.200 OA
HETATM   23  O   UNL     1      43.626 -16.038   2.419  1.00  0.00    -0.200 OA
BRANCH  21  24
HETATM   24  N   UNL     1      42.139 -18.139   2.224  1.00  0.00    -0.280 N 
HETATM   25  H   UNL     1      41.218 -18.031   2.651  1.00  0.00     0.179 HD
BRANCH  24  26
HETATM   26  C   UNL     1      43.073 -18.965   2.909  1.00  0.00     0.045 A 
HETATM   27  C   UNL     1      43.347 -18.733   4.260  1.00  0.00     0.066 A 
HETATM   28  C   UNL     1      44.295 -19.520   4.916  1.00  0.00     0.070 A 
HETATM   29  C   UNL     1      44.953 -20.533   4.213  1.00  0.00     0.037 A 
HETATM   30  C   UNL     1      44.680 -20.760   2.865  1.00  0.00     0.005 A 
HETATM   31  C   UNL     1      43.744 -19.967   2.209  1.00  0.00     0.030 A 
BRANCH  28  32
HETATM   32  O   UNL     1      44.674 -19.399   6.224  1.00  0.00    -0.356 OA
HETATM   33  C   UNL     1      45.059 -18.105   6.672  1.00  0.00     0.210 C 
ENDBRANCH  28  32
ENDBRANCH  24  26
ENDBRANCH  21  24
ENDBRANCH   3  21
BRANCH   1  34
HETATM   34  C   UNL     1      39.392 -13.679  -1.206  1.00  0.00     0.253 C 
HETATM   35  N   UNL     1      39.593 -12.300  -1.362  1.00  0.00    -0.345 N 
HETATM   36  C   UNL     1      39.019 -11.711  -2.577  1.00  0.00     0.154 C 
HETATM   37  C   UNL     1      40.849 -11.661  -0.940  1.00  0.00     0.154 C 
HETATM   38  C   UNL     1      40.006 -11.808  -3.752  1.00  0.00     0.254 C 
HETATM   39  N   UNL     1      41.326 -11.127  -3.359  1.00  0.00    -0.072 N 
HETATM   40  C   UNL     1      42.325 -11.163  -4.478  1.00  0.00     0.269 C 
HETATM   41  H   UNL     1      41.110 -10.139  -3.177  1.00  0.00     0.279 HD
HETATM   42  C   UNL     1      41.898 -11.714  -2.070  1.00  0.00     0.254 C 
HETATM   43  O   UNL     1      38.944 -14.358  -2.127  1.00  0.00    -0.267 OA
ENDBRANCH   1  34
TORSDOF 11
ENDMDL
MODEL 9
REMARK VINA RESULT:      -7.8      2.077      6.233
REMARK  11 active torsions:
REMARK  status: ('A' for Active; 'I' for Inactive)
REMARK       I    between atoms: N_6  and  C_7 
REMARK    1  A    between atoms: C_7  and  C_8 
REMARK    2  A    between atoms: C_10  and  S_11 
REMARK    3  A    between atoms: S_11  and  N_12 
REMARK    4  A    between atoms: N_12  and  C_13 
REMARK    5  A    between atoms: C_15  and  O_16 
REMARK    6  A    between atoms: C_23  and  N_24 
REMARK    7  A    between atoms: N_24  and  C_25 
REMARK    8  A    between atoms: C_25  and  C_26 
REMARK    9  A    between atoms: C_26  and  C_27 
REMARK   10  A    between atoms: C_29  and  O_30 
REMARK   11  A    between atoms: C_32  and  O_33 
ROOT
HETATM    1  C   UNL     1      40.659 -11.388   6.170  1.00  0.00     0.033 A 
HETATM    2  C   UNL     1      41.409 -12.560   6.236  1.00  0.00     0.044 A 
HETATM    3  C   UNL     1      41.133 -13.629   5.360  1.00  0.00     0.102 A 
HETATM    4  C   UNL     1      40.091 -13.566   4.409  1.00  0.00     0.031 A 
HETATM    5  C   UNL     1      39.294 -12.410   4.443  1.00  0.00     0.026 A 
HETATM    6  C   UNL     1      39.579 -11.331   5.292  1.00  0.00     0.019 A 
ENDROOT
BRANCH   4   7
HETATM    7  N   UNL     1      39.745 -14.658   3.603  1.00  0.00    -0.291 NA
HETATM    8  H   UNL     1      40.500 -15.357   3.556  1.00  0.00     0.127 HD
BRANCH   7   9
HETATM    9  C   UNL     1      39.198 -14.467   2.249  1.00  0.00     0.097 C 
BRANCH   9  10
HETATM   10  C   UNL     1      39.963 -15.324   1.230  1.00  0.00     0.053 C 
BRANCH  10  11
HETATM   11  C   UNL     1      40.718 -14.491   0.222  1.00  0.00    -0.054 A 
HETATM   12  C   UNL     1      41.392 -13.324   0.619  1.00  0.00     0.046 A 
HETATM   13  C   UNL     1      42.100 -12.553  -0.313  1.00  0.00     0.102 A 
HETATM   14  C   UNL     1      42.131 -12.948  -1.664  1.00  0.00     0.101 A 
HETATM   15  C   UNL     1      41.458 -14.108  -2.057  1.00  0.00     0.040 A 
HETATM   16  C   UNL     1      40.758 -14.874  -1.121  1.00  0.00     0.010 A 
BRANCH  13  17
HETATM   17  O   UNL     1      42.790 -11.406  -0.007  1.00  0.00    -0.353 OA
HETATM   18  C   UNL     1      42.048 -10.213   0.193  1.00  0.00     0.210 C 
ENDBRANCH  13  17
BRANCH  14  19
HETATM   19  O   UNL     1      42.847 -12.142  -2.514  1.00  0.00    -0.353 OA
HETATM   20  C   UNL     1      42.305 -11.894  -3.803  1.00  0.00     0.210 C 
ENDBRANCH  14  19
ENDBRANCH  10  11
ENDBRANCH   9  10
ENDBRANCH   7   9
ENDBRANCH   4   7
BRANCH   3  21
HETATM   21  S   UNL     1      42.269 -15.010   5.407  1.00  0.00     0.265 S 
HETATM   22  O   UNL     1      43.344 -14.652   6.311  1.00  0.00    -0.200 OA
HETATM   23  O   UNL     1      41.475 -16.201   5.640  1.00  0.00    -0.200 OA
BRANCH  21  24
HETATM   24  N   UNL     1      42.924 -15.031   3.853  1.00  0.00    -0.280 N 
HETATM   25  H   UNL     1      42.472 -14.352   3.240  1.00  0.00     0.179 HD
BRANCH  24  26
HETATM   26  C   UNL     1      43.275 -16.284   3.279  1.00  0.00     0.045 A 
HETATM   27  C   UNL     1      43.567 -17.371   4.107  1.00  0.00     0.066 A 
HETATM   28  C   UNL     1      43.951 -18.587   3.538  1.00  0.00     0.070 A 
HETATM   29  C   UNL     1      44.033 -18.701   2.147  1.00  0.00     0.037 A 
HETATM   30  C   UNL     1      43.744 -17.613   1.324  1.00  0.00     0.005 A 
HETATM   31  C   UNL     1      43.373 -16.399   1.892  1.00  0.00     0.030 A 
BRANCH  28  32
HETATM   32  O   UNL     1      44.278 -19.725   4.220  1.00  0.00    -0.356 OA
HETATM   33  C   UNL     1      44.690 -20.848   3.449  1.00  0.00     0.210 C 
ENDBRANCH  28  32
ENDBRANCH  24  26
ENDBRANCH  21  24
ENDBRANCH   3  21
BRANCH   1  34
HETATM   34  C   UNL     1      40.930 -10.214   7.048  1.00  0.00     0.253 C 
HETATM   35  N   UNL     1      39.974  -9.810   7.991  1.00  0.00    -0.345 N 
HETATM   36  C   UNL     1      40.242  -8.529   8.655  1.00  0.00     0.154 C 
HETATM   37  C   UNL     1      39.299 -10.787   8.859  1.00  0.00     0.154 C 
HETATM   38  C   UNL     1      41.124  -8.731   9.899  1.00  0.00     0.254 C 
HETATM   39  N   UNL     1      40.440  -9.729  10.845  1.00  0.00    -0.072 N 
HETATM   40  C   UNL     1      41.240  -9.949  12.096  1.00  0.00     0.269 C 
HETATM   41  H   UNL     1      39.546  -9.308  11.127  1.00  0.00     0.279 HD
HETATM   42  C   UNL     1      40.122 -11.045  10.138  1.00  0.00     0.254 C 
HETATM   43  O   UNL     1      42.004  -9.626   6.950  1.00  0.00    -0.267 OA
ENDBRANCH   1  34
TORSDOF 11
ENDMDL
MODEL 10
REMARK VINA RESULT:      -7.7      2.460      9.393
REMARK  11 active torsions:
REMARK  status: ('A' for Active; 'I' for Inactive)
REMARK       I    between atoms: N_6  and  C_7 
REMARK    1  A    between atoms: C_7  and  C_8 
REMARK    2  A    between atoms: C_10  and  S_11 
REMARK    3  A    between atoms: S_11  and  N_12 
REMARK    4  A    between atoms: N_12  and  C_13 
REMARK    5  A    between atoms: C_15  and  O_16 
REMARK    6  A    between atoms: C_23  and  N_24 
REMARK    7  A    between atoms: N_24  and  C_25 
REMARK    8  A    between atoms: C_25  and  C_26 
REMARK    9  A    between atoms: C_26  and  C_27 
REMARK   10  A    between atoms: C_29  and  O_30 
REMARK   11  A    between atoms: C_32  and  O_33 
ROOT
HETATM    1  C   UNL     1      40.815 -12.693   2.480  1.00  0.00     0.033 A 
HETATM    2  C   UNL     1      41.858 -12.978   3.357  1.00  0.00     0.044 A 
HETATM    3  C   UNL     1      41.592 -13.227   4.718  1.00  0.00     0.102 A 
HETATM    4  C   UNL     1      40.283 -13.180   5.245  1.00  0.00     0.031 A 
HETATM    5  C   UNL     1      39.272 -12.789   4.351  1.00  0.00     0.026 A 
HETATM    6  C   UNL     1      39.524 -12.566   2.990  1.00  0.00     0.019 A 
ENDROOT
BRANCH   4   7
HETATM    7  N   UNL     1      40.019 -13.328   6.613  1.00  0.00    -0.291 NA
HETATM    8  H   UNL     1      39.546 -14.220   6.819  1.00  0.00     0.127 HD
BRANCH   7   9
HETATM    9  C   UNL     1      39.364 -12.260   7.386  1.00  0.00     0.097 C 
BRANCH   9  10
HETATM   10  C   UNL     1      40.230 -10.991   7.399  1.00  0.00     0.053 C 
BRANCH  10  11
HETATM   11  C   UNL     1      40.684 -10.615   8.789  1.00  0.00    -0.054 A 
HETATM   12  C   UNL     1      39.771 -10.573   9.854  1.00  0.00     0.046 A 
HETATM   13  C   UNL     1      40.192 -10.232  11.147  1.00  0.00     0.102 A 
HETATM   14  C   UNL     1      41.547  -9.922  11.379  1.00  0.00     0.101 A 
HETATM   15  C   UNL     1      42.454  -9.963  10.317  1.00  0.00     0.040 A 
HETATM   16  C   UNL     1      42.026 -10.308   9.032  1.00  0.00     0.010 A 
BRANCH  13  17
HETATM   17  O   UNL     1      39.367 -10.175  12.243  1.00  0.00    -0.353 OA
HETATM   18  C   UNL     1      38.295  -9.245  12.223  1.00  0.00     0.210 C 
ENDBRANCH  13  17
BRANCH  14  19
HETATM   19  O   UNL     1      41.880  -9.601  12.671  1.00  0.00    -0.353 OA
HETATM   20  C   UNL     1      43.212  -9.856  13.093  1.00  0.00     0.210 C 
ENDBRANCH  14  19
ENDBRANCH  10  11
ENDBRANCH   9  10
ENDBRANCH   7   9
ENDBRANCH   4   7
BRANCH   3  21
HETATM   21  S   UNL     1      42.978 -13.760   5.716  1.00  0.00     0.265 S 
HETATM   22  O   UNL     1      44.094 -13.982   4.818  1.00  0.00    -0.200 OA
HETATM   23  O   UNL     1      43.092 -12.822   6.816  1.00  0.00    -0.200 OA
BRANCH  21  24
HETATM   24  N   UNL     1      42.496 -15.275   6.278  1.00  0.00    -0.280 N 
HETATM   25  H   UNL     1      42.105 -15.226   7.219  1.00  0.00     0.179 HD
BRANCH  24  26
HETATM   26  C   UNL     1      43.308 -16.403   5.976  1.00  0.00     0.045 A 
HETATM   27  C   UNL     1      43.043 -17.165   4.835  1.00  0.00     0.066 A 
HETATM   28  C   UNL     1      43.816 -18.296   4.567  1.00  0.00     0.070 A 
HETATM   29  C   UNL     1      44.849 -18.648   5.441  1.00  0.00     0.037 A 
HETATM   30  C   UNL     1      45.108 -17.887   6.581  1.00  0.00     0.005 A 
HETATM   31  C   UNL     1      44.329 -16.767   6.853  1.00  0.00     0.030 A 
BRANCH  28  32
HETATM   32  O   UNL     1      43.665 -19.139   3.502  1.00  0.00    -0.356 OA
HETATM   33  C   UNL     1      42.834 -18.696   2.435  1.00  0.00     0.210 C 
ENDBRANCH  28  32
ENDBRANCH  24  26
ENDBRANCH  21  24
ENDBRANCH   3  21
BRANCH   1  34
HETATM   34  C   UNL     1      41.035 -12.454   1.024  1.00  0.00     0.253 C 
HETATM   35  N   UNL     1      41.983 -13.215   0.325  1.00  0.00    -0.345 N 
HETATM   36  C   UNL     1      42.272 -12.765  -1.041  1.00  0.00     0.154 C 
HETATM   37  C   UNL     1      42.059 -14.674   0.488  1.00  0.00     0.154 C 
HETATM   38  C   UNL     1      41.290 -13.394  -2.044  1.00  0.00     0.254 C 
HETATM   39  N   UNL     1      41.358 -14.924  -1.923  1.00  0.00    -0.072 N 
HETATM   40  C   UNL     1      40.440 -15.601  -2.899  1.00  0.00     0.269 C 
HETATM   41  H   UNL     1      42.318 -15.201  -2.167  1.00  0.00     0.279 HD
HETATM   42  C   UNL     1      41.101 -15.386  -0.490  1.00  0.00     0.254 C 
HETATM   43  O   UNL     1      40.360 -11.605   0.447  1.00  0.00    -0.267 OA
ENDBRANCH   1  34
TORSDOF 11
ENDMDL
