MODEL 1
REMARK VINA RESULT:      -9.5      0.000      0.000
REMARK  5 active torsions:
REMARK  status: ('A' for Active; 'I' for Inactive)
REMARK    1  A    between atoms: O_2  and  C_3 
REMARK    2  A    between atoms: C_4  and  O_5 
REMARK    3  A    between atoms: C_6  and  C_7 
REMARK    4  A    between atoms: N_8  and  N_9 
REMARK       I    between atoms: N_9  and  C_10 
REMARK    5  A    between atoms: C_10  and  C_11 
ROOT
HETATM    1  N   UNL     1      44.486 -14.954   6.688  1.00  0.00    -0.242 N 
HETATM    2  C   UNL     1      43.789 -16.140   6.862  1.00  0.00     0.292 C 
HETATM    3  O   UNL     1      43.346 -16.548   7.933  1.00  0.00    -0.264 OA
HETATM    4  H   UNL     1      44.812 -14.729   5.751  1.00  0.00     0.192 HD
ENDROOT
BRANCH   2   5
HETATM    5  C   UNL     1      43.627 -16.895   5.607  1.00  0.00     0.154 A 
HETATM    6  N   UNL     1      43.063 -16.352   4.502  1.00  0.00    -0.168 NA
HETATM    7  N   UNL     1      43.116 -17.342   3.583  1.00  0.00    -0.276 N 
HETATM    8  H   UNL     1      42.738 -17.163   2.660  1.00  0.00     0.189 HD
HETATM    9  C   UNL     1      43.690 -18.485   4.045  1.00  0.00     0.069 A 
HETATM   10  C   UNL     1      44.022 -18.233   5.358  1.00  0.00     0.007 A 
HETATM   11  C   UNL     1      43.931 -19.748   3.367  1.00  0.00    -0.001 A 
HETATM   12  C   UNL     1      44.705 -19.251   6.200  1.00  0.00     0.048 C 
HETATM   13  C   UNL     1      44.404 -20.682   5.698  1.00  0.00     0.044 C 
HETATM   14  C   UNL     1      44.344 -20.833   4.181  1.00  0.00    -0.045 A 
HETATM   15  C   UNL     1      44.604 -22.077   3.594  1.00  0.00     0.008 A 
HETATM   16  C   UNL     1      44.480 -22.238   2.214  1.00  0.00     0.001 A 
HETATM   17  C   UNL     1      44.084 -21.165   1.415  1.00  0.00     0.001 A 
HETATM   18  C   UNL     1      43.807 -19.921   1.987  1.00  0.00     0.014 A 
ENDBRANCH   2   5
BRANCH   1  19
HETATM   19  N   UNL     1      44.730 -14.139   7.749  1.00  0.00    -0.183 NA
HETATM   20  C   UNL     1      44.083 -13.019   7.773  1.00  0.00     0.153 C 
BRANCH  20  21
HETATM   21  C   UNL     1      44.280 -12.064   8.885  1.00  0.00     0.019 A 
HETATM   22  C   UNL     1      43.257 -11.200   9.275  1.00  0.00     0.110 A 
HETATM   23  C   UNL     1      43.449 -10.288  10.326  1.00  0.00     0.102 A 
HETATM   24  C   UNL     1      44.678 -10.256  10.989  1.00  0.00     0.040 A 
HETATM   25  C   UNL     1      45.705 -11.121  10.603  1.00  0.00     0.004 A 
HETATM   26  C   UNL     1      45.508 -12.022   9.554  1.00  0.00     0.016 A 
BRANCH  22  27
HETATM   27  O   UNL     1      42.044 -11.221   8.633  1.00  0.00    -0.357 OA
HETATM   28  H   UNL     1      41.981 -10.355   8.181  1.00  0.00     0.218 HD
ENDBRANCH  22  27
BRANCH  23  29
HETATM   29  O   UNL     1      42.366  -9.492  10.606  1.00  0.00    -0.353 OA
HETATM   30  C   UNL     1      42.347  -8.873  11.888  1.00  0.00     0.210 C 
ENDBRANCH  23  29
ENDBRANCH  20  21
ENDBRANCH   1  19
TORSDOF 5
ENDMDL
MODEL 2
REMARK VINA RESULT:      -9.0      2.313     10.294
REMARK  5 active torsions:
REMARK  status: ('A' for Active; 'I' for Inactive)
REMARK    1  A    between atoms: O_2  and  C_3 
REMARK    2  A    between atoms: C_4  and  O_5 
REMARK    3  A    between atoms: C_6  and  C_7 
REMARK    4  A    between atoms: N_8  and  N_9 
REMARK       I    between atoms: N_9  and  C_10 
REMARK    5  A    between atoms: C_10  and  C_11 
ROOT
HETATM    1  N   UNL     1      44.131 -14.328   7.756  1.00  0.00    -0.242 N 
HETATM    2  C   UNL     1      45.049 -13.306   7.947  1.00  0.00     0.292 C 
HETATM    3  O   UNL     1      46.010 -13.075   7.217  1.00  0.00    -0.264 OA
HETATM    4  H   UNL     1      43.381 -14.424   8.438  1.00  0.00     0.192 HD
ENDROOT
BRANCH   2   5
HETATM    5  C   UNL     1      44.764 -12.500   9.147  1.00  0.00     0.154 A 
HETATM    6  N   UNL     1      45.474 -12.630  10.293  1.00  0.00    -0.168 NA
HETATM    7  N   UNL     1      44.923 -11.721  11.129  1.00  0.00    -0.276 N 
HETATM    8  H   UNL     1      45.297 -11.641  12.067  1.00  0.00     0.189 HD
HETATM    9  C   UNL     1      43.902 -11.016  10.571  1.00  0.00     0.069 A 
HETATM   10  C   UNL     1      43.766 -11.503   9.290  1.00  0.00     0.007 A 
HETATM   11  C   UNL     1      43.077  -9.962  11.138  1.00  0.00    -0.001 A 
HETATM   12  C   UNL     1      42.757 -10.952   8.347  1.00  0.00     0.048 C 
HETATM   13  C   UNL     1      41.566 -10.326   9.110  1.00  0.00     0.044 C 
HETATM   14  C   UNL     1      41.941  -9.574  10.383  1.00  0.00    -0.045 A 
HETATM   15  C   UNL     1      41.106  -8.558  10.865  1.00  0.00     0.008 A 
HETATM   16  C   UNL     1      41.407  -7.918  12.067  1.00  0.00     0.001 A 
HETATM   17  C   UNL     1      42.531  -8.295  12.801  1.00  0.00     0.001 A 
HETATM   18  C   UNL     1      43.366  -9.316  12.342  1.00  0.00     0.014 A 
ENDBRANCH   2   5
BRANCH   1  19
HETATM   19  N   UNL     1      44.252 -15.171   6.696  1.00  0.00    -0.183 NA
HETATM   20  C   UNL     1      43.952 -16.411   6.912  1.00  0.00     0.153 C 
BRANCH  20  21
HETATM   21  C   UNL     1      44.053 -17.406   5.822  1.00  0.00     0.019 A 
HETATM   22  C   UNL     1      43.499 -17.151   4.568  1.00  0.00     0.110 A 
HETATM   23  C   UNL     1      43.588 -18.100   3.537  1.00  0.00     0.102 A 
HETATM   24  C   UNL     1      44.246 -19.309   3.774  1.00  0.00     0.040 A 
HETATM   25  C   UNL     1      44.804 -19.568   5.029  1.00  0.00     0.004 A 
HETATM   26  C   UNL     1      44.707 -18.622   6.050  1.00  0.00     0.016 A 
BRANCH  22  27
HETATM   27  O   UNL     1      42.850 -15.967   4.320  1.00  0.00    -0.357 OA
HETATM   28  H   UNL     1      41.962 -16.226   4.002  1.00  0.00     0.218 HD
ENDBRANCH  22  27
BRANCH  23  29
HETATM   29  O   UNL     1      42.997 -17.727   2.355  1.00  0.00    -0.353 OA
HETATM   30  C   UNL     1      43.852 -17.631   1.220  1.00  0.00     0.210 C 
ENDBRANCH  23  29
ENDBRANCH  20  21
ENDBRANCH   1  19
TORSDOF 5
ENDMDL
MODEL 3
REMARK VINA RESULT:      -8.7      3.425      3.511
REMARK  5 active torsions:
REMARK  status: ('A' for Active; 'I' for Inactive)
REMARK    1  A    between atoms: O_2  and  C_3 
REMARK    2  A    between atoms: C_4  and  O_5 
REMARK    3  A    between atoms: C_6  and  C_7 
REMARK    4  A    between atoms: N_8  and  N_9 
REMARK       I    between atoms: N_9  and  C_10 
REMARK    5  A    between atoms: C_10  and  C_11 
ROOT
HETATM    1  N   UNL     1      41.704 -14.946   5.009  1.00  0.00    -0.242 N 
HETATM    2  C   UNL     1      42.854 -15.078   4.247  1.00  0.00     0.292 C 
HETATM    3  O   UNL     1      43.753 -14.243   4.174  1.00  0.00    -0.264 OA
HETATM    4  H   UNL     1      41.026 -15.704   4.979  1.00  0.00     0.192 HD
ENDROOT
BRANCH   2   5
HETATM    5  C   UNL     1      42.901 -16.348   3.501  1.00  0.00     0.154 A 
HETATM    6  N   UNL     1      42.361 -16.484   2.266  1.00  0.00    -0.168 NA
HETATM    7  N   UNL     1      42.625 -17.766   1.929  1.00  0.00    -0.276 N 
HETATM    8  H   UNL     1      42.303 -18.103   1.029  1.00  0.00     0.189 HD
HETATM    9  C   UNL     1      43.310 -18.451   2.884  1.00  0.00     0.069 A 
HETATM   10  C   UNL     1      43.496 -17.564   3.920  1.00  0.00     0.007 A 
HETATM   11  C   UNL     1      43.778 -19.828   2.890  1.00  0.00    -0.001 A 
HETATM   12  C   UNL     1      44.241 -17.945   5.150  1.00  0.00     0.048 C 
HETATM   13  C   UNL     1      44.181 -19.471   5.387  1.00  0.00     0.044 C 
HETATM   14  C   UNL     1      44.268 -20.323   4.124  1.00  0.00    -0.045 A 
HETATM   15  C   UNL     1      44.744 -21.638   4.201  1.00  0.00     0.008 A 
HETATM   16  C   UNL     1      44.757 -22.443   3.063  1.00  0.00     0.001 A 
HETATM   17  C   UNL     1      44.284 -21.949   1.847  1.00  0.00     0.001 A 
HETATM   18  C   UNL     1      43.793 -20.644   1.757  1.00  0.00     0.014 A 
ENDBRANCH   2   5
BRANCH   1  19
HETATM   19  N   UNL     1      41.499 -13.827   5.755  1.00  0.00    -0.183 NA
HETATM   20  C   UNL     1      40.760 -12.908   5.223  1.00  0.00     0.153 C 
BRANCH  20  21
HETATM   21  C   UNL     1      40.479 -11.655   5.955  1.00  0.00     0.019 A 
HETATM   22  C   UNL     1      39.704 -11.662   7.114  1.00  0.00     0.110 A 
HETATM   23  C   UNL     1      39.432 -10.470   7.804  1.00  0.00     0.102 A 
HETATM   24  C   UNL     1      39.951  -9.266   7.323  1.00  0.00     0.040 A 
HETATM   25  C   UNL     1      40.730  -9.254   6.162  1.00  0.00     0.004 A 
HETATM   26  C   UNL     1      40.993 -10.443   5.480  1.00  0.00     0.016 A 
BRANCH  22  27
HETATM   27  O   UNL     1      39.187 -12.838   7.600  1.00  0.00    -0.357 OA
HETATM   28  H   UNL     1      38.677 -13.217   6.856  1.00  0.00     0.218 HD
ENDBRANCH  22  27
BRANCH  23  29
HETATM   29  O   UNL     1      38.653 -10.615   8.926  1.00  0.00    -0.353 OA
HETATM   30  C   UNL     1      38.633  -9.517   9.832  1.00  0.00     0.210 C 
ENDBRANCH  23  29
ENDBRANCH  20  21
ENDBRANCH   1  19
TORSDOF 5
ENDMDL
MODEL 4
REMARK VINA RESULT:      -8.7      5.967      8.057
REMARK  5 active torsions:
REMARK  status: ('A' for Active; 'I' for Inactive)
REMARK    1  A    between atoms: O_2  and  C_3 
REMARK    2  A    between atoms: C_4  and  O_5 
REMARK    3  A    between atoms: C_6  and  C_7 
REMARK    4  A    between atoms: N_8  and  N_9 
REMARK       I    between atoms: N_9  and  C_10 
REMARK    5  A    between atoms: C_10  and  C_11 
ROOT
HETATM    1  N   UNL     1      41.071 -15.559   3.002  1.00  0.00    -0.242 N 
HETATM    2  C   UNL     1      42.430 -15.379   3.211  1.00  0.00     0.292 C 
HETATM    3  O   UNL     1      43.066 -14.376   2.895  1.00  0.00    -0.264 OA
HETATM    4  H   UNL     1      40.659 -16.441   3.300  1.00  0.00     0.192 HD
ENDROOT
BRANCH   2   5
HETATM    5  C   UNL     1      43.066 -16.539   3.860  1.00  0.00     0.154 A 
HETATM    6  N   UNL     1      43.577 -16.479   5.113  1.00  0.00    -0.168 NA
HETATM    7  N   UNL     1      44.042 -17.728   5.341  1.00  0.00    -0.276 N 
HETATM    8  H   UNL     1      44.483 -17.922   6.232  1.00  0.00     0.189 HD
HETATM    9  C   UNL     1      43.849 -18.581   4.298  1.00  0.00     0.069 A 
HETATM   10  C   UNL     1      43.228 -17.839   3.318  1.00  0.00     0.007 A 
HETATM   11  C   UNL     1      44.199 -19.985   4.165  1.00  0.00    -0.001 A 
HETATM   12  C   UNL     1      42.824 -18.442   2.020  1.00  0.00     0.048 C 
HETATM   13  C   UNL     1      43.702 -19.669   1.679  1.00  0.00     0.044 C 
HETATM   14  C   UNL     1      44.071 -20.548   2.870  1.00  0.00    -0.045 A 
HETATM   15  C   UNL     1      44.382 -21.898   2.670  1.00  0.00     0.008 A 
HETATM   16  C   UNL     1      44.790 -22.688   3.745  1.00  0.00     0.001 A 
HETATM   17  C   UNL     1      44.904 -22.134   5.020  1.00  0.00     0.001 A 
HETATM   18  C   UNL     1      44.611 -20.784   5.233  1.00  0.00     0.014 A 
ENDBRANCH   2   5
BRANCH   1  19
HETATM   19  N   UNL     1      40.333 -14.585   2.407  1.00  0.00    -0.183 NA
HETATM   20  C   UNL     1      39.617 -14.947   1.391  1.00  0.00     0.153 C 
BRANCH  20  21
HETATM   21  C   UNL     1      38.779 -13.960   0.676  1.00  0.00     0.019 A 
HETATM   22  C   UNL     1      38.737 -13.935  -0.718  1.00  0.00     0.110 A 
HETATM   23  C   UNL     1      37.948 -12.992  -1.396  1.00  0.00     0.102 A 
HETATM   24  C   UNL     1      37.194 -12.075  -0.661  1.00  0.00     0.040 A 
HETATM   25  C   UNL     1      37.232 -12.097   0.736  1.00  0.00     0.004 A 
HETATM   26  C   UNL     1      38.022 -13.035   1.403  1.00  0.00     0.016 A 
BRANCH  22  27
HETATM   27  O   UNL     1      39.472 -14.831  -1.454  1.00  0.00    -0.357 OA
HETATM   28  H   UNL     1      40.211 -14.309  -1.826  1.00  0.00     0.218 HD
ENDBRANCH  22  27
BRANCH  23  29
HETATM   29  O   UNL     1      37.999 -13.072  -2.766  1.00  0.00    -0.353 OA
HETATM   30  C   UNL     1      38.657 -12.005  -3.441  1.00  0.00     0.210 C 
ENDBRANCH  23  29
ENDBRANCH  20  21
ENDBRANCH   1  19
TORSDOF 5
ENDMDL
MODEL 5
REMARK VINA RESULT:      -8.6      6.113      8.665
REMARK  5 active torsions:
REMARK  status: ('A' for Active; 'I' for Inactive)
REMARK    1  A    between atoms: O_2  and  C_3 
REMARK    2  A    between atoms: C_4  and  O_5 
REMARK    3  A    between atoms: C_6  and  C_7 
REMARK    4  A    between atoms: N_8  and  N_9 
REMARK       I    between atoms: N_9  and  C_10 
REMARK    5  A    between atoms: C_10  and  C_11 
ROOT
HETATM    1  N   UNL     1      42.464 -15.491   1.344  1.00  0.00    -0.242 N 
HETATM    2  C   UNL     1      42.001 -15.570   2.649  1.00  0.00     0.292 C 
HETATM    3  O   UNL     1      41.108 -14.872   3.124  1.00  0.00    -0.264 OA
HETATM    4  H   UNL     1      43.217 -16.119   1.071  1.00  0.00     0.192 HD
ENDROOT
BRANCH   2   5
HETATM    5  C   UNL     1      42.701 -16.596   3.442  1.00  0.00     0.154 A 
HETATM    6  N   UNL     1      43.179 -16.349   4.685  1.00  0.00    -0.168 NA
HETATM    7  N   UNL     1      43.725 -17.525   5.069  1.00  0.00    -0.276 N 
HETATM    8  H   UNL     1      44.159 -17.579   5.983  1.00  0.00     0.189 HD
HETATM    9  C   UNL     1      43.613 -18.509   4.135  1.00  0.00     0.069 A 
HETATM   10  C   UNL     1      42.964 -17.936   3.064  1.00  0.00     0.007 A 
HETATM   11  C   UNL     1      44.062 -19.890   4.178  1.00  0.00    -0.001 A 
HETATM   12  C   UNL     1      42.630 -18.719   1.844  1.00  0.00     0.048 C 
HETATM   13  C   UNL     1      43.598 -19.911   1.666  1.00  0.00     0.044 C 
HETATM   14  C   UNL     1      44.001 -20.612   2.959  1.00  0.00    -0.045 A 
HETATM   15  C   UNL     1      44.408 -21.952   2.929  1.00  0.00     0.008 A 
HETATM   16  C   UNL     1      44.847 -22.575   4.097  1.00  0.00     0.001 A 
HETATM   17  C   UNL     1      44.895 -21.865   5.297  1.00  0.00     0.001 A 
HETATM   18  C   UNL     1      44.506 -20.524   5.341  1.00  0.00     0.014 A 
ENDBRANCH   2   5
BRANCH   1  19
HETATM   19  N   UNL     1      41.928 -14.590   0.478  1.00  0.00    -0.183 NA
HETATM   20  C   UNL     1      41.252 -15.077  -0.512  1.00  0.00     0.153 C 
BRANCH  20  21
HETATM   21  C   UNL     1      40.630 -14.178  -1.508  1.00  0.00     0.019 A 
HETATM   22  C   UNL     1      41.414 -13.467  -2.416  1.00  0.00     0.110 A 
HETATM   23  C   UNL     1      40.823 -12.607  -3.356  1.00  0.00     0.102 A 
HETATM   24  C   UNL     1      39.433 -12.471  -3.381  1.00  0.00     0.040 A 
HETATM   25  C   UNL     1      38.644 -13.182  -2.473  1.00  0.00     0.004 A 
HETATM   26  C   UNL     1      39.239 -14.032  -1.539  1.00  0.00     0.016 A 
BRANCH  22  27
HETATM   27  O   UNL     1      42.781 -13.591  -2.404  1.00  0.00    -0.357 OA
HETATM   28  H   UNL     1      43.120 -12.674  -2.429  1.00  0.00     0.218 HD
ENDBRANCH  22  27
BRANCH  23  29
HETATM   29  O   UNL     1      41.706 -11.964  -4.187  1.00  0.00    -0.353 OA
HETATM   30  C   UNL     1      41.856 -10.561  -3.994  1.00  0.00     0.210 C 
ENDBRANCH  23  29
ENDBRANCH  20  21
ENDBRANCH   1  19
TORSDOF 5
ENDMDL
MODEL 6
REMARK VINA RESULT:      -8.6      6.026      8.553
REMARK  5 active torsions:
REMARK  status: ('A' for Active; 'I' for Inactive)
REMARK    1  A    between atoms: O_2  and  C_3 
REMARK    2  A    between atoms: C_4  and  O_5 
REMARK    3  A    between atoms: C_6  and  C_7 
REMARK    4  A    between atoms: N_8  and  N_9 
REMARK       I    between atoms: N_9  and  C_10 
REMARK    5  A    between atoms: C_10  and  C_11 
ROOT
HETATM    1  N   UNL     1      41.630 -15.434   1.822  1.00  0.00    -0.242 N 
HETATM    2  C   UNL     1      42.685 -15.041   2.632  1.00  0.00     0.292 C 
HETATM    3  O   UNL     1      43.274 -13.965   2.552  1.00  0.00    -0.264 OA
HETATM    4  H   UNL     1      41.231 -16.357   1.980  1.00  0.00     0.192 HD
ENDROOT
BRANCH   2   5
HETATM    5  C   UNL     1      43.054 -16.065   3.625  1.00  0.00     0.154 A 
HETATM    6  N   UNL     1      43.094 -15.805   4.954  1.00  0.00    -0.168 NA
HETATM    7  N   UNL     1      43.450 -16.984   5.511  1.00  0.00    -0.276 N 
HETATM    8  H   UNL     1      43.551 -17.030   6.518  1.00  0.00     0.189 HD
HETATM    9  C   UNL     1      43.633 -17.983   4.605  1.00  0.00     0.069 A 
HETATM   10  C   UNL     1      43.394 -17.418   3.372  1.00  0.00     0.007 A 
HETATM   11  C   UNL     1      44.008 -19.372   4.810  1.00  0.00    -0.001 A 
HETATM   12  C   UNL     1      43.470 -18.216   2.119  1.00  0.00     0.048 C 
HETATM   13  C   UNL     1      44.411 -19.430   2.289  1.00  0.00     0.044 C 
HETATM   14  C   UNL     1      44.340 -20.115   3.650  1.00  0.00    -0.045 A 
HETATM   15  C   UNL     1      44.701 -21.463   3.772  1.00  0.00     0.008 A 
HETATM   16  C   UNL     1      44.707 -22.073   5.026  1.00  0.00     0.001 A 
HETATM   17  C   UNL     1      44.369 -21.342   6.165  1.00  0.00     0.001 A 
HETATM   18  C   UNL     1      44.020 -19.993   6.061  1.00  0.00     0.014 A 
ENDBRANCH   2   5
BRANCH   1  19
HETATM   19  N   UNL     1      41.168 -14.607   0.846  1.00  0.00    -0.183 NA
HETATM   20  C   UNL     1      41.368 -14.991  -0.374  1.00  0.00     0.153 C 
BRANCH  20  21
HETATM   21  C   UNL     1      40.903 -14.160  -1.505  1.00  0.00     0.019 A 
HETATM   22  C   UNL     1      39.546 -13.897  -1.689  1.00  0.00     0.110 A 
HETATM   23  C   UNL     1      39.105 -13.115  -2.769  1.00  0.00     0.102 A 
HETATM   24  C   UNL     1      40.042 -12.590  -3.662  1.00  0.00     0.040 A 
HETATM   25  C   UNL     1      41.404 -12.849  -3.480  1.00  0.00     0.004 A 
HETATM   26  C   UNL     1      41.834 -13.632  -2.407  1.00  0.00     0.016 A 
BRANCH  22  27
HETATM   27  O   UNL     1      38.614 -14.405  -0.819  1.00  0.00    -0.357 OA
HETATM   28  H   UNL     1      38.285 -13.632  -0.318  1.00  0.00     0.218 HD
ENDBRANCH  22  27
BRANCH  23  29
HETATM   29  O   UNL     1      37.746 -12.937  -2.838  1.00  0.00    -0.353 OA
HETATM   30  C   UNL     1      37.259 -11.633  -2.539  1.00  0.00     0.210 C 
ENDBRANCH  23  29
ENDBRANCH  20  21
ENDBRANCH   1  19
TORSDOF 5
ENDMDL
MODEL 7
REMARK VINA RESULT:      -8.6      2.376      9.966
REMARK  5 active torsions:
REMARK  status: ('A' for Active; 'I' for Inactive)
REMARK    1  A    between atoms: O_2  and  C_3 
REMARK    2  A    between atoms: C_4  and  O_5 
REMARK    3  A    between atoms: C_6  and  C_7 
REMARK    4  A    between atoms: N_8  and  N_9 
REMARK       I    between atoms: N_9  and  C_10 
REMARK    5  A    between atoms: C_10  and  C_11 
ROOT
HETATM    1  N   UNL     1      42.517 -15.046   5.264  1.00  0.00    -0.242 N 
HETATM    2  C   UNL     1      43.215 -13.857   5.118  1.00  0.00     0.292 C 
HETATM    3  O   UNL     1      44.054 -13.633   4.249  1.00  0.00    -0.264 OA
HETATM    4  H   UNL     1      41.853 -15.114   6.032  1.00  0.00     0.192 HD
ENDROOT
BRANCH   2   5
HETATM    5  C   UNL     1      42.854 -12.855   6.137  1.00  0.00     0.154 A 
HETATM    6  N   UNL     1      41.767 -12.057   6.015  1.00  0.00    -0.168 NA
HETATM    7  N   UNL     1      41.778 -11.309   7.141  1.00  0.00    -0.276 N 
HETATM    8  H   UNL     1      41.045 -10.621   7.270  1.00  0.00     0.189 HD
HETATM    9  C   UNL     1      42.814 -11.595   7.976  1.00  0.00     0.069 A 
HETATM   10  C   UNL     1      43.537 -12.585   7.349  1.00  0.00     0.007 A 
HETATM   11  C   UNL     1      43.159 -11.019   9.265  1.00  0.00    -0.001 A 
HETATM   12  C   UNL     1      44.744 -13.186   7.976  1.00  0.00     0.048 C 
HETATM   13  C   UNL     1      45.404 -12.202   8.969  1.00  0.00     0.044 C 
HETATM   14  C   UNL     1      44.428 -11.367   9.792  1.00  0.00    -0.045 A 
HETATM   15  C   UNL     1      44.823 -10.857  11.036  1.00  0.00     0.008 A 
HETATM   16  C   UNL     1      43.960 -10.033  11.758  1.00  0.00     0.001 A 
HETATM   17  C   UNL     1      42.708  -9.702  11.241  1.00  0.00     0.001 A 
HETATM   18  C   UNL     1      42.305 -10.191   9.996  1.00  0.00     0.014 A 
ENDBRANCH   2   5
BRANCH   1  19
HETATM   19  N   UNL     1      42.736 -16.080   4.408  1.00  0.00    -0.183 NA
HETATM   20  C   UNL     1      43.350 -17.109   4.896  1.00  0.00     0.153 C 
BRANCH  20  21
HETATM   21  C   UNL     1      43.635 -18.284   4.045  1.00  0.00     0.019 A 
HETATM   22  C   UNL     1      44.364 -19.366   4.539  1.00  0.00     0.110 A 
HETATM   23  C   UNL     1      44.641 -20.477   3.726  1.00  0.00     0.102 A 
HETATM   24  C   UNL     1      44.173 -20.497   2.411  1.00  0.00     0.040 A 
HETATM   25  C   UNL     1      43.440 -19.416   1.912  1.00  0.00     0.004 A 
HETATM   26  C   UNL     1      43.173 -18.313   2.724  1.00  0.00     0.016 A 
BRANCH  22  27
HETATM   27  O   UNL     1      44.830 -19.360   5.830  1.00  0.00    -0.357 OA
HETATM   28  H   UNL     1      44.031 -19.442   6.389  1.00  0.00     0.218 HD
ENDBRANCH  22  27
BRANCH  23  29
HETATM   29  O   UNL     1      45.371 -21.469   4.333  1.00  0.00    -0.353 OA
HETATM   30  C   UNL     1      44.654 -22.634   4.729  1.00  0.00     0.210 C 
ENDBRANCH  23  29
ENDBRANCH  20  21
ENDBRANCH   1  19
TORSDOF 5
ENDMDL
MODEL 8
REMARK VINA RESULT:      -8.5      4.424      5.554
REMARK  5 active torsions:
REMARK  status: ('A' for Active; 'I' for Inactive)
REMARK    1  A    between atoms: O_2  and  C_3 
REMARK    2  A    between atoms: C_4  and  O_5 
REMARK    3  A    between atoms: C_6  and  C_7 
REMARK    4  A    between atoms: N_8  and  N_9 
REMARK       I    between atoms: N_9  and  C_10 
REMARK    5  A    between atoms: C_10  and  C_11 
ROOT
HETATM    1  N   UNL     1      41.751 -14.859   4.737  1.00  0.00    -0.242 N 
HETATM    2  C   UNL     1      42.925 -15.215   4.090  1.00  0.00     0.292 C 
HETATM    3  O   UNL     1      43.480 -14.550   3.218  1.00  0.00    -0.264 OA
HETATM    4  H   UNL     1      41.382 -15.500   5.436  1.00  0.00     0.192 HD
ENDROOT
BRANCH   2   5
HETATM    5  C   UNL     1      43.461 -16.507   4.553  1.00  0.00     0.154 A 
HETATM    6  N   UNL     1      43.958 -16.681   5.800  1.00  0.00    -0.168 NA
HETATM    7  N   UNL     1      44.323 -17.982   5.833  1.00  0.00    -0.276 N 
HETATM    8  H   UNL     1      44.736 -18.345   6.684  1.00  0.00     0.189 HD
HETATM    9  C   UNL     1      44.078 -18.646   4.671  1.00  0.00     0.069 A 
HETATM   10  C   UNL     1      43.529 -17.716   3.817  1.00  0.00     0.007 A 
HETATM   11  C   UNL     1      44.321 -20.037   4.322  1.00  0.00    -0.001 A 
HETATM   12  C   UNL     1      43.097 -18.079   2.440  1.00  0.00     0.048 C 
HETATM   13  C   UNL     1      43.883 -19.303   1.915  1.00  0.00     0.044 C 
HETATM   14  C   UNL     1      44.167 -20.381   2.955  1.00  0.00    -0.045 A 
HETATM   15  C   UNL     1      44.376 -21.705   2.549  1.00  0.00     0.008 A 
HETATM   16  C   UNL     1      44.708 -22.680   3.490  1.00  0.00     0.001 A 
HETATM   17  C   UNL     1      44.847 -22.340   4.835  1.00  0.00     0.001 A 
HETATM   18  C   UNL     1      44.657 -21.021   5.254  1.00  0.00     0.014 A 
ENDBRANCH   2   5
BRANCH   1  19
HETATM   19  N   UNL     1      41.120 -13.696   4.423  1.00  0.00    -0.183 NA
HETATM   20  C   UNL     1      39.964 -13.806   3.851  1.00  0.00     0.153 C 
BRANCH  20  21
HETATM   21  C   UNL     1      39.199 -12.598   3.471  1.00  0.00     0.019 A 
HETATM   22  C   UNL     1      38.920 -11.604   4.408  1.00  0.00     0.110 A 
HETATM   23  C   UNL     1      38.186 -10.463   4.048  1.00  0.00     0.102 A 
HETATM   24  C   UNL     1      37.739 -10.323   2.732  1.00  0.00     0.040 A 
HETATM   25  C   UNL     1      38.019 -11.315   1.789  1.00  0.00     0.004 A 
HETATM   26  C   UNL     1      38.745 -12.450   2.156  1.00  0.00     0.016 A 
BRANCH  22  27
HETATM   27  O   UNL     1      39.353 -11.728   5.705  1.00  0.00    -0.357 OA
HETATM   28  H   UNL     1      38.841 -12.476   6.074  1.00  0.00     0.218 HD
ENDBRANCH  22  27
BRANCH  23  29
HETATM   29  O   UNL     1      37.976  -9.565   5.065  1.00  0.00    -0.353 OA
HETATM   30  C   UNL     1      38.617  -8.300   4.938  1.00  0.00     0.210 C 
ENDBRANCH  23  29
ENDBRANCH  20  21
ENDBRANCH   1  19
TORSDOF 5
ENDMDL
MODEL 9
REMARK VINA RESULT:      -8.5      7.144     10.227
REMARK  5 active torsions:
REMARK  status: ('A' for Active; 'I' for Inactive)
REMARK    1  A    between atoms: O_2  and  C_3 
REMARK    2  A    between atoms: C_4  and  O_5 
REMARK    3  A    between atoms: C_6  and  C_7 
REMARK    4  A    between atoms: N_8  and  N_9 
REMARK       I    between atoms: N_9  and  C_10 
REMARK    5  A    between atoms: C_10  and  C_11 
ROOT
HETATM    1  N   UNL     1      42.329 -16.307  -0.084  1.00  0.00    -0.242 N 
HETATM    2  C   UNL     1      41.318 -15.359  -0.120  1.00  0.00     0.292 C 
HETATM    3  O   UNL     1      40.497 -15.169   0.775  1.00  0.00    -0.264 OA
HETATM    4  H   UNL     1      42.942 -16.376  -0.894  1.00  0.00     0.192 HD
ENDROOT
BRANCH   2   5
HETATM    5  C   UNL     1      41.311 -14.579  -1.369  1.00  0.00     0.154 A 
HETATM    6  N   UNL     1      40.882 -15.096  -2.545  1.00  0.00    -0.168 NA
HETATM    7  N   UNL     1      41.016 -14.078  -3.424  1.00  0.00    -0.276 N 
HETATM    8  H   UNL     1      40.757 -14.238  -4.390  1.00  0.00     0.189 HD
HETATM    9  C   UNL     1      41.504 -12.937  -2.866  1.00  0.00     0.069 A 
HETATM   10  C   UNL     1      41.715 -13.231  -1.537  1.00  0.00     0.007 A 
HETATM   11  C   UNL     1      41.779 -11.645  -3.473  1.00  0.00    -0.001 A 
HETATM   12  C   UNL     1      42.225 -12.210  -0.583  1.00  0.00     0.048 C 
HETATM   13  C   UNL     1      43.043 -11.122  -1.316  1.00  0.00     0.044 C 
HETATM   14  C   UNL     1      42.496 -10.714  -2.680  1.00  0.00    -0.045 A 
HETATM   15  C   UNL     1      42.787  -9.446  -3.198  1.00  0.00     0.008 A 
HETATM   16  C   UNL     1      42.351  -9.096  -4.475  1.00  0.00     0.001 A 
HETATM   17  C   UNL     1      41.635 -10.010  -5.248  1.00  0.00     0.001 A 
HETATM   18  C   UNL     1      41.349 -11.285  -4.752  1.00  0.00     0.014 A 
ENDBRANCH   2   5
BRANCH   1  19
HETATM   19  N   UNL     1      42.472 -17.118   0.998  1.00  0.00    -0.183 NA
HETATM   20  C   UNL     1      43.661 -17.584   1.213  1.00  0.00     0.153 C 
BRANCH  20  21
HETATM   21  C   UNL     1      43.918 -18.475   2.365  1.00  0.00     0.019 A 
HETATM   22  C   UNL     1      43.841 -17.996   3.672  1.00  0.00     0.110 A 
HETATM   23  C   UNL     1      44.094 -18.842   4.764  1.00  0.00     0.102 A 
HETATM   24  C   UNL     1      44.419 -20.180   4.532  1.00  0.00     0.040 A 
HETATM   25  C   UNL     1      44.495 -20.666   3.224  1.00  0.00     0.004 A 
HETATM   26  C   UNL     1      44.247 -19.818   2.144  1.00  0.00     0.016 A 
BRANCH  22  27
HETATM   27  O   UNL     1      43.523 -16.683   3.915  1.00  0.00    -0.357 OA
HETATM   28  H   UNL     1      43.828 -16.196   3.122  1.00  0.00     0.218 HD
ENDBRANCH  22  27
BRANCH  23  29
HETATM   29  O   UNL     1      43.991 -18.243   5.995  1.00  0.00    -0.353 OA
HETATM   30  C   UNL     1      45.207 -18.034   6.704  1.00  0.00     0.210 C 
ENDBRANCH  23  29
ENDBRANCH  20  21
ENDBRANCH   1  19
TORSDOF 5
ENDMDL
MODEL 10
REMARK VINA RESULT:      -8.4      7.320      9.874
REMARK  5 active torsions:
REMARK  status: ('A' for Active; 'I' for Inactive)
REMARK    1  A    between atoms: O_2  and  C_3 
REMARK    2  A    between atoms: C_4  and  O_5 
REMARK    3  A    between atoms: C_6  and  C_7 
REMARK    4  A    between atoms: N_8  and  N_9 
REMARK       I    between atoms: N_9  and  C_10 
REMARK    5  A    between atoms: C_10  and  C_11 
ROOT
HETATM    1  N   UNL     1      40.506 -14.339   0.992  1.00  0.00    -0.242 N 
HETATM    2  C   UNL     1      39.876 -15.132   1.938  1.00  0.00     0.292 C 
HETATM    3  O   UNL     1      38.659 -15.270   2.046  1.00  0.00    -0.264 OA
HETATM    4  H   UNL     1      41.523 -14.298   1.009  1.00  0.00     0.192 HD
ENDROOT
BRANCH   2   5
HETATM    5  C   UNL     1      40.825 -15.812   2.836  1.00  0.00     0.154 A 
HETATM    6  N   UNL     1      41.039 -15.403   4.109  1.00  0.00    -0.168 NA
HETATM    7  N   UNL     1      41.947 -16.281   4.591  1.00  0.00    -0.276 N 
HETATM    8  H   UNL     1      42.269 -16.166   5.545  1.00  0.00     0.189 HD
HETATM    9  C   UNL     1      42.318 -17.232   3.691  1.00  0.00     0.069 A 
HETATM   10  C   UNL     1      41.617 -16.950   2.540  1.00  0.00     0.007 A 
HETATM   11  C   UNL     1      43.251 -18.337   3.832  1.00  0.00    -0.001 A 
HETATM   12  C   UNL     1      41.737 -17.799   1.324  1.00  0.00     0.048 C 
HETATM   13  C   UNL     1      43.099 -18.531   1.290  1.00  0.00     0.044 C 
HETATM   14  C   UNL     1      43.599 -19.026   2.643  1.00  0.00    -0.045 A 
HETATM   15  C   UNL     1      44.486 -20.108   2.706  1.00  0.00     0.008 A 
HETATM   16  C   UNL     1      45.002 -20.517   3.935  1.00  0.00     0.001 A 
HETATM   17  C   UNL     1      44.649 -19.844   5.105  1.00  0.00     0.001 A 
HETATM   18  C   UNL     1      43.777 -18.754   5.057  1.00  0.00     0.014 A 
ENDBRANCH   2   5
BRANCH   1  19
HETATM   19  N   UNL     1      39.774 -13.635   0.087  1.00  0.00    -0.183 NA
HETATM   20  C   UNL     1      39.449 -14.259  -0.999  1.00  0.00     0.153 C 
BRANCH  20  21
HETATM   21  C   UNL     1      38.654 -13.578  -2.043  1.00  0.00     0.019 A 
HETATM   22  C   UNL     1      37.907 -14.312  -2.965  1.00  0.00     0.110 A 
HETATM   23  C   UNL     1      37.159 -13.664  -3.962  1.00  0.00     0.102 A 
HETATM   24  C   UNL     1      37.161 -12.269  -4.022  1.00  0.00     0.040 A 
HETATM   25  C   UNL     1      37.907 -11.530  -3.099  1.00  0.00     0.004 A 
HETATM   26  C   UNL     1      38.651 -12.181  -2.114  1.00  0.00     0.016 A 
BRANCH  22  27
HETATM   27  O   UNL     1      37.894 -15.684  -2.918  1.00  0.00    -0.357 OA
HETATM   28  H   UNL     1      37.758 -15.969  -3.844  1.00  0.00     0.218 HD
ENDBRANCH  22  27
BRANCH  23  29
HETATM   29  O   UNL     1      36.474 -14.502  -4.807  1.00  0.00    -0.353 OA
HETATM   30  C   UNL     1      35.121 -14.157  -5.084  1.00  0.00     0.210 C 
ENDBRANCH  23  29
ENDBRANCH  20  21
ENDBRANCH   1  19
TORSDOF 5
ENDMDL
