MODEL 1
REMARK VINA RESULT:      -8.1      0.000      0.000
REMARK  4 active torsions:
REMARK  status: ('A' for Active; 'I' for Inactive)
REMARK    1  A    between atoms: C_2  and  C_3 
REMARK    2  A    between atoms: C_5  and  C_6 
REMARK       I    between atoms: C_6  and  N_7 
REMARK    3  A    between atoms: N_7  and  C_8 
REMARK    4  A    between atoms: C_10  and  C_11 
ROOT
HETATM    1  C   UNL     1      41.591 -16.663   1.747  1.00  0.00     0.035 A 
HETATM    2  C   UNL     1      41.772 -16.266   0.418  1.00  0.00     0.042 A 
HETATM    3  C   UNL     1      40.931 -15.306  -0.175  1.00  0.00    -0.021 A 
HETATM    4  C   UNL     1      39.897 -14.753   0.590  1.00  0.00     0.012 A 
HETATM    5  C   UNL     1      39.711 -15.140   1.918  1.00  0.00     0.003 A 
HETATM    6  C   UNL     1      40.558 -16.085   2.493  1.00  0.00     0.029 A 
ENDROOT
BRANCH   1   7
HETATM    7  N   UNL     1      42.405 -17.605   2.404  1.00  0.00    -0.321 N 
HETATM    8  C   UNL     1      43.301 -17.401   3.439  1.00  0.00     0.280 C 
HETATM    9  O   UNL     1      43.570 -16.312   3.939  1.00  0.00    -0.265 OA
HETATM   10  H   UNL     1      42.359 -18.564   2.076  1.00  0.00     0.169 HD
BRANCH   8  11
HETATM   11  C   UNL     1      43.929 -18.639   3.880  1.00  0.00     0.149 A 
HETATM   12  O   UNL     1      43.918 -19.719   3.032  1.00  0.00    -0.309 OA
HETATM   13  C   UNL     1      44.524 -20.752   3.677  1.00  0.00     0.054 A 
HETATM   14  C   UNL     1      44.947 -20.347   4.923  1.00  0.00     0.042 A 
HETATM   15  C   UNL     1      44.570 -18.982   5.062  1.00  0.00    -0.020 A 
HETATM   16  C   UNL     1      44.809 -18.111   6.240  1.00  0.00     0.051 C 
BRANCH  13  17
HETATM   17  C   UNL     1      44.592 -22.042   2.948  1.00  0.00     0.060 C 
HETATM   18  C   UNL     1      43.977 -21.938   1.563  1.00  0.00     0.012 C 
ENDBRANCH  13  17
ENDBRANCH   8  11
ENDBRANCH   1   7
BRANCH   3  19
HETATM   19  C   UNL     1      41.131 -14.875  -1.550  1.00  0.00     0.010 A 
HETATM   20  C   UNL     1      40.750 -15.476  -2.775  1.00  0.00     0.152 A 
HETATM   21  N   UNL     1      41.123 -14.765  -3.843  1.00  0.00    -0.187 NA
HETATM   22  N   UNL     1      41.743 -13.702  -3.308  1.00  0.00    -0.289 N 
HETATM   23  H   UNL     1      42.120 -12.998  -3.935  1.00  0.00     0.188 HD
HETATM   24  C   UNL     1      41.780 -13.723  -1.944  1.00  0.00     0.123 A 
ENDBRANCH   3  19
TORSDOF 4
ENDMDL
MODEL 2
REMARK VINA RESULT:      -8.0      2.643      7.897
REMARK  4 active torsions:
REMARK  status: ('A' for Active; 'I' for Inactive)
REMARK    1  A    between atoms: C_2  and  C_3 
REMARK    2  A    between atoms: C_5  and  C_6 
REMARK       I    between atoms: C_6  and  N_7 
REMARK    3  A    between atoms: N_7  and  C_8 
REMARK    4  A    between atoms: C_10  and  C_11 
ROOT
HETATM    1  C   UNL     1      43.295 -17.713   2.714  1.00  0.00     0.035 A 
HETATM    2  C   UNL     1      43.245 -17.439   4.086  1.00  0.00     0.042 A 
HETATM    3  C   UNL     1      43.735 -18.361   5.029  1.00  0.00    -0.021 A 
HETATM    4  C   UNL     1      44.273 -19.570   4.572  1.00  0.00     0.012 A 
HETATM    5  C   UNL     1      44.330 -19.850   3.206  1.00  0.00     0.003 A 
HETATM    6  C   UNL     1      43.849 -18.923   2.284  1.00  0.00     0.029 A 
ENDROOT
BRANCH   1   7
HETATM    7  N   UNL     1      42.836 -16.829   1.719  1.00  0.00    -0.321 N 
HETATM    8  C   UNL     1      41.534 -16.571   1.326  1.00  0.00     0.280 C 
HETATM    9  O   UNL     1      40.535 -17.128   1.773  1.00  0.00    -0.265 OA
HETATM   10  H   UNL     1      43.538 -16.318   1.194  1.00  0.00     0.169 HD
BRANCH   8  11
HETATM   11  C   UNL     1      41.461 -15.555   0.284  1.00  0.00     0.149 A 
HETATM   12  O   UNL     1      41.189 -15.953  -1.002  1.00  0.00    -0.309 OA
HETATM   13  C   UNL     1      41.211 -14.841  -1.786  1.00  0.00     0.054 A 
HETATM   14  C   UNL     1      41.470 -13.728  -1.020  1.00  0.00     0.042 A 
HETATM   15  C   UNL     1      41.629 -14.179   0.320  1.00  0.00    -0.020 A 
HETATM   16  C   UNL     1      41.926 -13.341   1.509  1.00  0.00     0.051 C 
BRANCH  13  17
HETATM   17  C   UNL     1      40.973 -15.047  -3.236  1.00  0.00     0.060 C 
HETATM   18  C   UNL     1      39.814 -15.997  -3.486  1.00  0.00     0.012 C 
ENDBRANCH  13  17
ENDBRANCH   8  11
ENDBRANCH   1   7
BRANCH   3  19
HETATM   19  C   UNL     1      43.705 -18.069   6.454  1.00  0.00     0.010 A 
HETATM   20  C   UNL     1      43.465 -16.857   7.147  1.00  0.00     0.152 A 
HETATM   21  N   UNL     1      43.527 -16.995   8.475  1.00  0.00    -0.187 NA
HETATM   22  N   UNL     1      43.802 -18.298   8.640  1.00  0.00    -0.289 N 
HETATM   23  H   UNL     1      43.896 -18.655   9.586  1.00  0.00     0.188 HD
HETATM   24  C   UNL     1      43.924 -18.982   7.465  1.00  0.00     0.123 A 
ENDBRANCH   3  19
TORSDOF 4
ENDMDL
MODEL 3
REMARK VINA RESULT:      -8.0      2.657      7.932
REMARK  4 active torsions:
REMARK  status: ('A' for Active; 'I' for Inactive)
REMARK    1  A    between atoms: C_2  and  C_3 
REMARK    2  A    between atoms: C_5  and  C_6 
REMARK       I    between atoms: C_6  and  N_7 
REMARK    3  A    between atoms: N_7  and  C_8 
REMARK    4  A    between atoms: C_10  and  C_11 
ROOT
HETATM    1  C   UNL     1      42.951 -16.618   1.471  1.00  0.00     0.035 A 
HETATM    2  C   UNL     1      43.297 -17.973   1.446  1.00  0.00     0.042 A 
HETATM    3  C   UNL     1      43.586 -18.672   2.632  1.00  0.00    -0.021 A 
HETATM    4  C   UNL     1      43.528 -17.983   3.850  1.00  0.00     0.012 A 
HETATM    5  C   UNL     1      43.181 -16.632   3.886  1.00  0.00     0.003 A 
HETATM    6  C   UNL     1      42.888 -15.957   2.702  1.00  0.00     0.029 A 
ENDROOT
BRANCH   1   7
HETATM    7  N   UNL     1      42.636 -15.865   0.324  1.00  0.00    -0.321 N 
HETATM    8  C   UNL     1      41.427 -15.288  -0.026  1.00  0.00     0.280 C 
HETATM    9  O   UNL     1      40.385 -15.381   0.616  1.00  0.00    -0.265 OA
HETATM   10  H   UNL     1      43.373 -15.735  -0.361  1.00  0.00     0.169 HD
BRANCH   8  11
HETATM   11  C   UNL     1      41.509 -14.549  -1.279  1.00  0.00     0.149 A 
HETATM   12  O   UNL     1      42.109 -13.314  -1.275  1.00  0.00    -0.309 OA
HETATM   13  C   UNL     1      42.028 -12.816  -2.538  1.00  0.00     0.054 A 
HETATM   14  C   UNL     1      41.405 -13.723  -3.364  1.00  0.00     0.042 A 
HETATM   15  C   UNL     1      41.069 -14.848  -2.560  1.00  0.00    -0.020 A 
HETATM   16  C   UNL     1      40.378 -16.084  -3.008  1.00  0.00     0.051 C 
BRANCH  13  17
HETATM   17  C   UNL     1      42.591 -11.460  -2.755  1.00  0.00     0.060 C 
HETATM   18  C   UNL     1      43.192 -10.892  -1.481  1.00  0.00     0.012 C 
ENDBRANCH  13  17
ENDBRANCH   8  11
ENDBRANCH   1   7
BRANCH   3  19
HETATM   19  C   UNL     1      43.924 -20.087   2.610  1.00  0.00     0.010 A 
HETATM   20  C   UNL     1      43.610 -21.101   1.672  1.00  0.00     0.152 A 
HETATM   21  N   UNL     1      44.105 -22.295   2.010  1.00  0.00    -0.187 NA
HETATM   22  N   UNL     1      44.743 -22.052   3.165  1.00  0.00    -0.289 N 
HETATM   23  H   UNL     1      45.215 -22.823   3.626  1.00  0.00     0.188 HD
HETATM   24  C   UNL     1      44.660 -20.751   3.569  1.00  0.00     0.123 A 
ENDBRANCH   3  19
TORSDOF 4
ENDMDL
MODEL 4
REMARK VINA RESULT:      -8.0      2.518      7.645
REMARK  4 active torsions:
REMARK  status: ('A' for Active; 'I' for Inactive)
REMARK    1  A    between atoms: C_2  and  C_3 
REMARK    2  A    between atoms: C_5  and  C_6 
REMARK       I    between atoms: C_6  and  N_7 
REMARK    3  A    between atoms: N_7  and  C_8 
REMARK    4  A    between atoms: C_10  and  C_11 
ROOT
HETATM    1  C   UNL     1      43.288 -17.391   2.922  1.00  0.00     0.035 A 
HETATM    2  C   UNL     1      43.631 -18.744   2.822  1.00  0.00     0.042 A 
HETATM    3  C   UNL     1      44.081 -19.464   3.943  1.00  0.00    -0.021 A 
HETATM    4  C   UNL     1      44.189 -18.800   5.172  1.00  0.00     0.012 A 
HETATM    5  C   UNL     1      43.846 -17.451   5.281  1.00  0.00     0.003 A 
HETATM    6  C   UNL     1      43.393 -16.754   4.163  1.00  0.00     0.029 A 
ENDROOT
BRANCH   1   7
HETATM    7  N   UNL     1      42.818 -16.618   1.844  1.00  0.00    -0.321 N 
HETATM    8  C   UNL     1      41.509 -16.374   1.461  1.00  0.00     0.280 C 
HETATM    9  O   UNL     1      40.514 -16.849   2.000  1.00  0.00    -0.265 OA
HETATM   10  H   UNL     1      43.514 -16.191   1.242  1.00  0.00     0.169 HD
BRANCH   8  11
HETATM   11  C   UNL     1      41.426 -15.485   0.310  1.00  0.00     0.149 A 
HETATM   12  O   UNL     1      41.145 -16.029  -0.920  1.00  0.00    -0.309 OA
HETATM   13  C   UNL     1      41.157 -15.016  -1.827  1.00  0.00     0.054 A 
HETATM   14  C   UNL     1      41.419 -13.821  -1.196  1.00  0.00     0.042 A 
HETATM   15  C   UNL     1      41.591 -14.114   0.185  1.00  0.00    -0.020 A 
HETATM   16  C   UNL     1      41.894 -13.143   1.267  1.00  0.00     0.051 C 
BRANCH  13  17
HETATM   17  C   UNL     1      40.909 -15.387  -3.242  1.00  0.00     0.060 C 
HETATM   18  C   UNL     1      39.441 -15.247  -3.609  1.00  0.00     0.012 C 
ENDBRANCH  13  17
ENDBRANCH   8  11
ENDBRANCH   1   7
BRANCH   3  19
HETATM   19  C   UNL     1      44.416 -20.877   3.847  1.00  0.00     0.010 A 
HETATM   20  C   UNL     1      44.412 -21.757   2.738  1.00  0.00     0.152 A 
HETATM   21  N   UNL     1      44.784 -23.000   3.056  1.00  0.00    -0.187 NA
HETATM   22  N   UNL     1      45.035 -22.922   4.372  1.00  0.00    -0.289 N 
HETATM   23  H   UNL     1      45.346 -23.759   4.855  1.00  0.00     0.188 HD
HETATM   24  C   UNL     1      44.825 -21.678   4.893  1.00  0.00     0.123 A 
ENDBRANCH   3  19
TORSDOF 4
ENDMDL
MODEL 5
REMARK VINA RESULT:      -7.8      3.579      7.786
REMARK  4 active torsions:
REMARK  status: ('A' for Active; 'I' for Inactive)
REMARK    1  A    between atoms: C_2  and  C_3 
REMARK    2  A    between atoms: C_5  and  C_6 
REMARK       I    between atoms: C_6  and  N_7 
REMARK    3  A    between atoms: N_7  and  C_8 
REMARK    4  A    between atoms: C_10  and  C_11 
ROOT
HETATM    1  C   UNL     1      43.212 -17.316   4.646  1.00  0.00     0.035 A 
HETATM    2  C   UNL     1      43.393 -18.583   4.080  1.00  0.00     0.042 A 
HETATM    3  C   UNL     1      44.319 -19.495   4.619  1.00  0.00    -0.021 A 
HETATM    4  C   UNL     1      45.068 -19.111   5.739  1.00  0.00     0.012 A 
HETATM    5  C   UNL     1      44.892 -17.851   6.312  1.00  0.00     0.003 A 
HETATM    6  C   UNL     1      43.965 -16.963   5.771  1.00  0.00     0.029 A 
ENDROOT
BRANCH   1   7
HETATM    7  N   UNL     1      42.295 -16.364   4.165  1.00  0.00    -0.321 N 
HETATM    8  C   UNL     1      41.116 -15.929   4.747  1.00  0.00     0.280 C 
HETATM    9  O   UNL     1      40.645 -16.354   5.798  1.00  0.00    -0.265 OA
HETATM   10  H   UNL     1      42.493 -15.944   3.263  1.00  0.00     0.169 HD
BRANCH   8  11
HETATM   11  C   UNL     1      40.457 -14.896   3.958  1.00  0.00     0.149 A 
HETATM   12  O   UNL     1      39.693 -15.279   2.883  1.00  0.00    -0.309 OA
HETATM   13  C   UNL     1      39.221 -14.148   2.293  1.00  0.00     0.054 A 
HETATM   14  C   UNL     1      39.651 -13.040   2.987  1.00  0.00     0.042 A 
HETATM   15  C   UNL     1      40.447 -13.513   4.067  1.00  0.00    -0.020 A 
HETATM   16  C   UNL     1      41.133 -12.688   5.093  1.00  0.00     0.051 C 
BRANCH  13  17
HETATM   17  C   UNL     1      38.390 -14.329   1.078  1.00  0.00     0.060 C 
HETATM   18  C   UNL     1      37.473 -13.141   0.842  1.00  0.00     0.012 C 
ENDBRANCH  13  17
ENDBRANCH   8  11
ENDBRANCH   1   7
BRANCH   3  19
HETATM   19  C   UNL     1      44.491 -20.821   4.046  1.00  0.00     0.010 A 
HETATM   20  C   UNL     1      44.393 -21.273   2.707  1.00  0.00     0.152 A 
HETATM   21  N   UNL     1      44.621 -22.583   2.580  1.00  0.00    -0.187 NA
HETATM   22  N   UNL     1      44.871 -22.979   3.838  1.00  0.00    -0.289 N 
HETATM   23  H   UNL     1      45.082 -23.958   4.003  1.00  0.00     0.188 HD
HETATM   24  C   UNL     1      44.800 -21.967   4.751  1.00  0.00     0.123 A 
ENDBRANCH   3  19
TORSDOF 4
ENDMDL
MODEL 6
REMARK VINA RESULT:      -7.7      3.781      7.836
REMARK  4 active torsions:
REMARK  status: ('A' for Active; 'I' for Inactive)
REMARK    1  A    between atoms: C_2  and  C_3 
REMARK    2  A    between atoms: C_5  and  C_6 
REMARK       I    between atoms: C_6  and  N_7 
REMARK    3  A    between atoms: N_7  and  C_8 
REMARK    4  A    between atoms: C_10  and  C_11 
ROOT
HETATM    1  C   UNL     1      43.223 -17.291   4.883  1.00  0.00     0.035 A 
HETATM    2  C   UNL     1      43.260 -18.363   3.985  1.00  0.00     0.042 A 
HETATM    3  C   UNL     1      44.154 -19.434   4.169  1.00  0.00    -0.021 A 
HETATM    4  C   UNL     1      45.018 -19.409   5.271  1.00  0.00     0.012 A 
HETATM    5  C   UNL     1      44.986 -18.345   6.173  1.00  0.00     0.003 A 
HETATM    6  C   UNL     1      44.088 -17.296   5.982  1.00  0.00     0.029 A 
ENDROOT
BRANCH   1   7
HETATM    7  N   UNL     1      42.344 -16.198   4.766  1.00  0.00    -0.321 N 
HETATM    8  C   UNL     1      41.136 -15.987   5.408  1.00  0.00     0.280 C 
HETATM    9  O   UNL     1      40.599 -16.773   6.183  1.00  0.00    -0.265 OA
HETATM   10  H   UNL     1      42.602 -15.465   4.112  1.00  0.00     0.169 HD
BRANCH   8  11
HETATM   11  C   UNL     1      40.536 -14.708   5.053  1.00  0.00     0.149 A 
HETATM   12  O   UNL     1      40.490 -13.718   6.004  1.00  0.00    -0.309 OA
HETATM   13  C   UNL     1      39.858 -12.648   5.450  1.00  0.00     0.054 A 
HETATM   14  C   UNL     1      39.516 -12.925   4.147  1.00  0.00     0.042 A 
HETATM   15  C   UNL     1      39.953 -14.252   3.880  1.00  0.00    -0.020 A 
HETATM   16  C   UNL     1      39.804 -14.996   2.603  1.00  0.00     0.051 C 
BRANCH  13  17
HETATM   17  C   UNL     1      39.667 -11.464   6.324  1.00  0.00     0.060 C 
HETATM   18  C   UNL     1      40.970 -11.027   6.970  1.00  0.00     0.012 C 
ENDBRANCH  13  17
ENDBRANCH   8  11
ENDBRANCH   1   7
BRANCH   3  19
HETATM   19  C   UNL     1      44.179 -20.561   3.249  1.00  0.00     0.010 A 
HETATM   20  C   UNL     1      44.672 -21.879   3.410  1.00  0.00     0.152 A 
HETATM   21  N   UNL     1      44.514 -22.633   2.319  1.00  0.00    -0.187 NA
HETATM   22  N   UNL     1      43.913 -21.803   1.452  1.00  0.00    -0.289 N 
HETATM   23  H   UNL     1      43.679 -22.156   0.529  1.00  0.00     0.188 HD
HETATM   24  C   UNL     1      43.696 -20.554   1.956  1.00  0.00     0.123 A 
ENDBRANCH   3  19
TORSDOF 4
ENDMDL
MODEL 7
REMARK VINA RESULT:      -7.6      2.662      8.223
REMARK  4 active torsions:
REMARK  status: ('A' for Active; 'I' for Inactive)
REMARK    1  A    between atoms: C_2  and  C_3 
REMARK    2  A    between atoms: C_5  and  C_6 
REMARK       I    between atoms: C_6  and  N_7 
REMARK    3  A    between atoms: N_7  and  C_8 
REMARK    4  A    between atoms: C_10  and  C_11 
ROOT
HETATM    1  C   UNL     1      43.202 -17.237   2.186  1.00  0.00     0.035 A 
HETATM    2  C   UNL     1      43.099 -17.140   3.578  1.00  0.00     0.042 A 
HETATM    3  C   UNL     1      43.477 -18.209   4.411  1.00  0.00    -0.021 A 
HETATM    4  C   UNL     1      43.958 -19.385   3.822  1.00  0.00     0.012 A 
HETATM    5  C   UNL     1      44.068 -19.489   2.434  1.00  0.00     0.003 A 
HETATM    6  C   UNL     1      43.697 -18.418   1.623  1.00  0.00     0.029 A 
ENDROOT
BRANCH   1   7
HETATM    7  N   UNL     1      42.855 -16.201   1.298  1.00  0.00    -0.321 N 
HETATM    8  C   UNL     1      41.594 -15.757   0.939  1.00  0.00     0.280 C 
HETATM    9  O   UNL     1      40.535 -16.245   1.323  1.00  0.00    -0.265 OA
HETATM   10  H   UNL     1      43.616 -15.717   0.832  1.00  0.00     0.169 HD
BRANCH   8  11
HETATM   11  C   UNL     1      41.646 -14.629   0.019  1.00  0.00     0.149 A 
HETATM   12  O   UNL     1      42.053 -13.408   0.500  1.00  0.00    -0.309 OA
HETATM   13  C   UNL     1      41.981 -12.520  -0.528  1.00  0.00     0.054 A 
HETATM   14  C   UNL     1      41.556 -13.155  -1.672  1.00  0.00     0.042 A 
HETATM   15  C   UNL     1      41.340 -14.519  -1.329  1.00  0.00    -0.020 A 
HETATM   16  C   UNL     1      40.873 -15.599  -2.235  1.00  0.00     0.051 C 
BRANCH  13  17
HETATM   17  C   UNL     1      42.348 -11.116  -0.219  1.00  0.00     0.060 C 
HETATM   18  C   UNL     1      43.317 -10.551  -1.244  1.00  0.00     0.012 C 
ENDBRANCH  13  17
ENDBRANCH   8  11
ENDBRANCH   1   7
BRANCH   3  19
HETATM   19  C   UNL     1      43.391 -18.102   5.860  1.00  0.00     0.010 A 
HETATM   20  C   UNL     1      42.873 -17.074   6.685  1.00  0.00     0.152 A 
HETATM   21  N   UNL     1      42.979 -17.348   7.988  1.00  0.00    -0.187 NA
HETATM   22  N   UNL     1      43.564 -18.556   8.006  1.00  0.00    -0.289 N 
HETATM   23  H   UNL     1      43.750 -18.988   8.905  1.00  0.00     0.188 HD
HETATM   24  C   UNL     1      43.835 -19.047   6.762  1.00  0.00     0.123 A 
ENDBRANCH   3  19
TORSDOF 4
ENDMDL
MODEL 8
REMARK VINA RESULT:      -7.6      6.057      9.017
REMARK  4 active torsions:
REMARK  status: ('A' for Active; 'I' for Inactive)
REMARK    1  A    between atoms: C_2  and  C_3 
REMARK    2  A    between atoms: C_5  and  C_6 
REMARK       I    between atoms: C_6  and  N_7 
REMARK    3  A    between atoms: N_7  and  C_8 
REMARK    4  A    between atoms: C_10  and  C_11 
ROOT
HETATM    1  C   UNL     1      44.848 -13.754   7.482  1.00  0.00     0.035 A 
HETATM    2  C   UNL     1      44.269 -13.192   8.625  1.00  0.00     0.042 A 
HETATM    3  C   UNL     1      44.912 -12.159   9.332  1.00  0.00    -0.021 A 
HETATM    4  C   UNL     1      46.154 -11.702   8.875  1.00  0.00     0.012 A 
HETATM    5  C   UNL     1      46.738 -12.254   7.734  1.00  0.00     0.003 A 
HETATM    6  C   UNL     1      46.084 -13.270   7.039  1.00  0.00     0.029 A 
ENDROOT
BRANCH   1   7
HETATM    7  N   UNL     1      44.252 -14.777   6.721  1.00  0.00    -0.321 N 
HETATM    8  C   UNL     1      43.745 -15.991   7.153  1.00  0.00     0.280 C 
HETATM    9  O   UNL     1      43.776 -16.401   8.310  1.00  0.00    -0.265 OA
HETATM   10  H   UNL     1      44.195 -14.636   5.718  1.00  0.00     0.169 HD
BRANCH   8  11
HETATM   11  C   UNL     1      43.168 -16.769   6.064  1.00  0.00     0.149 A 
HETATM   12  O   UNL     1      44.001 -17.558   5.309  1.00  0.00    -0.309 OA
HETATM   13  C   UNL     1      43.243 -18.147   4.345  1.00  0.00     0.054 A 
HETATM   14  C   UNL     1      41.927 -17.767   4.482  1.00  0.00     0.042 A 
HETATM   15  C   UNL     1      41.869 -16.880   5.593  1.00  0.00    -0.020 A 
HETATM   16  C   UNL     1      40.659 -16.205   6.127  1.00  0.00     0.051 C 
BRANCH  13  17
HETATM   17  C   UNL     1      43.954 -19.026   3.385  1.00  0.00     0.060 C 
HETATM   18  C   UNL     1      43.570 -18.715   1.949  1.00  0.00     0.012 C 
ENDBRANCH  13  17
ENDBRANCH   8  11
ENDBRANCH   1   7
BRANCH   3  19
HETATM   19  C   UNL     1      44.301 -11.557  10.508  1.00  0.00     0.010 A 
HETATM   20  C   UNL     1      43.764 -12.147  11.678  1.00  0.00     0.152 A 
HETATM   21  N   UNL     1      43.284 -11.248  12.542  1.00  0.00    -0.187 NA
HETATM   22  N   UNL     1      43.516 -10.076  11.932  1.00  0.00    -0.289 N 
HETATM   23  H   UNL     1      43.236  -9.222  12.405  1.00  0.00     0.188 HD
HETATM   24  C   UNL     1      44.115 -10.205  10.713  1.00  0.00     0.123 A 
ENDBRANCH   3  19
TORSDOF 4
ENDMDL
MODEL 9
REMARK VINA RESULT:      -7.4      2.679      7.755
REMARK  4 active torsions:
REMARK  status: ('A' for Active; 'I' for Inactive)
REMARK    1  A    between atoms: C_2  and  C_3 
REMARK    2  A    between atoms: C_5  and  C_6 
REMARK       I    between atoms: C_6  and  N_7 
REMARK    3  A    between atoms: N_7  and  C_8 
REMARK    4  A    between atoms: C_10  and  C_11 
ROOT
HETATM    1  C   UNL     1      41.515 -16.728   1.445  1.00  0.00     0.035 A 
HETATM    2  C   UNL     1      42.414 -17.788   1.607  1.00  0.00     0.042 A 
HETATM    3  C   UNL     1      42.651 -18.353   2.873  1.00  0.00    -0.021 A 
HETATM    4  C   UNL     1      41.974 -17.830   3.982  1.00  0.00     0.012 A 
HETATM    5  C   UNL     1      41.073 -16.774   3.829  1.00  0.00     0.003 A 
HETATM    6  C   UNL     1      40.842 -16.232   2.566  1.00  0.00     0.029 A 
ENDROOT
BRANCH   1   7
HETATM    7  N   UNL     1      41.222 -16.129   0.205  1.00  0.00    -0.321 N 
HETATM    8  C   UNL     1      41.481 -14.834  -0.211  1.00  0.00     0.280 C 
HETATM    9  O   UNL     1      41.991 -13.956   0.479  1.00  0.00    -0.265 OA
HETATM   10  H   UNL     1      40.737 -16.698  -0.481  1.00  0.00     0.169 HD
BRANCH   8  11
HETATM   11  C   UNL     1      41.061 -14.601  -1.587  1.00  0.00     0.149 A 
HETATM   12  O   UNL     1      40.001 -15.321  -2.080  1.00  0.00    -0.309 OA
HETATM   13  C   UNL     1      39.829 -14.956  -3.380  1.00  0.00     0.054 A 
HETATM   14  C   UNL     1      40.748 -13.992  -3.725  1.00  0.00     0.042 A 
HETATM   15  C   UNL     1      41.547 -13.753  -2.572  1.00  0.00    -0.020 A 
HETATM   16  C   UNL     1      42.676 -12.796  -2.457  1.00  0.00     0.051 C 
BRANCH  13  17
HETATM   17  C   UNL     1      38.746 -15.644  -4.125  1.00  0.00     0.060 C 
HETATM   18  C   UNL     1      37.385 -15.039  -3.823  1.00  0.00     0.012 C 
ENDBRANCH  13  17
ENDBRANCH   8  11
ENDBRANCH   1   7
BRANCH   3  19
HETATM   19  C   UNL     1      43.568 -19.471   3.040  1.00  0.00     0.010 A 
HETATM   20  C   UNL     1      44.446 -19.799   4.102  1.00  0.00     0.152 A 
HETATM   21  N   UNL     1      45.136 -20.921   3.880  1.00  0.00    -0.187 NA
HETATM   22  N   UNL     1      44.701 -21.321   2.676  1.00  0.00    -0.289 N 
HETATM   23  H   UNL     1      45.085 -22.175   2.283  1.00  0.00     0.188 HD
HETATM   24  C   UNL     1      43.769 -20.487   2.129  1.00  0.00     0.123 A 
ENDBRANCH   3  19
TORSDOF 4
ENDMDL
MODEL 10
REMARK VINA RESULT:      -7.4      3.180      4.519
REMARK  4 active torsions:
REMARK  status: ('A' for Active; 'I' for Inactive)
REMARK    1  A    between atoms: C_2  and  C_3 
REMARK    2  A    between atoms: C_5  and  C_6 
REMARK       I    between atoms: C_6  and  N_7 
REMARK    3  A    between atoms: N_7  and  C_8 
REMARK    4  A    between atoms: C_10  and  C_11 
ROOT
HETATM    1  C   UNL     1      41.061 -15.749   3.101  1.00  0.00     0.035 A 
HETATM    2  C   UNL     1      40.803 -14.657   3.936  1.00  0.00     0.042 A 
HETATM    3  C   UNL     1      39.832 -13.696   3.598  1.00  0.00    -0.021 A 
HETATM    4  C   UNL     1      39.125 -13.847   2.398  1.00  0.00     0.012 A 
HETATM    5  C   UNL     1      39.374 -14.934   1.560  1.00  0.00     0.003 A 
HETATM    6  C   UNL     1      40.333 -15.882   1.914  1.00  0.00     0.029 A 
ENDROOT
BRANCH   1   7
HETATM    7  N   UNL     1      42.007 -16.752   3.387  1.00  0.00    -0.321 N 
HETATM    8  C   UNL     1      41.935 -17.763   4.330  1.00  0.00     0.280 C 
HETATM    9  O   UNL     1      41.015 -17.925   5.127  1.00  0.00    -0.265 OA
HETATM   10  H   UNL     1      42.872 -16.736   2.858  1.00  0.00     0.169 HD
BRANCH   8  11
HETATM   11  C   UNL     1      43.102 -18.634   4.297  1.00  0.00     0.149 A 
HETATM   12  O   UNL     1      43.297 -19.428   3.193  1.00  0.00    -0.309 OA
HETATM   13  C   UNL     1      44.417 -20.167   3.414  1.00  0.00     0.054 A 
HETATM   14  C   UNL     1      44.962 -19.845   4.636  1.00  0.00     0.042 A 
HETATM   15  C   UNL     1      44.121 -18.853   5.213  1.00  0.00    -0.020 A 
HETATM   16  C   UNL     1      44.299 -18.196   6.532  1.00  0.00     0.051 C 
BRANCH  13  17
HETATM   17  C   UNL     1      44.799 -21.129   2.351  1.00  0.00     0.060 C 
HETATM   18  C   UNL     1      43.581 -21.790   1.729  1.00  0.00     0.012 C 
ENDBRANCH  13  17
ENDBRANCH   8  11
ENDBRANCH   1   7
BRANCH   3  19
HETATM   19  C   UNL     1      39.546 -12.572   4.476  1.00  0.00     0.010 A 
HETATM   20  C   UNL     1      38.794 -11.392   4.257  1.00  0.00     0.152 A 
HETATM   21  N   UNL     1      38.765 -10.587   5.322  1.00  0.00    -0.187 NA
HETATM   22  N   UNL     1      39.495 -11.249   6.233  1.00  0.00    -0.289 N 
HETATM   23  H   UNL     1      39.618 -10.830   7.150  1.00  0.00     0.188 HD
HETATM   24  C   UNL     1      39.988 -12.436   5.776  1.00  0.00     0.123 A 
ENDBRANCH   3  19
TORSDOF 4
ENDMDL
