MODEL 1
REMARK VINA RESULT:      -8.0      0.000      0.000
REMARK  6 active torsions:
REMARK  status: ('A' for Active; 'I' for Inactive)
REMARK    1  A    between atoms: O_2  and  C_3 
REMARK    2  A    between atoms: C_3  and  C_4 
REMARK    3  A    between atoms: C_4  and  N_5 
REMARK       I    between atoms: N_5  and  C_6 
REMARK    4  A    between atoms: C_6  and  C_7 
REMARK    5  A    between atoms: C_12  and  C_13 
REMARK    6  A    between atoms: C_21  and  C_22 
ROOT
HETATM    1  C   UNL     1      41.853 -13.160   5.414  1.00  0.00     0.170 A 
HETATM    2  N   UNL     1      40.961 -13.783   4.602  1.00  0.00    -0.163 NA
HETATM    3  N   UNL     1      41.560 -14.947   4.308  1.00  0.00    -0.238 N 
HETATM    4  C   UNL     1      42.764 -15.134   4.928  1.00  0.00     0.145 A 
HETATM    5  N   UNL     1      43.460 -16.290   4.771  1.00  0.00    -0.365 N 
HETATM    6  C   UNL     1      43.070 -17.262   3.755  1.00  0.00     0.118 C 
HETATM    7  C   UNL     1      41.534 -17.313   3.661  1.00  0.00     0.066 C 
HETATM    8  C   UNL     1      40.944 -15.912   3.414  1.00  0.00     0.221 C 
HETATM    9  C   UNL     1      42.991 -13.984   5.649  1.00  0.00     0.115 A 
HETATM   10 CL   UNL     1      44.348 -13.642   6.608  1.00  0.00    -0.077 Cl
HETATM   11  H   UNL     1      44.436 -16.331   5.068  1.00  0.00     0.162 HD
ENDROOT
BRANCH   1  12
HETATM   12  C   UNL     1      41.583 -11.808   5.933  1.00  0.00     0.273 C 
HETATM   13  N   UNL     1      41.601 -11.744   7.309  1.00  0.00    -0.353 N 
HETATM   14  H   UNL     1      41.943 -12.575   7.787  1.00  0.00     0.162 HD
HETATM   15  O   UNL     1      41.363 -10.834   5.220  1.00  0.00    -0.266 OA
BRANCH  13  16
HETATM   16  C   UNL     1      41.541 -10.497   8.041  1.00  0.00     0.149 C 
BRANCH  16  17
HETATM   17  C   UNL     1      42.445 -10.530   9.271  1.00  0.00     0.186 C 
BRANCH  17  18
HETATM   18  O   UNL     1      43.778 -10.857   8.865  1.00  0.00    -0.394 OA
HETATM   19  C   UNL     1      44.388 -11.769   9.771  1.00  0.00     0.201 C 
ENDBRANCH  17  18
ENDBRANCH  16  17
ENDBRANCH  13  16
ENDBRANCH   1  12
BRANCH   8  20
HETATM   20  C   UNL     1      41.118 -15.466   1.978  1.00  0.00     0.409 C 
HETATM   21  F   UNL     1      41.143 -16.497   1.105  1.00  0.00    -0.169 F 
HETATM   22  F   UNL     1      40.076 -14.674   1.610  1.00  0.00    -0.169 F 
HETATM   23  F   UNL     1      42.237 -14.736   1.787  1.00  0.00    -0.169 F 
ENDBRANCH   8  20
BRANCH   6  24
HETATM   24  C   UNL     1      43.638 -18.631   4.086  1.00  0.00    -0.035 A 
HETATM   25  C   UNL     1      44.101 -19.501   3.084  1.00  0.00     0.011 A 
HETATM   26  C   UNL     1      44.639 -20.746   3.414  1.00  0.00     0.024 A 
HETATM   27  C   UNL     1      44.727 -21.132   4.750  1.00  0.00     0.034 A 
HETATM   28 CL   UNL     1      45.393 -22.664   5.158  1.00  0.00    -0.084 Cl
HETATM   29  C   UNL     1      44.281 -20.281   5.758  1.00  0.00     0.024 A 
HETATM   30  C   UNL     1      43.739 -19.036   5.428  1.00  0.00     0.011 A 
ENDBRANCH   6  24
TORSDOF 6
ENDMDL
MODEL 2
REMARK VINA RESULT:      -7.8      1.511      2.216
REMARK  6 active torsions:
REMARK  status: ('A' for Active; 'I' for Inactive)
REMARK    1  A    between atoms: O_2  and  C_3 
REMARK    2  A    between atoms: C_3  and  C_4 
REMARK    3  A    between atoms: C_4  and  N_5 
REMARK       I    between atoms: N_5  and  C_6 
REMARK    4  A    between atoms: C_6  and  C_7 
REMARK    5  A    between atoms: C_12  and  C_13 
REMARK    6  A    between atoms: C_21  and  C_22 
ROOT
HETATM    1  C   UNL     1      41.849 -13.397   4.704  1.00  0.00     0.170 A 
HETATM    2  N   UNL     1      40.947 -13.926   3.838  1.00  0.00    -0.163 NA
HETATM    3  N   UNL     1      41.522 -15.071   3.441  1.00  0.00    -0.238 N 
HETATM    4  C   UNL     1      42.719 -15.339   4.044  1.00  0.00     0.145 A 
HETATM    5  N   UNL     1      43.391 -16.491   3.786  1.00  0.00    -0.365 N 
HETATM    6  C   UNL     1      42.984 -17.359   2.686  1.00  0.00     0.118 C 
HETATM    7  C   UNL     1      41.448 -17.369   2.585  1.00  0.00     0.066 C 
HETATM    8  C   UNL     1      40.888 -15.940   2.464  1.00  0.00     0.221 C 
HETATM    9  C   UNL     1      42.968 -14.263   4.865  1.00  0.00     0.115 A 
HETATM   10 CL   UNL     1      44.329 -14.038   5.854  1.00  0.00    -0.077 Cl
HETATM   11  H   UNL     1      44.366 -16.580   4.079  1.00  0.00     0.162 HD
ENDROOT
BRANCH   1  12
HETATM   12  C   UNL     1      41.606 -12.092   5.341  1.00  0.00     0.273 C 
HETATM   13  N   UNL     1      41.479 -12.175   6.710  1.00  0.00    -0.353 N 
HETATM   14  H   UNL     1      41.717 -13.073   7.125  1.00  0.00     0.162 HD
HETATM   15  O   UNL     1      41.522 -11.035   4.724  1.00  0.00    -0.266 OA
BRANCH  13  16
HETATM   16  C   UNL     1      41.415 -11.011   7.568  1.00  0.00     0.149 C 
BRANCH  16  17
HETATM   17  C   UNL     1      40.042 -10.876   8.223  1.00  0.00     0.186 C 
BRANCH  17  18
HETATM   18  O   UNL     1      39.089 -10.464   7.237  1.00  0.00    -0.394 OA
HETATM   19  C   UNL     1      39.319  -9.124   6.820  1.00  0.00     0.201 C 
ENDBRANCH  17  18
ENDBRANCH  16  17
ENDBRANCH  13  16
ENDBRANCH   1  12
BRANCH   8  20
HETATM   20  C   UNL     1      41.077 -15.370   1.073  1.00  0.00     0.409 C 
HETATM   21  F   UNL     1      42.220 -14.662   0.946  1.00  0.00    -0.169 F 
HETATM   22  F   UNL     1      41.146 -16.380   0.166  1.00  0.00    -0.169 F 
HETATM   23  F   UNL     1      40.055 -14.578   0.687  1.00  0.00    -0.169 F 
ENDBRANCH   8  20
BRANCH   6  24
HETATM   24  C   UNL     1      43.522 -18.765   2.894  1.00  0.00    -0.035 A 
HETATM   25  C   UNL     1      44.133 -19.151   4.098  1.00  0.00     0.011 A 
HETATM   26  C   UNL     1      44.601 -20.455   4.275  1.00  0.00     0.024 A 
HETATM   27  C   UNL     1      44.455 -21.388   3.251  1.00  0.00     0.034 A 
HETATM   28 CL   UNL     1      45.027 -22.996   3.469  1.00  0.00    -0.084 Cl
HETATM   29  C   UNL     1      43.844 -21.027   2.053  1.00  0.00     0.024 A 
HETATM   30  C   UNL     1      43.379 -19.722   1.875  1.00  0.00     0.011 A 
ENDBRANCH   6  24
TORSDOF 6
ENDMDL
MODEL 3
REMARK VINA RESULT:      -7.6      2.979      3.534
REMARK  6 active torsions:
REMARK  status: ('A' for Active; 'I' for Inactive)
REMARK    1  A    between atoms: O_2  and  C_3 
REMARK    2  A    between atoms: C_3  and  C_4 
REMARK    3  A    between atoms: C_4  and  N_5 
REMARK       I    between atoms: N_5  and  C_6 
REMARK    4  A    between atoms: C_6  and  C_7 
REMARK    5  A    between atoms: C_12  and  C_13 
REMARK    6  A    between atoms: C_21  and  C_22 
ROOT
HETATM    1  C   UNL     1      42.367 -13.587   5.811  1.00  0.00     0.170 A 
HETATM    2  N   UNL     1      43.263 -14.192   6.632  1.00  0.00    -0.163 NA
HETATM    3  N   UNL     1      43.313 -15.452   6.172  1.00  0.00    -0.238 N 
HETATM    4  C   UNL     1      42.542 -15.679   5.066  1.00  0.00     0.145 A 
HETATM    5  N   UNL     1      42.536 -16.892   4.454  1.00  0.00    -0.365 N 
HETATM    6  C   UNL     1      43.156 -18.050   5.090  1.00  0.00     0.118 C 
HETATM    7  C   UNL     1      44.435 -17.606   5.823  1.00  0.00     0.066 C 
HETATM    8  C   UNL     1      44.143 -16.460   6.810  1.00  0.00     0.221 C 
HETATM    9  C   UNL     1      41.904 -14.488   4.810  1.00  0.00     0.115 A 
HETATM   10 CL   UNL     1      40.800 -14.180   3.558  1.00  0.00    -0.077 Cl
HETATM   11  H   UNL     1      41.811 -17.103   3.767  1.00  0.00     0.162 HD
ENDROOT
BRANCH   1  12
HETATM   12  C   UNL     1      41.993 -12.177   6.013  1.00  0.00     0.273 C 
HETATM   13  N   UNL     1      42.059 -11.785   7.332  1.00  0.00    -0.353 N 
HETATM   14  H   UNL     1      42.496 -12.446   7.971  1.00  0.00     0.162 HD
HETATM   15  O   UNL     1      41.656 -11.423   5.107  1.00  0.00    -0.266 OA
BRANCH  13  16
HETATM   16  C   UNL     1      41.913 -10.408   7.754  1.00  0.00     0.149 C 
BRANCH  16  17
HETATM   17  C   UNL     1      42.333 -10.224   9.210  1.00  0.00     0.186 C 
BRANCH  17  18
HETATM   18  O   UNL     1      43.221 -11.284   9.580  1.00  0.00    -0.394 OA
HETATM   19  C   UNL     1      44.506 -10.788   9.935  1.00  0.00     0.201 C 
ENDBRANCH  17  18
ENDBRANCH  16  17
ENDBRANCH  13  16
ENDBRANCH   1  12
BRANCH   8  20
HETATM   20  C   UNL     1      43.469 -16.954   8.072  1.00  0.00     0.409 C 
HETATM   21  F   UNL     1      42.156 -17.222   7.899  1.00  0.00    -0.169 F 
HETATM   22  F   UNL     1      44.049 -18.113   8.482  1.00  0.00    -0.169 F 
HETATM   23  F   UNL     1      43.581 -16.087   9.101  1.00  0.00    -0.169 F 
ENDBRANCH   8  20
BRANCH   6  24
HETATM   24  C   UNL     1      43.468 -19.118   4.057  1.00  0.00    -0.035 A 
HETATM   25  C   UNL     1      42.931 -19.070   2.759  1.00  0.00     0.011 A 
HETATM   26  C   UNL     1      43.249 -20.052   1.818  1.00  0.00     0.024 A 
HETATM   27  C   UNL     1      44.114 -21.088   2.163  1.00  0.00     0.034 A 
HETATM   28 CL   UNL     1      44.510 -22.296   1.005  1.00  0.00    -0.084 Cl
HETATM   29  C   UNL     1      44.663 -21.149   3.441  1.00  0.00     0.024 A 
HETATM   30  C   UNL     1      44.343 -20.169   4.384  1.00  0.00     0.011 A 
ENDBRANCH   6  24
TORSDOF 6
ENDMDL
MODEL 4
REMARK VINA RESULT:      -7.6      3.377      5.634
REMARK  6 active torsions:
REMARK  status: ('A' for Active; 'I' for Inactive)
REMARK    1  A    between atoms: O_2  and  C_3 
REMARK    2  A    between atoms: C_3  and  C_4 
REMARK    3  A    between atoms: C_4  and  N_5 
REMARK       I    between atoms: N_5  and  C_6 
REMARK    4  A    between atoms: C_6  and  C_7 
REMARK    5  A    between atoms: C_12  and  C_13 
REMARK    6  A    between atoms: C_21  and  C_22 
ROOT
HETATM    1  C   UNL     1      43.469 -15.162   5.747  1.00  0.00     0.170 A 
HETATM    2  N   UNL     1      44.016 -16.152   4.995  1.00  0.00    -0.163 NA
HETATM    3  N   UNL     1      43.256 -16.167   3.890  1.00  0.00    -0.238 N 
HETATM    4  C   UNL     1      42.282 -15.208   3.861  1.00  0.00     0.145 A 
HETATM    5  N   UNL     1      41.472 -15.064   2.781  1.00  0.00    -0.365 N 
HETATM    6  C   UNL     1      41.450 -16.073   1.727  1.00  0.00     0.118 C 
HETATM    7  C   UNL     1      42.876 -16.612   1.507  1.00  0.00     0.066 C 
HETATM    8  C   UNL     1      43.486 -17.127   2.824  1.00  0.00     0.221 C 
HETATM    9  C   UNL     1      42.386 -14.541   5.061  1.00  0.00     0.115 A 
HETATM   10 CL   UNL     1      41.415 -13.254   5.590  1.00  0.00    -0.077 Cl
HETATM   11  H   UNL     1      40.630 -14.490   2.858  1.00  0.00     0.162 HD
ENDROOT
BRANCH   1  12
HETATM   12  C   UNL     1      44.001 -14.851   7.084  1.00  0.00     0.273 C 
HETATM   13  N   UNL     1      44.518 -13.577   7.176  1.00  0.00    -0.353 N 
HETATM   14  H   UNL     1      44.335 -12.965   6.383  1.00  0.00     0.162 HD
HETATM   15  O   UNL     1      43.990 -15.638   8.025  1.00  0.00    -0.266 OA
BRANCH  13  16
HETATM   16  C   UNL     1      44.932 -12.983   8.429  1.00  0.00     0.149 C 
BRANCH  16  17
HETATM   17  C   UNL     1      46.282 -12.281   8.293  1.00  0.00     0.186 C 
BRANCH  17  18
HETATM   18  O   UNL     1      46.175 -10.953   8.817  1.00  0.00    -0.394 OA
HETATM   19  C   UNL     1      45.372 -10.921   9.992  1.00  0.00     0.201 C 
ENDBRANCH  17  18
ENDBRANCH  16  17
ENDBRANCH  13  16
ENDBRANCH   1  12
BRANCH   8  20
HETATM   20  C   UNL     1      42.929 -18.477   3.220  1.00  0.00     0.409 C 
HETATM   21  F   UNL     1      42.510 -19.205   2.161  1.00  0.00    -0.169 F 
HETATM   22  F   UNL     1      43.892 -19.212   3.836  1.00  0.00    -0.169 F 
HETATM   23  F   UNL     1      41.902 -18.386   4.090  1.00  0.00    -0.169 F 
ENDBRANCH   8  20
BRANCH   6  24
HETATM   24  C   UNL     1      40.889 -15.487   0.443  1.00  0.00    -0.035 A 
HETATM   25  C   UNL     1      39.934 -14.456   0.458  1.00  0.00     0.011 A 
HETATM   26  C   UNL     1      39.448 -13.917  -0.736  1.00  0.00     0.024 A 
HETATM   27  C   UNL     1      39.918 -14.398  -1.955  1.00  0.00     0.034 A 
HETATM   28 CL   UNL     1      39.323 -13.733  -3.426  1.00  0.00    -0.084 Cl
HETATM   29  C   UNL     1      40.870 -15.413  -1.991  1.00  0.00     0.024 A 
HETATM   30  C   UNL     1      41.355 -15.955  -0.797  1.00  0.00     0.011 A 
ENDBRANCH   6  24
TORSDOF 6
ENDMDL
MODEL 5
REMARK VINA RESULT:      -7.5      4.078      7.712
REMARK  6 active torsions:
REMARK  status: ('A' for Active; 'I' for Inactive)
REMARK    1  A    between atoms: O_2  and  C_3 
REMARK    2  A    between atoms: C_3  and  C_4 
REMARK    3  A    between atoms: C_4  and  N_5 
REMARK       I    between atoms: N_5  and  C_6 
REMARK    4  A    between atoms: C_6  and  C_7 
REMARK    5  A    between atoms: C_12  and  C_13 
REMARK    6  A    between atoms: C_21  and  C_22 
ROOT
HETATM    1  C   UNL     1      42.819 -17.163   4.814  1.00  0.00     0.170 A 
HETATM    2  N   UNL     1      43.303 -16.875   3.578  1.00  0.00    -0.163 NA
HETATM    3  N   UNL     1      42.284 -16.239   2.979  1.00  0.00    -0.238 N 
HETATM    4  C   UNL     1      41.190 -16.052   3.777  1.00  0.00     0.145 A 
HETATM    5  N   UNL     1      40.103 -15.373   3.326  1.00  0.00    -0.365 N 
HETATM    6  C   UNL     1      39.970 -15.036   1.912  1.00  0.00     0.118 C 
HETATM    7  C   UNL     1      41.352 -14.667   1.343  1.00  0.00     0.066 C 
HETATM    8  C   UNL     1      42.377 -15.786   1.602  1.00  0.00     0.221 C 
HETATM    9  C   UNL     1      41.500 -16.651   4.976  1.00  0.00     0.115 A 
HETATM   10 CL   UNL     1      40.504 -16.747   6.346  1.00  0.00    -0.077 Cl
HETATM   11  H   UNL     1      39.228 -15.420   3.852  1.00  0.00     0.162 HD
ENDROOT
BRANCH   1  12
HETATM   12  C   UNL     1      43.634 -17.910   5.786  1.00  0.00     0.273 C 
HETATM   13  N   UNL     1      43.197 -19.203   5.976  1.00  0.00    -0.353 N 
HETATM   14  H   UNL     1      42.484 -19.530   5.328  1.00  0.00     0.162 HD
HETATM   15  O   UNL     1      44.603 -17.439   6.371  1.00  0.00    -0.266 OA
BRANCH  13  16
HETATM   16  C   UNL     1      43.938 -20.181   6.743  1.00  0.00     0.149 C 
BRANCH  16  17
HETATM   17  C   UNL     1      44.368 -21.361   5.873  1.00  0.00     0.186 C 
BRANCH  17  18
HETATM   18  O   UNL     1      45.187 -20.880   4.802  1.00  0.00    -0.394 OA
HETATM   19  C   UNL     1      44.656 -21.251   3.535  1.00  0.00     0.201 C 
ENDBRANCH  17  18
ENDBRANCH  16  17
ENDBRANCH  13  16
ENDBRANCH   1  12
BRANCH   8  20
HETATM   20  C   UNL     1      42.191 -16.959   0.663  1.00  0.00     0.409 C 
HETATM   21  F   UNL     1      43.348 -17.592   0.375  1.00  0.00    -0.169 F 
HETATM   22  F   UNL     1      41.376 -17.884   1.235  1.00  0.00    -0.169 F 
HETATM   23  F   UNL     1      41.610 -16.609  -0.504  1.00  0.00    -0.169 F 
ENDBRANCH   8  20
BRANCH   6  24
HETATM   24  C   UNL     1      38.987 -13.892   1.731  1.00  0.00    -0.035 A 
HETATM   25  C   UNL     1      39.086 -12.707   2.480  1.00  0.00     0.011 A 
HETATM   26  C   UNL     1      38.184 -11.660   2.281  1.00  0.00     0.024 A 
HETATM   27  C   UNL     1      37.178 -11.783   1.326  1.00  0.00     0.034 A 
HETATM   28 CL   UNL     1      36.068 -10.493   1.078  1.00  0.00    -0.084 Cl
HETATM   29  C   UNL     1      37.068 -12.946   0.568  1.00  0.00     0.024 A 
HETATM   30  C   UNL     1      37.968 -13.996   0.769  1.00  0.00     0.011 A 
ENDBRANCH   6  24
TORSDOF 6
ENDMDL
MODEL 6
REMARK VINA RESULT:      -7.4      1.986      2.398
REMARK  6 active torsions:
REMARK  status: ('A' for Active; 'I' for Inactive)
REMARK    1  A    between atoms: O_2  and  C_3 
REMARK    2  A    between atoms: C_3  and  C_4 
REMARK    3  A    between atoms: C_4  and  N_5 
REMARK       I    between atoms: N_5  and  C_6 
REMARK    4  A    between atoms: C_6  and  C_7 
REMARK    5  A    between atoms: C_12  and  C_13 
REMARK    6  A    between atoms: C_21  and  C_22 
ROOT
HETATM    1  C   UNL     1      40.446 -13.598   4.256  1.00  0.00     0.170 A 
HETATM    2  N   UNL     1      39.870 -14.121   3.143  1.00  0.00    -0.163 NA
HETATM    3  N   UNL     1      40.650 -15.172   2.847  1.00  0.00    -0.238 N 
HETATM    4  C   UNL     1      41.665 -15.389   3.737  1.00  0.00     0.145 A 
HETATM    5  N   UNL     1      42.501 -16.450   3.599  1.00  0.00    -0.365 N 
HETATM    6  C   UNL     1      42.498 -17.247   2.376  1.00  0.00     0.118 C 
HETATM    7  C   UNL     1      41.055 -17.379   1.857  1.00  0.00     0.066 C 
HETATM    8  C   UNL     1      40.397 -15.998   1.679  1.00  0.00     0.221 C 
HETATM    9  C   UNL     1      41.568 -14.375   4.662  1.00  0.00     0.115 A 
HETATM   10 CL   UNL     1      42.583 -14.125   5.998  1.00  0.00    -0.077 Cl
HETATM   11  H   UNL     1      43.366 -16.482   4.142  1.00  0.00     0.162 HD
ENDROOT
BRANCH   1  12
HETATM   12  C   UNL     1      39.903 -12.382   4.885  1.00  0.00     0.273 C 
HETATM   13  N   UNL     1      40.732 -11.290   4.755  1.00  0.00    -0.353 N 
HETATM   14  H   UNL     1      41.523 -11.405   4.125  1.00  0.00     0.162 HD
HETATM   15  O   UNL     1      38.824 -12.338   5.467  1.00  0.00    -0.266 OA
BRANCH  13  16
HETATM   16  C   UNL     1      40.336  -9.950   5.132  1.00  0.00     0.149 C 
BRANCH  16  17
HETATM   17  C   UNL     1      41.551  -9.063   5.393  1.00  0.00     0.186 C 
BRANCH  17  18
HETATM   18  O   UNL     1      41.909  -9.153   6.777  1.00  0.00    -0.394 OA
HETATM   19  C   UNL     1      40.783  -8.940   7.620  1.00  0.00     0.201 C 
ENDBRANCH  17  18
ENDBRANCH  16  17
ENDBRANCH  13  16
ENDBRANCH   1  12
BRANCH   8  20
HETATM   20  C   UNL     1      40.888 -15.290   0.434  1.00  0.00     0.409 C 
HETATM   21  F   UNL     1      41.949 -14.488   0.668  1.00  0.00    -0.169 F 
HETATM   22  F   UNL     1      41.290 -16.204  -0.488  1.00  0.00    -0.169 F 
HETATM   23  F   UNL     1      39.930 -14.546  -0.158  1.00  0.00    -0.169 F 
ENDBRANCH   8  20
BRANCH   6  24
HETATM   24  C   UNL     1      43.109 -18.613   2.632  1.00  0.00    -0.035 A 
HETATM   25  C   UNL     1      43.001 -19.658   1.699  1.00  0.00     0.011 A 
HETATM   26  C   UNL     1      43.589 -20.900   1.947  1.00  0.00     0.024 A 
HETATM   27  C   UNL     1      44.298 -21.108   3.128  1.00  0.00     0.034 A 
HETATM   28 CL   UNL     1      45.026 -22.636   3.433  1.00  0.00    -0.084 Cl
HETATM   29  C   UNL     1      44.423 -20.083   4.062  1.00  0.00     0.024 A 
HETATM   30  C   UNL     1      43.833 -18.841   3.816  1.00  0.00     0.011 A 
ENDBRANCH   6  24
TORSDOF 6
ENDMDL
MODEL 7
REMARK VINA RESULT:      -7.4      3.789      5.209
REMARK  6 active torsions:
REMARK  status: ('A' for Active; 'I' for Inactive)
REMARK    1  A    between atoms: O_2  and  C_3 
REMARK    2  A    between atoms: C_3  and  C_4 
REMARK    3  A    between atoms: C_4  and  N_5 
REMARK       I    between atoms: N_5  and  C_6 
REMARK    4  A    between atoms: C_6  and  C_7 
REMARK    5  A    between atoms: C_12  and  C_13 
REMARK    6  A    between atoms: C_21  and  C_22 
ROOT
HETATM    1  C   UNL     1      41.626 -13.188   1.389  1.00  0.00     0.170 A 
HETATM    2  N   UNL     1      42.069 -13.164   2.672  1.00  0.00    -0.163 NA
HETATM    3  N   UNL     1      42.261 -14.459   2.965  1.00  0.00    -0.238 N 
HETATM    4  C   UNL     1      42.020 -15.314   1.926  1.00  0.00     0.145 A 
HETATM    5  N   UNL     1      42.226 -16.650   2.056  1.00  0.00    -0.365 N 
HETATM    6  C   UNL     1      42.476 -17.240   3.368  1.00  0.00     0.118 C 
HETATM    7  C   UNL     1      43.343 -16.280   4.203  1.00  0.00     0.066 C 
HETATM    8  C   UNL     1      42.705 -14.881   4.283  1.00  0.00     0.221 C 
HETATM    9  C   UNL     1      41.594 -14.520   0.886  1.00  0.00     0.115 A 
HETATM   10 CL   UNL     1      41.133 -15.041  -0.661  1.00  0.00    -0.077 Cl
HETATM   11  H   UNL     1      41.850 -17.287   1.351  1.00  0.00     0.162 HD
ENDROOT
BRANCH   1  12
HETATM   12  C   UNL     1      41.256 -11.942   0.697  1.00  0.00     0.273 C 
HETATM   13  N   UNL     1      42.076 -10.882   1.015  1.00  0.00    -0.353 N 
HETATM   14  H   UNL     1      42.911 -11.112   1.550  1.00  0.00     0.162 HD
HETATM   15  O   UNL     1      40.314 -11.848  -0.083  1.00  0.00    -0.266 OA
BRANCH  13  16
HETATM   16  C   UNL     1      42.021  -9.609   0.330  1.00  0.00     0.149 C 
BRANCH  16  17
HETATM   17  C   UNL     1      43.326  -9.317  -0.409  1.00  0.00     0.186 C 
BRANCH  17  18
HETATM   18  O   UNL     1      43.712 -10.477  -1.154  1.00  0.00    -0.394 OA
HETATM   19  C   UNL     1      43.013 -10.559  -2.390  1.00  0.00     0.201 C 
ENDBRANCH  17  18
ENDBRANCH  16  17
ENDBRANCH  13  16
ENDBRANCH   1  12
BRANCH   8  20
HETATM   20  C   UNL     1      41.544 -14.839   5.253  1.00  0.00     0.409 C 
HETATM   21  F   UNL     1      40.360 -15.123   4.670  1.00  0.00    -0.169 F 
HETATM   22  F   UNL     1      41.726 -15.766   6.231  1.00  0.00    -0.169 F 
HETATM   23  F   UNL     1      41.423 -13.647   5.875  1.00  0.00    -0.169 F 
ENDBRANCH   8  20
BRANCH   6  24
HETATM   24  C   UNL     1      43.154 -18.591   3.219  1.00  0.00    -0.035 A 
HETATM   25  C   UNL     1      43.973 -19.121   4.230  1.00  0.00     0.011 A 
HETATM   26  C   UNL     1      44.569 -20.376   4.080  1.00  0.00     0.024 A 
HETATM   27  C   UNL     1      44.345 -21.116   2.922  1.00  0.00     0.034 A 
HETATM   28 CL   UNL     1      45.075 -22.663   2.738  1.00  0.00    -0.084 Cl
HETATM   29  C   UNL     1      43.530 -20.612   1.912  1.00  0.00     0.024 A 
HETATM   30  C   UNL     1      42.936 -19.355   2.060  1.00  0.00     0.011 A 
ENDBRANCH   6  24
TORSDOF 6
ENDMDL
MODEL 8
REMARK VINA RESULT:      -7.4      3.809      6.030
REMARK  6 active torsions:
REMARK  status: ('A' for Active; 'I' for Inactive)
REMARK    1  A    between atoms: O_2  and  C_3 
REMARK    2  A    between atoms: C_3  and  C_4 
REMARK    3  A    between atoms: C_4  and  N_5 
REMARK       I    between atoms: N_5  and  C_6 
REMARK    4  A    between atoms: C_6  and  C_7 
REMARK    5  A    between atoms: C_12  and  C_13 
REMARK    6  A    between atoms: C_21  and  C_22 
ROOT
HETATM    1  C   UNL     1      41.606 -13.893   0.876  1.00  0.00     0.170 A 
HETATM    2  N   UNL     1      41.925 -13.498   2.136  1.00  0.00    -0.163 NA
HETATM    3  N   UNL     1      42.147 -14.653   2.783  1.00  0.00    -0.238 N 
HETATM    4  C   UNL     1      42.042 -15.768   1.999  1.00  0.00     0.145 A 
HETATM    5  N   UNL     1      42.295 -17.004   2.501  1.00  0.00    -0.365 N 
HETATM    6  C   UNL     1      42.448 -17.205   3.939  1.00  0.00     0.118 C 
HETATM    7  C   UNL     1      43.189 -16.001   4.548  1.00  0.00     0.066 C 
HETATM    8  C   UNL     1      42.485 -14.678   4.195  1.00  0.00     0.221 C 
HETATM    9  C   UNL     1      41.680 -15.310   0.752  1.00  0.00     0.115 A 
HETATM   10 CL   UNL     1      41.390 -16.254  -0.627  1.00  0.00    -0.077 Cl
HETATM   11  H   UNL     1      42.016 -17.829   1.968  1.00  0.00     0.162 HD
ENDROOT
BRANCH   1  12
HETATM   12  C   UNL     1      41.246 -12.905  -0.154  1.00  0.00     0.273 C 
HETATM   13  N   UNL     1      42.234 -12.722  -1.096  1.00  0.00    -0.353 N 
HETATM   14  H   UNL     1      43.007 -13.383  -1.063  1.00  0.00     0.162 HD
HETATM   15  O   UNL     1      40.178 -12.301  -0.178  1.00  0.00    -0.266 OA
BRANCH  13  16
HETATM   16  C   UNL     1      42.042 -11.940  -2.299  1.00  0.00     0.149 C 
BRANCH  16  17
HETATM   17  C   UNL     1      41.782 -12.834  -3.509  1.00  0.00     0.186 C 
BRANCH  17  18
HETATM   18  O   UNL     1      40.372 -13.041  -3.645  1.00  0.00    -0.394 OA
HETATM   19  C   UNL     1      40.037 -14.420  -3.538  1.00  0.00     0.201 C 
ENDBRANCH  17  18
ENDBRANCH  16  17
ENDBRANCH  13  16
ENDBRANCH   1  12
BRANCH   8  20
HETATM   20  C   UNL     1      41.237 -14.458   5.025  1.00  0.00     0.409 C 
HETATM   21  F   UNL     1      41.279 -15.093   6.216  1.00  0.00    -0.169 F 
HETATM   22  F   UNL     1      41.091 -13.135   5.298  1.00  0.00    -0.169 F 
HETATM   23  F   UNL     1      40.110 -14.845   4.390  1.00  0.00    -0.169 F 
ENDBRANCH   8  20
BRANCH   6  24
HETATM   24  C   UNL     1      43.197 -18.498   4.216  1.00  0.00    -0.035 A 
HETATM   25  C   UNL     1      43.745 -19.270   3.178  1.00  0.00     0.011 A 
HETATM   26  C   UNL     1      44.448 -20.444   3.458  1.00  0.00     0.024 A 
HETATM   27  C   UNL     1      44.617 -20.853   4.779  1.00  0.00     0.034 A 
HETATM   28 CL   UNL     1      45.486 -22.296   5.125  1.00  0.00    -0.084 Cl
HETATM   29  C   UNL     1      44.088 -20.097   5.821  1.00  0.00     0.024 A 
HETATM   30  C   UNL     1      43.382 -18.924   5.542  1.00  0.00     0.011 A 
ENDBRANCH   6  24
TORSDOF 6
ENDMDL
MODEL 9
REMARK VINA RESULT:      -7.3      2.742      4.152
REMARK  6 active torsions:
REMARK  status: ('A' for Active; 'I' for Inactive)
REMARK    1  A    between atoms: O_2  and  C_3 
REMARK    2  A    between atoms: C_3  and  C_4 
REMARK    3  A    between atoms: C_4  and  N_5 
REMARK       I    between atoms: N_5  and  C_6 
REMARK    4  A    between atoms: C_6  and  C_7 
REMARK    5  A    between atoms: C_12  and  C_13 
REMARK    6  A    between atoms: C_21  and  C_22 
ROOT
HETATM    1  C   UNL     1      40.130 -13.491   3.899  1.00  0.00     0.170 A 
HETATM    2  N   UNL     1      39.741 -14.223   2.823  1.00  0.00    -0.163 NA
HETATM    3  N   UNL     1      40.641 -15.218   2.775  1.00  0.00    -0.238 N 
HETATM    4  C   UNL     1      41.555 -15.201   3.791  1.00  0.00     0.145 A 
HETATM    5  N   UNL     1      42.492 -16.177   3.906  1.00  0.00    -0.365 N 
HETATM    6  C   UNL     1      42.707 -17.133   2.824  1.00  0.00     0.118 C 
HETATM    7  C   UNL     1      41.354 -17.488   2.180  1.00  0.00     0.066 C 
HETATM    8  C   UNL     1      40.605 -16.222   1.726  1.00  0.00     0.221 C 
HETATM    9  C   UNL     1      41.259 -14.083   4.536  1.00  0.00     0.115 A 
HETATM   10 CL   UNL     1      42.079 -13.542   5.920  1.00  0.00    -0.077 Cl
HETATM   11  H   UNL     1      43.284 -16.041   4.537  1.00  0.00     0.162 HD
ENDROOT
BRANCH   1  12
HETATM   12  C   UNL     1      39.411 -12.263   4.274  1.00  0.00     0.273 C 
HETATM   13  N   UNL     1      38.896 -11.586   3.191  1.00  0.00    -0.353 N 
HETATM   14  H   UNL     1      38.934 -12.078   2.301  1.00  0.00     0.162 HD
HETATM   15  O   UNL     1      39.279 -11.874   5.431  1.00  0.00    -0.266 OA
BRANCH  13  16
HETATM   16  C   UNL     1      38.001 -10.455   3.320  1.00  0.00     0.149 C 
BRANCH  16  17
HETATM   17  C   UNL     1      37.184 -10.244   2.047  1.00  0.00     0.186 C 
BRANCH  17  18
HETATM   18  O   UNL     1      37.554 -11.234   1.082  1.00  0.00    -0.394 OA
HETATM   19  C   UNL     1      36.409 -11.835   0.488  1.00  0.00     0.201 C 
ENDBRANCH  17  18
ENDBRANCH  16  17
ENDBRANCH  13  16
ENDBRANCH   1  12
BRANCH   8  20
HETATM   20  C   UNL     1      41.178 -15.649   0.447  1.00  0.00     0.409 C 
HETATM   21  F   UNL     1      40.258 -14.998  -0.297  1.00  0.00    -0.169 F 
HETATM   22  F   UNL     1      42.148 -14.743   0.742  1.00  0.00    -0.169 F 
HETATM   23  F   UNL     1      41.755 -16.584  -0.335  1.00  0.00    -0.169 F 
ENDBRANCH   8  20
BRANCH   6  24
HETATM   24  C   UNL     1      43.400 -18.379   3.349  1.00  0.00    -0.035 A 
HETATM   25  C   UNL     1      43.706 -18.536   4.711  1.00  0.00     0.011 A 
HETATM   26  C   UNL     1      44.324 -19.700   5.174  1.00  0.00     0.024 A 
HETATM   27  C   UNL     1      44.635 -20.722   4.280  1.00  0.00     0.034 A 
HETATM   28 CL   UNL     1      45.393 -22.157   4.850  1.00  0.00    -0.084 Cl
HETATM   29  C   UNL     1      44.333 -20.589   2.928  1.00  0.00     0.024 A 
HETATM   30  C   UNL     1      43.717 -19.424   2.464  1.00  0.00     0.011 A 
ENDBRANCH   6  24
TORSDOF 6
ENDMDL
MODEL 10
REMARK VINA RESULT:      -7.2      3.471      4.400
REMARK  6 active torsions:
REMARK  status: ('A' for Active; 'I' for Inactive)
REMARK    1  A    between atoms: O_2  and  C_3 
REMARK    2  A    between atoms: C_3  and  C_4 
REMARK    3  A    between atoms: C_4  and  N_5 
REMARK       I    between atoms: N_5  and  C_6 
REMARK    4  A    between atoms: C_6  and  C_7 
REMARK    5  A    between atoms: C_12  and  C_13 
REMARK    6  A    between atoms: C_21  and  C_22 
ROOT
HETATM    1  C   UNL     1      39.983 -13.011   2.870  1.00  0.00     0.170 A 
HETATM    2  N   UNL     1      41.138 -12.813   3.557  1.00  0.00    -0.163 NA
HETATM    3  N   UNL     1      41.635 -14.051   3.704  1.00  0.00    -0.238 N 
HETATM    4  C   UNL     1      40.895 -15.031   3.103  1.00  0.00     0.145 A 
HETATM    5  N   UNL     1      41.304 -16.326   3.118  1.00  0.00    -0.365 N 
HETATM    6  C   UNL     1      42.409 -16.747   3.974  1.00  0.00     0.118 C 
HETATM    7  C   UNL     1      43.478 -15.640   4.009  1.00  0.00     0.066 C 
HETATM    8  C   UNL     1      42.869 -14.291   4.431  1.00  0.00     0.221 C 
HETATM    9  C   UNL     1      39.805 -14.390   2.560  1.00  0.00     0.115 A 
HETATM   10 CL   UNL     1      38.530 -15.111   1.703  1.00  0.00    -0.077 Cl
HETATM   11  H   UNL     1      40.649 -17.062   2.850  1.00  0.00     0.162 HD
ENDROOT
BRANCH   1  12
HETATM   12  C   UNL     1      39.101 -11.880   2.539  1.00  0.00     0.273 C 
HETATM   13  N   UNL     1      38.424 -11.385   3.632  1.00  0.00    -0.353 N 
HETATM   14  H   UNL     1      38.721 -11.741   4.537  1.00  0.00     0.162 HD
HETATM   15  O   UNL     1      38.974 -11.420   1.409  1.00  0.00    -0.266 OA
BRANCH  13  16
HETATM   16  C   UNL     1      37.641 -10.168   3.589  1.00  0.00     0.149 C 
BRANCH  16  17
HETATM   17  C   UNL     1      38.295  -9.055   4.405  1.00  0.00     0.186 C 
BRANCH  17  18
HETATM   18  O   UNL     1      37.483  -8.773   5.550  1.00  0.00    -0.394 OA
HETATM   19  C   UNL     1      38.192  -8.002   6.513  1.00  0.00     0.201 C 
ENDBRANCH  17  18
ENDBRANCH  16  17
ENDBRANCH  13  16
ENDBRANCH   1  12
BRANCH   8  20
HETATM   20  C   UNL     1      42.607 -14.225   5.921  1.00  0.00     0.409 C 
HETATM   21  F   UNL     1      43.456 -14.992   6.639  1.00  0.00    -0.169 F 
HETATM   22  F   UNL     1      42.770 -12.951   6.363  1.00  0.00    -0.169 F 
HETATM   23  F   UNL     1      41.348 -14.585   6.249  1.00  0.00    -0.169 F 
ENDBRANCH   8  20
BRANCH   6  24
HETATM   24  C   UNL     1      42.998 -18.054   3.472  1.00  0.00    -0.035 A 
HETATM   25  C   UNL     1      43.888 -18.811   4.252  1.00  0.00     0.011 A 
HETATM   26  C   UNL     1      44.401 -20.021   3.778  1.00  0.00     0.024 A 
HETATM   27  C   UNL     1      44.023 -20.489   2.522  1.00  0.00     0.034 A 
HETATM   28 CL   UNL     1      44.651 -21.980   1.939  1.00  0.00    -0.084 Cl
HETATM   29  C   UNL     1      43.136 -19.758   1.737  1.00  0.00     0.024 A 
HETATM   30  C   UNL     1      42.625 -18.546   2.209  1.00  0.00     0.011 A 
ENDBRANCH   6  24
TORSDOF 6
ENDMDL
