MODEL 1
REMARK VINA RESULT:      -9.0      0.000      0.000
REMARK  4 active torsions:
REMARK  status: ('A' for Active; 'I' for Inactive)
REMARK    1  A    between atoms: C_2  and  C_3 
REMARK    2  A    between atoms: C_4  and  C_5 
REMARK       I    between atoms: C_5  and  N_6 
REMARK    3  A    between atoms: N_6  and  C_7 
REMARK    4  A    between atoms: C_14  and  C_15 
REMARK       I    between atoms: C_15  and  N_16 
ROOT
HETATM    1  C   UNL     1      41.473 -16.796   1.092  1.00  0.00     0.035 A 
HETATM    2  C   UNL     1      41.573 -16.228  -0.190  1.00  0.00     0.046 A 
HETATM    3  C   UNL     1      40.842 -15.061  -0.496  1.00  0.00     0.030 A 
HETATM    4  C   UNL     1      40.025 -14.507   0.481  1.00  0.00     0.063 A 
HETATM    5  N   UNL     1      39.457 -13.408  -0.101  1.00  0.00    -0.277 N 
HETATM    6  H   UNL     1      38.801 -12.762   0.323  1.00  0.00     0.189 HD
HETATM    7  N   UNL     1      39.841 -13.191  -1.371  1.00  0.00    -0.168 NA
HETATM    8  C   UNL     1      40.696 -14.206  -1.628  1.00  0.00     0.156 A 
HETATM    9  C   UNL     1      39.892 -15.053   1.758  1.00  0.00     0.034 A 
HETATM   10  C   UNL     1      40.636 -16.208   2.042  1.00  0.00     0.032 A 
ENDROOT
BRANCH   1  11
HETATM   11  N   UNL     1      42.239 -17.955   1.335  1.00  0.00    -0.327 N 
HETATM   12  C   UNL     1      43.599 -18.028   1.547  1.00  0.00     0.227 C 
HETATM   13  O   UNL     1      44.409 -17.114   1.484  1.00  0.00    -0.273 OA
HETATM   14  H   UNL     1      41.739 -18.834   1.305  1.00  0.00     0.169 HD
BRANCH  12  15
HETATM   15  C   UNL     1      44.111 -19.409   1.773  1.00  0.00     0.087 A 
HETATM   16  C   UNL     1      44.455 -19.925   3.161  1.00  0.00     0.032 A 
HETATM   17  C   UNL     1      43.297 -20.515   2.387  1.00  0.00     0.025 A 
BRANCH  16  18
HETATM   18  C   UNL     1      44.157 -19.184   4.446  1.00  0.00    -0.053 A 
HETATM   19  C   UNL     1      45.188 -18.875   5.354  1.00  0.00     0.009 A 
HETATM   20  C   UNL     1      44.939 -18.169   6.535  1.00  0.00     0.024 A 
HETATM   21  C   UNL     1      43.646 -17.752   6.829  1.00  0.00     0.034 A 
HETATM   22  C   UNL     1      42.608 -18.025   5.945  1.00  0.00     0.024 A 
HETATM   23 CL   UNL     1      43.332 -16.888   8.283  1.00  0.00    -0.084 Cl
HETATM   24  C   UNL     1      42.868 -18.722   4.761  1.00  0.00     0.009 A 
ENDBRANCH  16  18
ENDBRANCH  12  15
ENDBRANCH   1  11
BRANCH   8  25
HETATM   25  C   UNL     1      41.359 -14.337  -2.933  1.00  0.00     0.270 C 
HETATM   26  N   UNL     1      42.610 -13.784  -2.981  1.00  0.00    -0.365 N 
HETATM   27  H   UNL     1      42.978 -13.346  -2.144  1.00  0.00     0.159 HD
HETATM   28  H   UNL     1      43.149 -13.832  -3.831  1.00  0.00     0.159 HD
HETATM   29  O   UNL     1      40.865 -14.889  -3.910  1.00  0.00    -0.266 OA
ENDBRANCH   8  25
TORSDOF 4
ENDMDL
MODEL 2
REMARK VINA RESULT:      -8.5      2.758      3.878
REMARK  4 active torsions:
REMARK  status: ('A' for Active; 'I' for Inactive)
REMARK    1  A    between atoms: C_2  and  C_3 
REMARK    2  A    between atoms: C_4  and  C_5 
REMARK       I    between atoms: C_5  and  N_6 
REMARK    3  A    between atoms: N_6  and  C_7 
REMARK    4  A    between atoms: C_14  and  C_15 
REMARK       I    between atoms: C_15  and  N_16 
ROOT
HETATM    1  C   UNL     1      42.333 -16.341   3.098  1.00  0.00     0.035 A 
HETATM    2  C   UNL     1      42.202 -15.141   2.379  1.00  0.00     0.046 A 
HETATM    3  C   UNL     1      41.708 -15.167   1.057  1.00  0.00     0.030 A 
HETATM    4  C   UNL     1      41.376 -16.391   0.492  1.00  0.00     0.063 A 
HETATM    5  N   UNL     1      40.938 -16.101  -0.770  1.00  0.00    -0.277 N 
HETATM    6  H   UNL     1      40.614 -16.757  -1.471  1.00  0.00     0.189 HD
HETATM    7  N   UNL     1      40.946 -14.791  -1.074  1.00  0.00    -0.168 NA
HETATM    8  C   UNL     1      41.422 -14.203   0.047  1.00  0.00     0.156 A 
HETATM    9  C   UNL     1      41.507 -17.603   1.173  1.00  0.00     0.034 A 
HETATM   10  C   UNL     1      41.991 -17.550   2.487  1.00  0.00     0.032 A 
ENDROOT
BRANCH   1  11
HETATM   11  N   UNL     1      42.821 -16.242   4.417  1.00  0.00    -0.327 N 
HETATM   12  C   UNL     1      42.136 -16.506   5.584  1.00  0.00     0.227 C 
HETATM   13  O   UNL     1      40.954 -16.798   5.699  1.00  0.00    -0.273 OA
HETATM   14  H   UNL     1      43.766 -15.894   4.518  1.00  0.00     0.169 HD
BRANCH  12  15
HETATM   15  C   UNL     1      42.935 -16.303   6.824  1.00  0.00     0.087 A 
HETATM   16  C   UNL     1      43.808 -17.400   7.412  1.00  0.00     0.032 A 
HETATM   17  C   UNL     1      44.431 -16.144   6.842  1.00  0.00     0.025 A 
BRANCH  16  18
HETATM   18  C   UNL     1      44.097 -18.718   6.729  1.00  0.00    -0.053 A 
HETATM   19  C   UNL     1      43.602 -19.926   7.258  1.00  0.00     0.009 A 
HETATM   20  C   UNL     1      43.836 -21.153   6.629  1.00  0.00     0.024 A 
HETATM   21  C   UNL     1      44.570 -21.195   5.450  1.00  0.00     0.034 A 
HETATM   22  C   UNL     1      45.058 -20.019   4.891  1.00  0.00     0.024 A 
HETATM   23 CL   UNL     1      44.865 -22.702   4.675  1.00  0.00    -0.084 Cl
HETATM   24  C   UNL     1      44.810 -18.795   5.520  1.00  0.00     0.009 A 
ENDBRANCH  16  18
ENDBRANCH  12  15
ENDBRANCH   1  11
BRANCH   8  25
HETATM   25  C   UNL     1      41.584 -12.745   0.137  1.00  0.00     0.270 C 
HETATM   26  N   UNL     1      40.507 -12.034  -0.316  1.00  0.00    -0.365 N 
HETATM   27  H   UNL     1      39.702 -12.543  -0.663  1.00  0.00     0.159 HD
HETATM   28  H   UNL     1      40.520 -11.027  -0.286  1.00  0.00     0.159 HD
HETATM   29  O   UNL     1      42.583 -12.185   0.577  1.00  0.00    -0.266 OA
ENDBRANCH   8  25
TORSDOF 4
ENDMDL
MODEL 3
REMARK VINA RESULT:      -8.1      3.276      7.083
REMARK  4 active torsions:
REMARK  status: ('A' for Active; 'I' for Inactive)
REMARK    1  A    between atoms: C_2  and  C_3 
REMARK    2  A    between atoms: C_4  and  C_5 
REMARK       I    between atoms: C_5  and  N_6 
REMARK    3  A    between atoms: N_6  and  C_7 
REMARK    4  A    between atoms: C_14  and  C_15 
REMARK       I    between atoms: C_15  and  N_16 
ROOT
HETATM    1  C   UNL     1      42.943 -18.129   2.193  1.00  0.00     0.035 A 
HETATM    2  C   UNL     1      43.287 -18.168   3.555  1.00  0.00     0.046 A 
HETATM    3  C   UNL     1      43.901 -19.321   4.089  1.00  0.00     0.030 A 
HETATM    4  C   UNL     1      44.138 -20.402   3.250  1.00  0.00     0.063 A 
HETATM    5  N   UNL     1      44.729 -21.350   4.037  1.00  0.00    -0.277 N 
HETATM    6  H   UNL     1      45.038 -22.273   3.756  1.00  0.00     0.189 HD
HETATM    7  N   UNL     1      44.906 -20.977   5.317  1.00  0.00    -0.168 NA
HETATM    8  C   UNL     1      44.398 -19.726   5.362  1.00  0.00     0.156 A 
HETATM    9  C   UNL     1      43.797 -20.402   1.896  1.00  0.00     0.034 A 
HETATM   10  C   UNL     1      43.197 -19.242   1.387  1.00  0.00     0.032 A 
ENDROOT
BRANCH   1  11
HETATM   11  N   UNL     1      42.344 -16.943   1.722  1.00  0.00    -0.327 N 
HETATM   12  C   UNL     1      41.003 -16.623   1.732  1.00  0.00     0.227 C 
HETATM   13  O   UNL     1      40.073 -17.338   2.077  1.00  0.00    -0.273 OA
HETATM   14  H   UNL     1      42.964 -16.272   1.286  1.00  0.00     0.169 HD
BRANCH  12  15
HETATM   15  C   UNL     1      40.688 -15.286   1.156  1.00  0.00     0.087 A 
HETATM   16  C   UNL     1      40.997 -13.994   1.895  1.00  0.00     0.032 A 
HETATM   17  C   UNL     1      41.724 -14.340   0.614  1.00  0.00     0.025 A 
BRANCH  16  18
HETATM   18  C   UNL     1      41.798 -13.915   3.176  1.00  0.00    -0.053 A 
HETATM   19  C   UNL     1      41.156 -13.941   4.429  1.00  0.00     0.009 A 
HETATM   20  C   UNL     1      41.878 -13.894   5.625  1.00  0.00     0.024 A 
HETATM   21  C   UNL     1      43.266 -13.825   5.590  1.00  0.00     0.034 A 
HETATM   22  C   UNL     1      43.933 -13.815   4.370  1.00  0.00     0.024 A 
HETATM   23 CL   UNL     1      44.160 -13.762   7.058  1.00  0.00    -0.084 Cl
HETATM   24  C   UNL     1      43.203 -13.873   3.179  1.00  0.00     0.009 A 
ENDBRANCH  16  18
ENDBRANCH  12  15
ENDBRANCH   1  11
BRANCH   8  25
HETATM   25  C   UNL     1      44.403 -18.941   6.605  1.00  0.00     0.270 C 
HETATM   26  N   UNL     1      45.277 -17.889   6.597  1.00  0.00    -0.365 N 
HETATM   27  H   UNL     1      45.833 -17.728   5.765  1.00  0.00     0.159 HD
HETATM   28  H   UNL     1      45.346 -17.286   7.401  1.00  0.00     0.159 HD
HETATM   29  O   UNL     1      43.696 -19.180   7.578  1.00  0.00    -0.266 OA
ENDBRANCH   8  25
TORSDOF 4
ENDMDL
MODEL 4
REMARK VINA RESULT:      -8.1      2.785      4.065
REMARK  4 active torsions:
REMARK  status: ('A' for Active; 'I' for Inactive)
REMARK    1  A    between atoms: C_2  and  C_3 
REMARK    2  A    between atoms: C_4  and  C_5 
REMARK       I    between atoms: C_5  and  N_6 
REMARK    3  A    between atoms: N_6  and  C_7 
REMARK    4  A    between atoms: C_14  and  C_15 
REMARK       I    between atoms: C_15  and  N_16 
ROOT
HETATM    1  C   UNL     1      41.721 -15.448   4.645  1.00  0.00     0.035 A 
HETATM    2  C   UNL     1      41.752 -15.784   3.280  1.00  0.00     0.046 A 
HETATM    3  C   UNL     1      40.833 -15.188   2.392  1.00  0.00     0.030 A 
HETATM    4  C   UNL     1      39.903 -14.289   2.895  1.00  0.00     0.063 A 
HETATM    5  N   UNL     1      39.164 -13.889   1.817  1.00  0.00    -0.277 N 
HETATM    6  H   UNL     1      38.391 -13.233   1.814  1.00  0.00     0.189 HD
HETATM    7  N   UNL     1      39.538 -14.443   0.651  1.00  0.00    -0.168 NA
HETATM    8  C   UNL     1      40.568 -15.250   0.992  1.00  0.00     0.156 A 
HETATM    9  C   UNL     1      39.835 -13.943   4.246  1.00  0.00     0.034 A 
HETATM   10  C   UNL     1      40.765 -14.541   5.108  1.00  0.00     0.032 A 
ENDROOT
BRANCH   1  11
HETATM   11  N   UNL     1      42.675 -16.071   5.476  1.00  0.00    -0.327 N 
HETATM   12  C   UNL     1      42.567 -17.295   6.100  1.00  0.00     0.227 C 
HETATM   13  O   UNL     1      41.593 -18.035   6.117  1.00  0.00    -0.273 OA
HETATM   14  H   UNL     1      43.512 -15.538   5.671  1.00  0.00     0.169 HD
BRANCH  12  15
HETATM   15  C   UNL     1      43.753 -17.673   6.917  1.00  0.00     0.087 A 
HETATM   16  C   UNL     1      44.659 -18.834   6.538  1.00  0.00     0.032 A 
HETATM   17  C   UNL     1      45.176 -17.413   6.503  1.00  0.00     0.025 A 
BRANCH  16  18
HETATM   18  C   UNL     1      44.568 -19.598   5.236  1.00  0.00    -0.053 A 
HETATM   19  C   UNL     1      44.683 -21.001   5.215  1.00  0.00     0.009 A 
HETATM   20  C   UNL     1      44.577 -21.729   4.026  1.00  0.00     0.024 A 
HETATM   21  C   UNL     1      44.346 -21.062   2.828  1.00  0.00     0.034 A 
HETATM   22  C   UNL     1      44.210 -19.679   2.815  1.00  0.00     0.024 A 
HETATM   23 CL   UNL     1      44.220 -21.952   1.361  1.00  0.00    -0.084 Cl
HETATM   24  C   UNL     1      44.307 -18.960   4.011  1.00  0.00     0.009 A 
ENDBRANCH  16  18
ENDBRANCH  12  15
ENDBRANCH   1  11
BRANCH   8  25
HETATM   25  C   UNL     1      41.280 -16.050  -0.013  1.00  0.00     0.270 C 
HETATM   26  N   UNL     1      40.825 -15.874  -1.292  1.00  0.00    -0.365 N 
HETATM   27  H   UNL     1      40.063 -15.225  -1.449  1.00  0.00     0.159 HD
HETATM   28  H   UNL     1      41.258 -16.374  -2.053  1.00  0.00     0.159 HD
HETATM   29  O   UNL     1      42.206 -16.814   0.238  1.00  0.00    -0.266 OA
ENDBRANCH   8  25
TORSDOF 4
ENDMDL
MODEL 5
REMARK VINA RESULT:      -8.0      2.709      3.836
REMARK  4 active torsions:
REMARK  status: ('A' for Active; 'I' for Inactive)
REMARK    1  A    between atoms: C_2  and  C_3 
REMARK    2  A    between atoms: C_4  and  C_5 
REMARK       I    between atoms: C_5  and  N_6 
REMARK    3  A    between atoms: N_6  and  C_7 
REMARK    4  A    between atoms: C_14  and  C_15 
REMARK       I    between atoms: C_15  and  N_16 
ROOT
HETATM    1  C   UNL     1      40.172 -13.870   1.308  1.00  0.00     0.035 A 
HETATM    2  C   UNL     1      40.668 -14.057   0.006  1.00  0.00     0.046 A 
HETATM    3  C   UNL     1      39.771 -14.131  -1.080  1.00  0.00     0.030 A 
HETATM    4  C   UNL     1      38.408 -14.032  -0.831  1.00  0.00     0.063 A 
HETATM    5  N   UNL     1      37.807 -14.138  -2.054  1.00  0.00    -0.277 N 
HETATM    6  H   UNL     1      36.813 -14.110  -2.251  1.00  0.00     0.189 HD
HETATM    7  N   UNL     1      38.661 -14.290  -3.081  1.00  0.00    -0.168 NA
HETATM    8  C   UNL     1      39.878 -14.289  -2.493  1.00  0.00     0.156 A 
HETATM    9  C   UNL     1      37.882 -13.859   0.450  1.00  0.00     0.034 A 
HETATM   10  C   UNL     1      38.793 -13.778   1.512  1.00  0.00     0.032 A 
ENDROOT
BRANCH   1  11
HETATM   11  N   UNL     1      41.123 -13.792   2.346  1.00  0.00    -0.327 N 
HETATM   12  C   UNL     1      41.052 -14.382   3.590  1.00  0.00     0.227 C 
HETATM   13  O   UNL     1      40.117 -15.017   4.057  1.00  0.00    -0.273 OA
HETATM   14  H   UNL     1      41.925 -13.199   2.173  1.00  0.00     0.169 HD
BRANCH  12  15
HETATM   15  C   UNL     1      42.224 -14.105   4.467  1.00  0.00     0.087 A 
HETATM   16  C   UNL     1      43.311 -15.139   4.714  1.00  0.00     0.032 A 
HETATM   17  C   UNL     1      43.618 -13.867   3.956  1.00  0.00     0.025 A 
BRANCH  16  18
HETATM   18  C   UNL     1      43.418 -16.457   3.979  1.00  0.00    -0.053 A 
HETATM   19  C   UNL     1      43.148 -17.672   4.638  1.00  0.00     0.009 A 
HETATM   20  C   UNL     1      43.216 -18.900   3.972  1.00  0.00     0.024 A 
HETATM   21  C   UNL     1      43.553 -18.934   2.623  1.00  0.00     0.034 A 
HETATM   22  C   UNL     1      43.807 -17.752   1.938  1.00  0.00     0.024 A 
HETATM   23 CL   UNL     1      43.643 -20.442   1.800  1.00  0.00    -0.084 Cl
HETATM   24  C   UNL     1      43.726 -16.528   2.610  1.00  0.00     0.009 A 
ENDBRANCH  16  18
ENDBRANCH  12  15
ENDBRANCH   1  11
BRANCH   8  25
HETATM   25  C   UNL     1      41.110 -14.427  -3.282  1.00  0.00     0.270 C 
HETATM   26  N   UNL     1      41.651 -13.237  -3.685  1.00  0.00    -0.365 N 
HETATM   27  H   UNL     1      41.185 -12.377  -3.417  1.00  0.00     0.159 HD
HETATM   28  H   UNL     1      42.502 -13.228  -4.224  1.00  0.00     0.159 HD
HETATM   29  O   UNL     1      41.634 -15.499  -3.567  1.00  0.00    -0.266 OA
ENDBRANCH   8  25
TORSDOF 4
ENDMDL
MODEL 6
REMARK VINA RESULT:      -7.9      3.320      7.350
REMARK  4 active torsions:
REMARK  status: ('A' for Active; 'I' for Inactive)
REMARK    1  A    between atoms: C_2  and  C_3 
REMARK    2  A    between atoms: C_4  and  C_5 
REMARK       I    between atoms: C_5  and  N_6 
REMARK    3  A    between atoms: N_6  and  C_7 
REMARK    4  A    between atoms: C_14  and  C_15 
REMARK       I    between atoms: C_15  and  N_16 
ROOT
HETATM    1  C   UNL     1      42.986 -17.782   2.536  1.00  0.00     0.035 A 
HETATM    2  C   UNL     1      42.778 -17.570   3.910  1.00  0.00     0.046 A 
HETATM    3  C   UNL     1      43.337 -18.464   4.848  1.00  0.00     0.030 A 
HETATM    4  C   UNL     1      44.072 -19.547   4.384  1.00  0.00     0.063 A 
HETATM    5  N   UNL     1      44.475 -20.219   5.505  1.00  0.00    -0.277 N 
HETATM    6  H   UNL     1      45.032 -21.065   5.544  1.00  0.00     0.189 HD
HETATM    7  N   UNL     1      44.075 -19.661   6.661  1.00  0.00    -0.168 NA
HETATM    8  C   UNL     1      43.370 -18.577   6.269  1.00  0.00     0.156 A 
HETATM    9  C   UNL     1      44.285 -19.795   3.027  1.00  0.00     0.034 A 
HETATM   10  C   UNL     1      43.728 -18.888   2.115  1.00  0.00     0.032 A 
ENDROOT
BRANCH   1  11
HETATM   11  N   UNL     1      42.409 -16.845   1.654  1.00  0.00    -0.327 N 
HETATM   12  C   UNL     1      41.067 -16.610   1.445  1.00  0.00     0.227 C 
HETATM   13  O   UNL     1      40.124 -17.223   1.925  1.00  0.00    -0.273 OA
HETATM   14  H   UNL     1      43.054 -16.320   1.078  1.00  0.00     0.169 HD
BRANCH  12  15
HETATM   15  C   UNL     1      40.780 -15.550   0.439  1.00  0.00     0.087 A 
HETATM   16  C   UNL     1      40.584 -14.094   0.832  1.00  0.00     0.032 A 
HETATM   17  C   UNL     1      41.779 -14.513   0.004  1.00  0.00     0.025 A 
BRANCH  16  18
HETATM   18  C   UNL     1      40.830 -13.545   2.220  1.00  0.00    -0.053 A 
HETATM   19  C   UNL     1      39.762 -13.355   3.118  1.00  0.00     0.009 A 
HETATM   20  C   UNL     1      39.969 -12.872   4.414  1.00  0.00     0.024 A 
HETATM   21  C   UNL     1      41.258 -12.573   4.840  1.00  0.00     0.034 A 
HETATM   22  C   UNL     1      42.337 -12.766   3.985  1.00  0.00     0.024 A 
HETATM   23 CL   UNL     1      41.518 -11.974   6.431  1.00  0.00    -0.084 Cl
HETATM   24  C   UNL     1      42.121 -13.259   2.694  1.00  0.00     0.009 A 
ENDBRANCH  16  18
ENDBRANCH  12  15
ENDBRANCH   1  11
BRANCH   8  25
HETATM   25  C   UNL     1      42.752 -17.670   7.247  1.00  0.00     0.270 C 
HETATM   26  N   UNL     1      43.398 -17.625   8.452  1.00  0.00    -0.365 N 
HETATM   27  H   UNL     1      44.228 -18.194   8.579  1.00  0.00     0.159 HD
HETATM   28  H   UNL     1      43.055 -17.024   9.185  1.00  0.00     0.159 HD
HETATM   29  O   UNL     1      41.749 -16.997   7.032  1.00  0.00    -0.266 OA
ENDBRANCH   8  25
TORSDOF 4
ENDMDL
MODEL 7
REMARK VINA RESULT:      -7.9      3.847      8.262
REMARK  4 active torsions:
REMARK  status: ('A' for Active; 'I' for Inactive)
REMARK    1  A    between atoms: C_2  and  C_3 
REMARK    2  A    between atoms: C_4  and  C_5 
REMARK       I    between atoms: C_5  and  N_6 
REMARK    3  A    between atoms: N_6  and  C_7 
REMARK    4  A    between atoms: C_14  and  C_15 
REMARK       I    between atoms: C_15  and  N_16 
ROOT
HETATM    1  C   UNL     1      42.880 -16.798   3.093  1.00  0.00     0.035 A 
HETATM    2  C   UNL     1      43.098 -17.547   4.262  1.00  0.00     0.046 A 
HETATM    3  C   UNL     1      43.769 -18.785   4.184  1.00  0.00     0.030 A 
HETATM    4  C   UNL     1      44.187 -19.243   2.942  1.00  0.00     0.063 A 
HETATM    5  N   UNL     1      44.792 -20.445   3.182  1.00  0.00    -0.277 N 
HETATM    6  H   UNL     1      45.215 -21.064   2.501  1.00  0.00     0.189 HD
HETATM    7  N   UNL     1      44.813 -20.807   4.477  1.00  0.00    -0.168 NA
HETATM    8  C   UNL     1      44.183 -19.791   5.107  1.00  0.00     0.156 A 
HETATM    9  C   UNL     1      43.975 -18.531   1.760  1.00  0.00     0.034 A 
HETATM   10  C   UNL     1      43.314 -17.299   1.863  1.00  0.00     0.032 A 
ENDROOT
BRANCH   1  11
HETATM   11  N   UNL     1      42.214 -15.564   3.243  1.00  0.00    -0.327 N 
HETATM   12  C   UNL     1      42.779 -14.306   3.264  1.00  0.00     0.227 C 
HETATM   13  O   UNL     1      43.970 -14.029   3.238  1.00  0.00    -0.273 OA
HETATM   14  H   UNL     1      41.215 -15.612   3.397  1.00  0.00     0.169 HD
BRANCH  12  15
HETATM   15  C   UNL     1      41.801 -13.198   3.442  1.00  0.00     0.087 A 
HETATM   16  C   UNL     1      41.106 -12.536   2.263  1.00  0.00     0.032 A 
HETATM   17  C   UNL     1      40.315 -13.352   3.262  1.00  0.00     0.025 A 
BRANCH  16  18
HETATM   18  C   UNL     1      41.189 -13.031   0.836  1.00  0.00    -0.053 A 
HETATM   19  C   UNL     1      40.341 -14.059   0.382  1.00  0.00     0.009 A 
HETATM   20  C   UNL     1      40.382 -14.515  -0.940  1.00  0.00     0.024 A 
HETATM   21  C   UNL     1      41.275 -13.943  -1.838  1.00  0.00     0.034 A 
HETATM   22  C   UNL     1      42.114 -12.913  -1.427  1.00  0.00     0.024 A 
HETATM   23 CL   UNL     1      41.335 -14.503  -3.463  1.00  0.00    -0.084 Cl
HETATM   24  C   UNL     1      42.058 -12.457  -0.106  1.00  0.00     0.009 A 
ENDBRANCH  16  18
ENDBRANCH  12  15
ENDBRANCH   1  11
BRANCH   8  25
HETATM   25  C   UNL     1      43.996 -19.791   6.564  1.00  0.00     0.270 C 
HETATM   26  N   UNL     1      43.595 -20.995   7.076  1.00  0.00    -0.365 N 
HETATM   27  H   UNL     1      43.468 -21.773   6.439  1.00  0.00     0.159 HD
HETATM   28  H   UNL     1      43.450 -21.097   8.067  1.00  0.00     0.159 HD
HETATM   29  O   UNL     1      44.176 -18.816   7.286  1.00  0.00    -0.266 OA
ENDBRANCH   8  25
TORSDOF 4
ENDMDL
MODEL 8
REMARK VINA RESULT:      -7.9      2.968      4.356
REMARK  4 active torsions:
REMARK  status: ('A' for Active; 'I' for Inactive)
REMARK    1  A    between atoms: C_2  and  C_3 
REMARK    2  A    between atoms: C_4  and  C_5 
REMARK       I    between atoms: C_5  and  N_6 
REMARK    3  A    between atoms: N_6  and  C_7 
REMARK    4  A    between atoms: C_14  and  C_15 
REMARK       I    between atoms: C_15  and  N_16 
ROOT
HETATM    1  C   UNL     1      42.221 -15.280   1.970  1.00  0.00     0.035 A 
HETATM    2  C   UNL     1      42.246 -14.685   3.243  1.00  0.00     0.046 A 
HETATM    3  C   UNL     1      41.901 -13.324   3.387  1.00  0.00     0.030 A 
HETATM    4  C   UNL     1      41.559 -12.598   2.253  1.00  0.00     0.063 A 
HETATM    5  N   UNL     1      41.282 -11.337   2.701  1.00  0.00    -0.277 N 
HETATM    6  H   UNL     1      40.998 -10.539   2.144  1.00  0.00     0.189 HD
HETATM    7  N   UNL     1      41.406 -11.179   4.030  1.00  0.00    -0.168 NA
HETATM    8  C   UNL     1      41.790 -12.399   4.466  1.00  0.00     0.156 A 
HETATM    9  C   UNL     1      41.537 -13.154   0.973  1.00  0.00     0.034 A 
HETATM   10  C   UNL     1      41.874 -14.510   0.858  1.00  0.00     0.032 A 
ENDROOT
BRANCH   1  11
HETATM   11  N   UNL     1      42.565 -16.646   1.900  1.00  0.00    -0.327 N 
HETATM   12  C   UNL     1      43.818 -17.183   1.694  1.00  0.00     0.227 C 
HETATM   13  O   UNL     1      44.853 -16.578   1.453  1.00  0.00    -0.273 OA
HETATM   14  H   UNL     1      41.798 -17.302   1.962  1.00  0.00     0.169 HD
BRANCH  12  15
HETATM   15  C   UNL     1      43.850 -18.672   1.668  1.00  0.00     0.087 A 
HETATM   16  C   UNL     1      43.952 -19.500   2.939  1.00  0.00     0.032 A 
HETATM   17  C   UNL     1      42.700 -19.543   2.092  1.00  0.00     0.025 A 
BRANCH  16  18
HETATM   18  C   UNL     1      43.853 -18.932   4.338  1.00  0.00    -0.053 A 
HETATM   19  C   UNL     1      42.615 -18.504   4.854  1.00  0.00     0.009 A 
HETATM   20  C   UNL     1      42.495 -17.999   6.153  1.00  0.00     0.024 A 
HETATM   21  C   UNL     1      43.620 -17.919   6.966  1.00  0.00     0.034 A 
HETATM   22  C   UNL     1      44.854 -18.350   6.494  1.00  0.00     0.024 A 
HETATM   23 CL   UNL     1      43.480 -17.294   8.563  1.00  0.00    -0.084 Cl
HETATM   24  C   UNL     1      44.962 -18.863   5.198  1.00  0.00     0.009 A 
ENDBRANCH  16  18
ENDBRANCH  12  15
ENDBRANCH   1  11
BRANCH   8  25
HETATM   25  C   UNL     1      42.032 -12.663   5.891  1.00  0.00     0.270 C 
HETATM   26  N   UNL     1      40.993 -12.311   6.709  1.00  0.00    -0.365 N 
HETATM   27  H   UNL     1      40.160 -11.914   6.289  1.00  0.00     0.159 HD
HETATM   28  H   UNL     1      41.061 -12.462   7.702  1.00  0.00     0.159 HD
HETATM   29  O   UNL     1      43.061 -13.157   6.339  1.00  0.00    -0.266 OA
ENDBRANCH   8  25
TORSDOF 4
ENDMDL
MODEL 9
REMARK VINA RESULT:      -7.8      3.792      7.501
REMARK  4 active torsions:
REMARK  status: ('A' for Active; 'I' for Inactive)
REMARK    1  A    between atoms: C_2  and  C_3 
REMARK    2  A    between atoms: C_4  and  C_5 
REMARK       I    between atoms: C_5  and  N_6 
REMARK    3  A    between atoms: N_6  and  C_7 
REMARK    4  A    between atoms: C_14  and  C_15 
REMARK       I    between atoms: C_15  and  N_16 
ROOT
HETATM    1  C   UNL     1      43.310 -15.994   5.215  1.00  0.00     0.035 A 
HETATM    2  C   UNL     1      43.301 -16.903   4.143  1.00  0.00     0.046 A 
HETATM    3  C   UNL     1      43.937 -18.155   4.282  1.00  0.00     0.030 A 
HETATM    4  C   UNL     1      44.574 -18.452   5.479  1.00  0.00     0.063 A 
HETATM    5  N   UNL     1      45.088 -19.708   5.315  1.00  0.00    -0.277 N 
HETATM    6  H   UNL     1      45.620 -20.244   5.990  1.00  0.00     0.189 HD
HETATM    7  N   UNL     1      44.832 -20.260   4.116  1.00  0.00    -0.168 NA
HETATM    8  C   UNL     1      44.123 -19.310   3.467  1.00  0.00     0.156 A 
HETATM    9  C   UNL     1      44.614 -17.567   6.558  1.00  0.00     0.034 A 
HETATM   10  C   UNL     1      43.967 -16.333   6.399  1.00  0.00     0.032 A 
ENDROOT
BRANCH   1  11
HETATM   11  N   UNL     1      42.646 -14.766   5.013  1.00  0.00    -0.327 N 
HETATM   12  C   UNL     1      43.079 -13.695   4.262  1.00  0.00     0.227 C 
HETATM   13  O   UNL     1      44.156 -13.575   3.695  1.00  0.00    -0.273 OA
HETATM   14  H   UNL     1      41.775 -14.643   5.514  1.00  0.00     0.169 HD
BRANCH  12  15
HETATM   15  C   UNL     1      42.144 -12.536   4.250  1.00  0.00     0.087 A 
HETATM   16  C   UNL     1      41.305 -12.187   3.032  1.00  0.00     0.032 A 
HETATM   17  C   UNL     1      40.647 -12.665   4.307  1.00  0.00     0.025 A 
BRANCH  16  18
HETATM   18  C   UNL     1      41.191 -13.054   1.797  1.00  0.00    -0.053 A 
HETATM   19  C   UNL     1      41.920 -12.745   0.632  1.00  0.00     0.009 A 
HETATM   20  C   UNL     1      41.850 -13.546  -0.512  1.00  0.00     0.024 A 
HETATM   21  C   UNL     1      41.048 -14.681  -0.510  1.00  0.00     0.034 A 
HETATM   22  C   UNL     1      40.329 -15.025   0.630  1.00  0.00     0.024 A 
HETATM   23 CL   UNL     1      40.953 -15.668  -1.916  1.00  0.00    -0.084 Cl
HETATM   24  C   UNL     1      40.414 -14.224   1.773  1.00  0.00     0.009 A 
ENDBRANCH  16  18
ENDBRANCH  12  15
ENDBRANCH   1  11
BRANCH   8  25
HETATM   25  C   UNL     1      43.632 -19.521   2.099  1.00  0.00     0.270 C 
HETATM   26  N   UNL     1      43.226 -20.803   1.843  1.00  0.00    -0.365 N 
HETATM   27  H   UNL     1      43.285 -21.487   2.588  1.00  0.00     0.159 HD
HETATM   28  H   UNL     1      42.864 -21.044   0.934  1.00  0.00     0.159 HD
HETATM   29  O   UNL     1      43.575 -18.647   1.240  1.00  0.00    -0.266 OA
ENDBRANCH   8  25
TORSDOF 4
ENDMDL
MODEL 10
REMARK VINA RESULT:      -7.7      3.985      5.636
REMARK  4 active torsions:
REMARK  status: ('A' for Active; 'I' for Inactive)
REMARK    1  A    between atoms: C_2  and  C_3 
REMARK    2  A    between atoms: C_4  and  C_5 
REMARK       I    between atoms: C_5  and  N_6 
REMARK    3  A    between atoms: N_6  and  C_7 
REMARK    4  A    between atoms: C_14  and  C_15 
REMARK       I    between atoms: C_15  and  N_16 
ROOT
HETATM    1  C   UNL     1      42.266 -15.435   4.609  1.00  0.00     0.035 A 
HETATM    2  C   UNL     1      41.475 -14.463   5.245  1.00  0.00     0.046 A 
HETATM    3  C   UNL     1      40.574 -13.688   4.485  1.00  0.00     0.030 A 
HETATM    4  C   UNL     1      40.503 -13.898   3.114  1.00  0.00     0.063 A 
HETATM    5  N   UNL     1      39.562 -13.016   2.660  1.00  0.00    -0.277 N 
HETATM    6  H   UNL     1      39.252 -12.890   1.703  1.00  0.00     0.189 HD
HETATM    7  N   UNL     1      39.006 -12.255   3.619  1.00  0.00    -0.168 NA
HETATM    8  C   UNL     1      39.624 -12.659   4.751  1.00  0.00     0.156 A 
HETATM    9  C   UNL     1      41.283 -14.845   2.449  1.00  0.00     0.034 A 
HETATM   10  C   UNL     1      42.164 -15.609   3.227  1.00  0.00     0.032 A 
ENDROOT
BRANCH   1  11
HETATM   11  N   UNL     1      43.137 -16.183   5.429  1.00  0.00    -0.327 N 
HETATM   12  C   UNL     1      42.877 -17.391   6.041  1.00  0.00     0.227 C 
HETATM   13  O   UNL     1      41.818 -18.002   6.054  1.00  0.00    -0.273 OA
HETATM   14  H   UNL     1      44.036 -15.762   5.626  1.00  0.00     0.169 HD
BRANCH  12  15
HETATM   15  C   UNL     1      44.009 -17.924   6.848  1.00  0.00     0.087 A 
HETATM   16  C   UNL     1      44.765 -19.181   6.449  1.00  0.00     0.032 A 
HETATM   17  C   UNL     1      45.452 -17.834   6.434  1.00  0.00     0.025 A 
BRANCH  16  18
HETATM   18  C   UNL     1      44.580 -19.907   5.135  1.00  0.00    -0.053 A 
HETATM   19  C   UNL     1      44.349 -19.191   3.944  1.00  0.00     0.009 A 
HETATM   20  C   UNL     1      44.200 -19.840   2.714  1.00  0.00     0.024 A 
HETATM   21  C   UNL     1      44.285 -21.226   2.652  1.00  0.00     0.034 A 
HETATM   22  C   UNL     1      44.530 -21.962   3.805  1.00  0.00     0.024 A 
HETATM   23 CL   UNL     1      44.097 -22.030   1.143  1.00  0.00    -0.084 Cl
HETATM   24  C   UNL     1      44.688 -21.304   5.029  1.00  0.00     0.009 A 
ENDBRANCH  16  18
ENDBRANCH  12  15
ENDBRANCH   1  11
BRANCH   8  25
HETATM   25  C   UNL     1      39.294 -12.070   6.056  1.00  0.00     0.270 C 
HETATM   26  N   UNL     1      39.248 -12.975   7.082  1.00  0.00    -0.365 N 
HETATM   27  H   UNL     1      39.443 -13.949   6.877  1.00  0.00     0.159 HD
HETATM   28  H   UNL     1      39.039 -12.665   8.017  1.00  0.00     0.159 HD
HETATM   29  O   UNL     1      39.077 -10.878   6.244  1.00  0.00    -0.266 OA
ENDBRANCH   8  25
TORSDOF 4
ENDMDL
