MODEL 1
REMARK VINA RESULT:      -8.4      0.000      0.000
REMARK  3 active torsions:
REMARK  status: ('A' for Active; 'I' for Inactive)
REMARK    1  A    between atoms: C_3  and  N_4 
REMARK       I    between atoms: N_4  and  C_5 
REMARK    2  A    between atoms: C_5  and  C_6 
REMARK    3  A    between atoms: C_6  and  C_7 
ROOT
HETATM    1  C   UNL     1      42.529 -16.852   6.389  1.00  0.00     0.286 C 
HETATM    2  N   UNL     1      43.357 -15.749   5.733  1.00  0.00    -0.056 N 
HETATM    3  H   UNL     1      43.420 -14.980   6.412  1.00  0.00     0.278 HD
HETATM    4  H   UNL     1      44.338 -16.092   5.656  1.00  0.00     0.278 HD
HETATM    5  C   UNL     1      42.871 -15.188   4.429  1.00  0.00     0.209 C 
HETATM    6  C   UNL     1      41.365 -14.854   4.537  1.00  0.00     0.115 C 
HETATM    7  N   UNL     1      40.583 -15.938   5.130  1.00  0.00    -0.353 N 
HETATM    8  C   UNL     1      41.015 -16.667   6.209  1.00  0.00     0.249 C 
HETATM    9  O   UNL     1      40.203 -17.238   6.930  1.00  0.00    -0.271 OA
HETATM   10  C   UNL     1      43.222 -16.123   3.271  1.00  0.00     0.035 C 
HETATM   11  C   UNL     1      42.648 -15.610   1.955  1.00  0.00     0.002 C 
HETATM   12  C   UNL     1      41.140 -15.409   2.058  1.00  0.00     0.002 C 
HETATM   13  C   UNL     1      40.783 -14.437   3.182  1.00  0.00     0.027 C 
HETATM   14  H   UNL     1      39.568 -15.848   5.115  1.00  0.00     0.163 HD
ENDROOT
BRANCH   1  15
HETATM   15  C   UNL     1      42.880 -18.274   5.918  1.00  0.00     0.146 C 
BRANCH  15  16
HETATM   16  C   UNL     1      44.342 -18.599   6.005  1.00  0.00     0.224 C 
HETATM   17  N   UNL     1      44.963 -19.401   5.104  1.00  0.00    -0.326 N 
HETATM   18  H   UNL     1      45.961 -19.489   5.299  1.00  0.00     0.169 HD
HETATM   19  O   UNL     1      45.020 -18.065   6.893  1.00  0.00    -0.273 OA
BRANCH  17  20
HETATM   20  C   UNL     1      44.562 -20.109   3.943  1.00  0.00     0.056 A 
HETATM   21  C   UNL     1      44.057 -19.530   2.777  1.00  0.00     0.031 A 
HETATM   22  C   UNL     1      43.704 -20.325   1.677  1.00  0.00     0.002 A 
HETATM   23  C   UNL     1      43.847 -21.708   1.725  1.00  0.00     0.002 A 
HETATM   24  C   UNL     1      44.340 -22.308   2.878  1.00  0.00     0.026 A 
HETATM   25  C   UNL     1      44.691 -21.517   3.974  1.00  0.00     0.060 A 
HETATM   26 CL   UNL     1      45.311 -22.319   5.381  1.00  0.00    -0.082 Cl
ENDBRANCH  17  20
ENDBRANCH  15  16
ENDBRANCH   1  15
TORSDOF 3
ENDMDL
MODEL 2
REMARK VINA RESULT:      -7.9      2.296      2.990
REMARK  3 active torsions:
REMARK  status: ('A' for Active; 'I' for Inactive)
REMARK    1  A    between atoms: C_3  and  N_4 
REMARK       I    between atoms: N_4  and  C_5 
REMARK    2  A    between atoms: C_5  and  C_6 
REMARK    3  A    between atoms: C_6  and  C_7 
ROOT
HETATM    1  C   UNL     1      42.507 -16.740   3.534  1.00  0.00     0.286 C 
HETATM    2  N   UNL     1      42.857 -15.483   2.742  1.00  0.00    -0.056 N 
HETATM    3  H   UNL     1      43.412 -14.882   3.365  1.00  0.00     0.278 HD
HETATM    4  H   UNL     1      43.532 -15.756   1.995  1.00  0.00     0.278 HD
HETATM    5  C   UNL     1      41.727 -14.667   2.183  1.00  0.00     0.209 C 
HETATM    6  C   UNL     1      40.664 -14.434   3.282  1.00  0.00     0.115 C 
HETATM    7  N   UNL     1      40.313 -15.657   4.003  1.00  0.00    -0.353 N 
HETATM    8  C   UNL     1      41.242 -16.588   4.393  1.00  0.00     0.249 C 
HETATM    9  O   UNL     1      41.002 -17.341   5.330  1.00  0.00    -0.271 OA
HETATM   10  C   UNL     1      41.177 -15.305   0.908  1.00  0.00     0.035 C 
HETATM   11  C   UNL     1      39.966 -14.537   0.386  1.00  0.00     0.002 C 
HETATM   12  C   UNL     1      38.884 -14.432   1.456  1.00  0.00     0.002 C 
HETATM   13  C   UNL     1      39.413 -13.752   2.719  1.00  0.00     0.027 C 
HETATM   14  H   UNL     1      39.527 -15.612   4.650  1.00  0.00     0.163 HD
ENDROOT
BRANCH   1  15
HETATM   15  C   UNL     1      42.332 -18.004   2.675  1.00  0.00     0.146 C 
BRANCH  15  16
HETATM   16  C   UNL     1      43.525 -18.329   1.823  1.00  0.00     0.224 C 
HETATM   17  N   UNL     1      44.397 -19.318   2.141  1.00  0.00    -0.326 N 
HETATM   18  H   UNL     1      45.128 -19.420   1.436  1.00  0.00     0.169 HD
HETATM   19  O   UNL     1      43.681 -17.717   0.758  1.00  0.00    -0.273 OA
BRANCH  17  20
HETATM   20  C   UNL     1      44.509 -20.261   3.193  1.00  0.00     0.056 A 
HETATM   21  C   UNL     1      44.679 -19.951   4.543  1.00  0.00     0.031 A 
HETATM   22  C   UNL     1      44.763 -20.966   5.507  1.00  0.00     0.002 A 
HETATM   23  C   UNL     1      44.683 -22.305   5.138  1.00  0.00     0.002 A 
HETATM   24  C   UNL     1      44.524 -22.640   3.798  1.00  0.00     0.026 A 
HETATM   25  C   UNL     1      44.439 -21.629   2.837  1.00  0.00     0.060 A 
HETATM   26 CL   UNL     1      44.229 -22.105   1.183  1.00  0.00    -0.082 Cl
ENDBRANCH  17  20
ENDBRANCH  15  16
ENDBRANCH   1  15
TORSDOF 3
ENDMDL
MODEL 3
REMARK VINA RESULT:      -7.6      2.593      3.776
REMARK  3 active torsions:
REMARK  status: ('A' for Active; 'I' for Inactive)
REMARK    1  A    between atoms: C_3  and  N_4 
REMARK       I    between atoms: N_4  and  C_5 
REMARK    2  A    between atoms: C_5  and  C_6 
REMARK    3  A    between atoms: C_6  and  C_7 
ROOT
HETATM    1  C   UNL     1      42.962 -15.404   2.300  1.00  0.00     0.286 C 
HETATM    2  N   UNL     1      41.506 -15.861   2.285  1.00  0.00    -0.056 N 
HETATM    3  H   UNL     1      40.975 -15.152   1.763  1.00  0.00     0.278 HD
HETATM    4  H   UNL     1      41.445 -16.709   1.681  1.00  0.00     0.278 HD
HETATM    5  C   UNL     1      40.825 -16.083   3.605  1.00  0.00     0.209 C 
HETATM    6  C   UNL     1      41.088 -14.873   4.532  1.00  0.00     0.115 C 
HETATM    7  N   UNL     1      42.494 -14.475   4.564  1.00  0.00    -0.353 N 
HETATM    8  C   UNL     1      43.284 -14.430   3.443  1.00  0.00     0.249 C 
HETATM    9  O   UNL     1      44.275 -13.708   3.419  1.00  0.00    -0.271 OA
HETATM   10  C   UNL     1      41.230 -17.429   4.205  1.00  0.00     0.035 C 
HETATM   11  C   UNL     1      40.620 -17.621   5.590  1.00  0.00     0.002 C 
HETATM   12  C   UNL     1      41.001 -16.471   6.518  1.00  0.00     0.002 C 
HETATM   13  C   UNL     1      40.557 -15.124   5.948  1.00  0.00     0.027 C 
HETATM   14  H   UNL     1      42.769 -13.774   5.250  1.00  0.00     0.163 HD
ENDROOT
BRANCH   1  15
HETATM   15  C   UNL     1      43.986 -16.550   2.368  1.00  0.00     0.146 C 
BRANCH  15  16
HETATM   16  C   UNL     1      43.688 -17.688   1.436  1.00  0.00     0.224 C 
HETATM   17  N   UNL     1      43.784 -18.986   1.821  1.00  0.00    -0.326 N 
HETATM   18  H   UNL     1      43.515 -19.624   1.071  1.00  0.00     0.169 HD
HETATM   19  O   UNL     1      43.276 -17.433   0.297  1.00  0.00    -0.273 OA
BRANCH  17  20
HETATM   20  C   UNL     1      44.128 -19.657   3.020  1.00  0.00     0.056 A 
HETATM   21  C   UNL     1      44.262 -19.057   4.274  1.00  0.00     0.031 A 
HETATM   22  C   UNL     1      44.593 -19.820   5.402  1.00  0.00     0.002 A 
HETATM   23  C   UNL     1      44.800 -21.192   5.297  1.00  0.00     0.002 A 
HETATM   24  C   UNL     1      44.682 -21.811   4.057  1.00  0.00     0.026 A 
HETATM   25  C   UNL     1      44.352 -21.051   2.933  1.00  0.00     0.060 A 
HETATM   26 CL   UNL     1      44.207 -21.879   1.415  1.00  0.00    -0.082 Cl
ENDBRANCH  17  20
ENDBRANCH  15  16
ENDBRANCH   1  15
TORSDOF 3
ENDMDL
MODEL 4
REMARK VINA RESULT:      -7.6      2.584      5.329
REMARK  3 active torsions:
REMARK  status: ('A' for Active; 'I' for Inactive)
REMARK    1  A    between atoms: C_3  and  N_4 
REMARK       I    between atoms: N_4  and  C_5 
REMARK    2  A    between atoms: C_5  and  C_6 
REMARK    3  A    between atoms: C_6  and  C_7 
ROOT
HETATM    1  C   UNL     1      43.757 -19.610   5.502  1.00  0.00     0.286 C 
HETATM    2  N   UNL     1      42.527 -18.920   4.916  1.00  0.00    -0.056 N 
HETATM    3  H   UNL     1      41.775 -19.621   4.893  1.00  0.00     0.278 HD
HETATM    4  H   UNL     1      42.192 -18.222   5.615  1.00  0.00     0.278 HD
HETATM    5  C   UNL     1      42.646 -18.311   3.550  1.00  0.00     0.209 C 
HETATM    6  C   UNL     1      43.309 -19.324   2.587  1.00  0.00     0.115 C 
HETATM    7  N   UNL     1      44.507 -19.944   3.149  1.00  0.00    -0.353 N 
HETATM    8  C   UNL     1      44.591 -20.362   4.453  1.00  0.00     0.249 C 
HETATM    9  O   UNL     1      45.394 -21.233   4.769  1.00  0.00    -0.271 OA
HETATM   10  C   UNL     1      43.358 -16.959   3.619  1.00  0.00     0.035 C 
HETATM   11  C   UNL     1      43.571 -16.377   2.225  1.00  0.00     0.002 C 
HETATM   12  C   UNL     1      44.336 -17.353   1.337  1.00  0.00     0.002 C 
HETATM   13  C   UNL     1      43.607 -18.691   1.223  1.00  0.00     0.027 C 
HETATM   14  H   UNL     1      45.073 -20.522   2.529  1.00  0.00     0.163 HD
ENDROOT
BRANCH   1  15
HETATM   15  C   UNL     1      44.709 -18.671   6.262  1.00  0.00     0.146 C 
BRANCH  15  16
HETATM   16  C   UNL     1      44.196 -18.244   7.607  1.00  0.00     0.224 C 
HETATM   17  N   UNL     1      43.690 -17.005   7.830  1.00  0.00    -0.326 N 
HETATM   18  H   UNL     1      43.361 -16.898   8.791  1.00  0.00     0.169 HD
HETATM   19  O   UNL     1      44.172 -19.072   8.527  1.00  0.00    -0.273 OA
BRANCH  17  20
HETATM   20  C   UNL     1      43.478 -15.847   7.042  1.00  0.00     0.056 A 
HETATM   21  C   UNL     1      44.441 -14.880   6.749  1.00  0.00     0.031 A 
HETATM   22  C   UNL     1      44.127 -13.776   5.942  1.00  0.00     0.002 A 
HETATM   23  C   UNL     1      42.847 -13.619   5.420  1.00  0.00     0.002 A 
HETATM   24  C   UNL     1      41.868 -14.564   5.705  1.00  0.00     0.026 A 
HETATM   25  C   UNL     1      42.181 -15.664   6.508  1.00  0.00     0.060 A 
HETATM   26 CL   UNL     1      40.923 -16.816   6.821  1.00  0.00    -0.082 Cl
ENDBRANCH  17  20
ENDBRANCH  15  16
ENDBRANCH   1  15
TORSDOF 3
ENDMDL
MODEL 5
REMARK VINA RESULT:      -7.5      3.297      5.045
REMARK  3 active torsions:
REMARK  status: ('A' for Active; 'I' for Inactive)
REMARK    1  A    between atoms: C_3  and  N_4 
REMARK       I    between atoms: N_4  and  C_5 
REMARK    2  A    between atoms: C_5  and  C_6 
REMARK    3  A    between atoms: C_6  and  C_7 
ROOT
HETATM    1  C   UNL     1      43.216 -14.034   5.990  1.00  0.00     0.286 C 
HETATM    2  N   UNL     1      41.969 -14.887   6.208  1.00  0.00    -0.056 N 
HETATM    3  H   UNL     1      41.460 -14.475   7.001  1.00  0.00     0.278 HD
HETATM    4  H   UNL     1      41.331 -14.730   5.398  1.00  0.00     0.278 HD
HETATM    5  C   UNL     1      42.157 -16.352   6.478  1.00  0.00     0.209 C 
HETATM    6  C   UNL     1      43.240 -16.543   7.565  1.00  0.00     0.115 C 
HETATM    7  N   UNL     1      44.442 -15.748   7.318  1.00  0.00    -0.353 N 
HETATM    8  C   UNL     1      44.403 -14.452   6.871  1.00  0.00     0.249 C 
HETATM    9  O   UNL     1      45.347 -13.699   7.084  1.00  0.00    -0.271 OA
HETATM   10  C   UNL     1      42.436 -17.111   5.180  1.00  0.00     0.035 C 
HETATM   11  C   UNL     1      42.726 -18.583   5.454  1.00  0.00     0.002 C 
HETATM   12  C   UNL     1      43.881 -18.738   6.437  1.00  0.00     0.002 C 
HETATM   13  C   UNL     1      43.591 -18.023   7.757  1.00  0.00     0.027 C 
HETATM   14  H   UNL     1      45.249 -15.918   7.916  1.00  0.00     0.163 HD
ENDROOT
BRANCH   1  15
HETATM   15  C   UNL     1      43.712 -13.996   4.535  1.00  0.00     0.146 C 
BRANCH  15  16
HETATM   16  C   UNL     1      42.656 -13.607   3.542  1.00  0.00     0.224 C 
HETATM   17  N   UNL     1      42.261 -14.432   2.540  1.00  0.00    -0.326 N 
HETATM   18  H   UNL     1      41.515 -14.018   1.980  1.00  0.00     0.169 HD
HETATM   19  O   UNL     1      42.078 -12.521   3.681  1.00  0.00    -0.273 OA
BRANCH  17  20
HETATM   20  C   UNL     1      42.611 -15.738   2.115  1.00  0.00     0.056 A 
HETATM   21  C   UNL     1      43.914 -16.211   1.944  1.00  0.00     0.031 A 
HETATM   22  C   UNL     1      44.148 -17.531   1.532  1.00  0.00     0.002 A 
HETATM   23  C   UNL     1      43.088 -18.396   1.282  1.00  0.00     0.002 A 
HETATM   24  C   UNL     1      41.782 -17.945   1.435  1.00  0.00     0.026 A 
HETATM   25  C   UNL     1      41.548 -16.631   1.846  1.00  0.00     0.060 A 
HETATM   26 CL   UNL     1      39.899 -16.127   2.032  1.00  0.00    -0.082 Cl
ENDBRANCH  17  20
ENDBRANCH  15  16
ENDBRANCH   1  15
TORSDOF 3
ENDMDL
MODEL 6
REMARK VINA RESULT:      -7.4      2.273      3.042
REMARK  3 active torsions:
REMARK  status: ('A' for Active; 'I' for Inactive)
REMARK    1  A    between atoms: C_3  and  N_4 
REMARK       I    between atoms: N_4  and  C_5 
REMARK    2  A    between atoms: C_5  and  C_6 
REMARK    3  A    between atoms: C_6  and  C_7 
ROOT
HETATM    1  C   UNL     1      42.281 -14.834   5.157  1.00  0.00     0.286 C 
HETATM    2  N   UNL     1      43.179 -14.651   3.936  1.00  0.00    -0.056 N 
HETATM    3  H   UNL     1      43.136 -13.656   3.681  1.00  0.00     0.278 HD
HETATM    4  H   UNL     1      44.166 -14.784   4.245  1.00  0.00     0.278 HD
HETATM    5  C   UNL     1      42.877 -15.465   2.712  1.00  0.00     0.209 C 
HETATM    6  C   UNL     1      41.367 -15.378   2.392  1.00  0.00     0.115 C 
HETATM    7  N   UNL     1      40.522 -15.596   3.565  1.00  0.00    -0.353 N 
HETATM    8  C   UNL     1      40.805 -15.067   4.798  1.00  0.00     0.249 C 
HETATM    9  O   UNL     1      39.906 -14.898   5.615  1.00  0.00    -0.271 OA
HETATM   10  C   UNL     1      43.400 -16.893   2.868  1.00  0.00     0.035 C 
HETATM   11  C   UNL     1      43.014 -17.756   1.671  1.00  0.00     0.002 C 
HETATM   12  C   UNL     1      41.503 -17.747   1.457  1.00  0.00     0.002 C 
HETATM   13  C   UNL     1      40.978 -16.326   1.252  1.00  0.00     0.027 C 
HETATM   14  H   UNL     1      39.518 -15.685   3.412  1.00  0.00     0.163 HD
ENDROOT
BRANCH   1  15
HETATM   15  C   UNL     1      42.712 -15.973   6.097  1.00  0.00     0.146 C 
BRANCH  15  16
HETATM   16  C   UNL     1      44.178 -15.969   6.423  1.00  0.00     0.224 C 
HETATM   17  N   UNL     1      44.904 -17.111   6.512  1.00  0.00    -0.326 N 
HETATM   18  H   UNL     1      45.887 -16.920   6.710  1.00  0.00     0.169 HD
HETATM   19  O   UNL     1      44.757 -14.883   6.550  1.00  0.00    -0.273 OA
BRANCH  17  20
HETATM   20  C   UNL     1      44.631 -18.493   6.356  1.00  0.00     0.056 A 
HETATM   21  C   UNL     1      44.847 -19.235   5.193  1.00  0.00     0.031 A 
HETATM   22  C   UNL     1      44.554 -20.606   5.153  1.00  0.00     0.002 A 
HETATM   23  C   UNL     1      44.039 -21.256   6.270  1.00  0.00     0.002 A 
HETATM   24  C   UNL     1      43.806 -20.536   7.437  1.00  0.00     0.026 A 
HETATM   25  C   UNL     1      44.098 -19.171   7.478  1.00  0.00     0.060 A 
HETATM   26 CL   UNL     1      43.799 -18.328   8.963  1.00  0.00    -0.082 Cl
ENDBRANCH  17  20
ENDBRANCH  15  16
ENDBRANCH   1  15
TORSDOF 3
ENDMDL
MODEL 7
REMARK VINA RESULT:      -7.2      2.393      3.298
REMARK  3 active torsions:
REMARK  status: ('A' for Active; 'I' for Inactive)
REMARK    1  A    between atoms: C_3  and  N_4 
REMARK       I    between atoms: N_4  and  C_5 
REMARK    2  A    between atoms: C_5  and  C_6 
REMARK    3  A    between atoms: C_6  and  C_7 
ROOT
HETATM    1  C   UNL     1      41.083 -16.837   3.293  1.00  0.00     0.286 C 
HETATM    2  N   UNL     1      40.281 -15.819   4.100  1.00  0.00    -0.056 N 
HETATM    3  H   UNL     1      39.455 -16.311   4.464  1.00  0.00     0.278 HD
HETATM    4  H   UNL     1      40.829 -15.589   4.957  1.00  0.00     0.278 HD
HETATM    5  C   UNL     1      39.818 -14.574   3.400  1.00  0.00     0.209 C 
HETATM    6  C   UNL     1      39.165 -14.952   2.050  1.00  0.00     0.115 C 
HETATM    7  N   UNL     1      39.967 -15.896   1.274  1.00  0.00    -0.353 N 
HETATM    8  C   UNL     1      40.612 -16.968   1.837  1.00  0.00     0.249 C 
HETATM    9  O   UNL     1      40.894 -17.945   1.151  1.00  0.00    -0.271 OA
HETATM   10  C   UNL     1      40.959 -13.563   3.280  1.00  0.00     0.035 C 
HETATM   11  C   UNL     1      40.526 -12.336   2.485  1.00  0.00     0.002 C 
HETATM   12  C   UNL     1      40.001 -12.734   1.109  1.00  0.00     0.002 C 
HETATM   13  C   UNL     1      38.828 -13.707   1.220  1.00  0.00     0.027 C 
HETATM   14  H   UNL     1      39.670 -16.092   0.319  1.00  0.00     0.163 HD
ENDROOT
BRANCH   1  15
HETATM   15  C   UNL     1      42.598 -16.573   3.266  1.00  0.00     0.146 C 
BRANCH  15  16
HETATM   16  C   UNL     1      43.224 -16.486   4.628  1.00  0.00     0.224 C 
HETATM   17  N   UNL     1      43.859 -17.538   5.203  1.00  0.00    -0.326 N 
HETATM   18  H   UNL     1      44.250 -17.292   6.114  1.00  0.00     0.169 HD
HETATM   19  O   UNL     1      43.218 -15.399   5.219  1.00  0.00    -0.273 OA
BRANCH  17  20
HETATM   20  C   UNL     1      44.140 -18.874   4.825  1.00  0.00     0.056 A 
HETATM   21  C   UNL     1      44.390 -19.310   3.522  1.00  0.00     0.031 A 
HETATM   22  C   UNL     1      44.673 -20.659   3.259  1.00  0.00     0.002 A 
HETATM   23  C   UNL     1      44.705 -21.592   4.290  1.00  0.00     0.002 A 
HETATM   24  C   UNL     1      44.449 -21.184   5.595  1.00  0.00     0.026 A 
HETATM   25  C   UNL     1      44.169 -19.841   5.857  1.00  0.00     0.060 A 
HETATM   26 CL   UNL     1      43.869 -19.387   7.504  1.00  0.00    -0.082 Cl
ENDBRANCH  17  20
ENDBRANCH  15  16
ENDBRANCH   1  15
TORSDOF 3
ENDMDL
MODEL 8
REMARK VINA RESULT:      -7.1      3.491      6.012
REMARK  3 active torsions:
REMARK  status: ('A' for Active; 'I' for Inactive)
REMARK    1  A    between atoms: C_3  and  N_4 
REMARK       I    between atoms: N_4  and  C_5 
REMARK    2  A    between atoms: C_5  and  C_6 
REMARK    3  A    between atoms: C_6  and  C_7 
ROOT
HETATM    1  C   UNL     1      41.766 -14.987   1.895  1.00  0.00     0.286 C 
HETATM    2  N   UNL     1      43.049 -15.264   2.673  1.00  0.00    -0.056 N 
HETATM    3  H   UNL     1      43.763 -14.620   2.311  1.00  0.00     0.278 HD
HETATM    4  H   UNL     1      42.901 -14.942   3.654  1.00  0.00     0.278 HD
HETATM    5  C   UNL     1      43.607 -16.657   2.636  1.00  0.00     0.209 C 
HETATM    6  C   UNL     1      43.646 -17.160   1.173  1.00  0.00     0.115 C 
HETATM    7  N   UNL     1      42.394 -16.922   0.456  1.00  0.00    -0.353 N 
HETATM    8  C   UNL     1      41.679 -15.756   0.568  1.00  0.00     0.249 C 
HETATM    9  O   UNL     1      40.915 -15.416  -0.329  1.00  0.00    -0.271 OA
HETATM   10  C   UNL     1      42.842 -17.574   3.591  1.00  0.00     0.035 C 
HETATM   11  C   UNL     1      43.338 -19.013   3.488  1.00  0.00     0.002 C 
HETATM   12  C   UNL     1      43.247 -19.521   2.052  1.00  0.00     0.002 C 
HETATM   13  C   UNL     1      44.049 -18.637   1.097  1.00  0.00     0.027 C 
HETATM   14  H   UNL     1      42.295 -17.340  -0.468  1.00  0.00     0.163 HD
ENDROOT
BRANCH   1  15
HETATM   15  C   UNL     1      40.473 -15.272   2.679  1.00  0.00     0.146 C 
BRANCH  15  16
HETATM   16  C   UNL     1      40.122 -14.209   3.679  1.00  0.00     0.224 C 
HETATM   17  N   UNL     1      40.505 -14.279   4.978  1.00  0.00    -0.326 N 
HETATM   18  H   UNL     1      40.206 -13.458   5.506  1.00  0.00     0.169 HD
HETATM   19  O   UNL     1      39.517 -13.201   3.289  1.00  0.00    -0.273 OA
BRANCH  17  20
HETATM   20  C   UNL     1      41.250 -15.197   5.760  1.00  0.00     0.056 A 
HETATM   21  C   UNL     1      40.773 -16.412   6.254  1.00  0.00     0.031 A 
HETATM   22  C   UNL     1      41.603 -17.255   7.007  1.00  0.00     0.002 A 
HETATM   23  C   UNL     1      42.919 -16.897   7.281  1.00  0.00     0.002 A 
HETATM   24  C   UNL     1      43.414 -15.687   6.808  1.00  0.00     0.026 A 
HETATM   25  C   UNL     1      42.588 -14.847   6.057  1.00  0.00     0.060 A 
HETATM   26 CL   UNL     1      43.263 -13.356   5.484  1.00  0.00    -0.082 Cl
ENDBRANCH  17  20
ENDBRANCH  15  16
ENDBRANCH   1  15
TORSDOF 3
ENDMDL
MODEL 9
REMARK VINA RESULT:      -7.1      2.745      4.062
REMARK  3 active torsions:
REMARK  status: ('A' for Active; 'I' for Inactive)
REMARK    1  A    between atoms: C_3  and  N_4 
REMARK       I    between atoms: N_4  and  C_5 
REMARK    2  A    between atoms: C_5  and  C_6 
REMARK    3  A    between atoms: C_6  and  C_7 
ROOT
HETATM    1  C   UNL     1      41.651 -14.717   3.807  1.00  0.00     0.286 C 
HETATM    2  N   UNL     1      40.179 -14.322   3.896  1.00  0.00    -0.056 N 
HETATM    3  H   UNL     1      39.811 -14.324   2.936  1.00  0.00     0.278 HD
HETATM    4  H   UNL     1      39.668 -15.105   4.358  1.00  0.00     0.278 HD
HETATM    5  C   UNL     1      39.842 -13.004   4.529  1.00  0.00     0.209 C 
HETATM    6  C   UNL     1      40.748 -11.899   3.937  1.00  0.00     0.115 C 
HETATM    7  N   UNL     1      42.159 -12.279   3.896  1.00  0.00    -0.353 N 
HETATM    8  C   UNL     1      42.585 -13.530   3.527  1.00  0.00     0.249 C 
HETATM    9  O   UNL     1      43.721 -13.688   3.093  1.00  0.00    -0.271 OA
HETATM   10  C   UNL     1      39.896 -13.104   6.054  1.00  0.00     0.035 C 
HETATM   11  C   UNL     1      39.651 -11.746   6.704  1.00  0.00     0.002 C 
HETATM   12  C   UNL     1      40.641 -10.707   6.189  1.00  0.00     0.002 C 
HETATM   13  C   UNL     1      40.560 -10.565   4.669  1.00  0.00     0.027 C 
HETATM   14  H   UNL     1      42.833 -11.559   3.643  1.00  0.00     0.163 HD
ENDROOT
BRANCH   1  15
HETATM   15  C   UNL     1      42.190 -15.444   5.051  1.00  0.00     0.146 C 
BRANCH  15  16
HETATM   16  C   UNL     1      41.354 -16.615   5.480  1.00  0.00     0.224 C 
HETATM   17  N   UNL     1      41.585 -17.875   5.034  1.00  0.00    -0.326 N 
HETATM   18  H   UNL     1      40.942 -18.549   5.451  1.00  0.00     0.169 HD
HETATM   19  O   UNL     1      40.464 -16.435   6.321  1.00  0.00    -0.273 OA
BRANCH  17  20
HETATM   20  C   UNL     1      42.526 -18.477   4.162  1.00  0.00     0.056 A 
HETATM   21  C   UNL     1      42.512 -18.384   2.768  1.00  0.00     0.031 A 
HETATM   22  C   UNL     1      43.504 -19.009   1.999  1.00  0.00     0.002 A 
HETATM   23  C   UNL     1      44.521 -19.738   2.607  1.00  0.00     0.002 A 
HETATM   24  C   UNL     1      44.551 -19.853   3.992  1.00  0.00     0.026 A 
HETATM   25  C   UNL     1      43.563 -19.231   4.759  1.00  0.00     0.060 A 
HETATM   26 CL   UNL     1      43.656 -19.399   6.483  1.00  0.00    -0.082 Cl
ENDBRANCH  17  20
ENDBRANCH  15  16
ENDBRANCH   1  15
TORSDOF 3
ENDMDL
MODEL 10
REMARK VINA RESULT:      -6.9      2.862      4.328
REMARK  3 active torsions:
REMARK  status: ('A' for Active; 'I' for Inactive)
REMARK    1  A    between atoms: C_3  and  N_4 
REMARK       I    between atoms: N_4  and  C_5 
REMARK    2  A    between atoms: C_5  and  C_6 
REMARK    3  A    between atoms: C_6  and  C_7 
ROOT
HETATM    1  C   UNL     1      41.325 -16.802   3.093  1.00  0.00     0.286 C 
HETATM    2  N   UNL     1      40.564 -15.845   4.007  1.00  0.00    -0.056 N 
HETATM    3  H   UNL     1      39.831 -16.396   4.472  1.00  0.00     0.278 HD
HETATM    4  H   UNL     1      41.202 -15.575   4.787  1.00  0.00     0.278 HD
HETATM    5  C   UNL     1      39.924 -14.638   3.385  1.00  0.00     0.209 C 
HETATM    6  C   UNL     1      39.129 -15.064   2.129  1.00  0.00     0.115 C 
HETATM    7  N   UNL     1      39.888 -15.947   1.246  1.00  0.00    -0.353 N 
HETATM    8  C   UNL     1      40.678 -16.968   1.710  1.00  0.00     0.249 C 
HETATM    9  O   UNL     1      40.938 -17.923   0.985  1.00  0.00    -0.271 OA
HETATM   10  C   UNL     1      40.962 -13.546   3.126  1.00  0.00     0.035 C 
HETATM   11  C   UNL     1      40.341 -12.354   2.405  1.00  0.00     0.002 C 
HETATM   12  C   UNL     1      39.670 -12.791   1.106  1.00  0.00     0.002 C 
HETATM   13  C   UNL     1      38.596 -13.848   1.362  1.00  0.00     0.027 C 
HETATM   14  H   UNL     1      39.484 -16.165   0.336  1.00  0.00     0.163 HD
ENDROOT
BRANCH   1  15
HETATM   15  C   UNL     1      42.801 -16.427   2.871  1.00  0.00     0.146 C 
BRANCH  15  16
HETATM   16  C   UNL     1      43.745 -17.590   2.974  1.00  0.00     0.224 C 
HETATM   17  N   UNL     1      44.172 -18.075   4.166  1.00  0.00    -0.326 N 
HETATM   18  H   UNL     1      44.783 -18.884   4.049  1.00  0.00     0.169 HD
HETATM   19  O   UNL     1      44.095 -18.167   1.936  1.00  0.00    -0.273 OA
BRANCH  17  20
HETATM   20  C   UNL     1      43.939 -17.751   5.526  1.00  0.00     0.056 A 
HETATM   21  C   UNL     1      43.729 -16.465   6.027  1.00  0.00     0.031 A 
HETATM   22  C   UNL     1      43.493 -16.258   7.393  1.00  0.00     0.002 A 
HETATM   23  C   UNL     1      43.466 -17.329   8.281  1.00  0.00     0.002 A 
HETATM   24  C   UNL     1      43.682 -18.619   7.807  1.00  0.00     0.026 A 
HETATM   25  C   UNL     1      43.917 -18.825   6.446  1.00  0.00     0.060 A 
HETATM   26 CL   UNL     1      44.169 -20.456   5.911  1.00  0.00    -0.082 Cl
ENDBRANCH  17  20
ENDBRANCH  15  16
ENDBRANCH   1  15
TORSDOF 3
ENDMDL
