MODEL 1
REMARK VINA RESULT:      -8.2      0.000      0.000
REMARK  8 active torsions:
REMARK  status: ('A' for Active; 'I' for Inactive)
REMARK    1  A    between atoms: C_7  and  C_8 
REMARK    2  A    between atoms: C_10  and  O_11 
REMARK    3  A    between atoms: C_13  and  O_14 
REMARK    4  A    between atoms: O_14  and  C_15 
REMARK    5  A    between atoms: C_15  and  C_16 
REMARK       I    between atoms: C_16  and  N_17 
REMARK    6  A    between atoms: C_21  and  C_22 
REMARK       I    between atoms: C_22  and  N_23 
REMARK    7  A    between atoms: N_23  and  C_24 
REMARK    8  A    between atoms: C_24  and  C_25 
ROOT
HETATM    1  C   UNL     1      43.768 -16.076   5.820  1.00  0.00     0.069 C 
HETATM    2  C   UNL     1      42.524 -15.653   5.093  1.00  0.00     0.024 C 
HETATM    3  N   UNL     1      41.649 -14.885   5.829  1.00  0.00    -0.312 N 
HETATM    4  C   UNL     1      40.380 -14.558   5.452  1.00  0.00     0.321 C 
HETATM    5  O   UNL     1      39.638 -13.908   6.178  1.00  0.00    -0.247 OA
HETATM    6  N   UNL     1      39.975 -15.015   4.242  1.00  0.00    -0.330 N 
HETATM    7  C   UNL     1      40.857 -15.581   3.237  1.00  0.00     0.160 C 
HETATM    8  C   UNL     1      42.172 -15.994   3.838  1.00  0.00     0.059 C 
HETATM    9  H   UNL     1      41.887 -14.602   6.772  1.00  0.00     0.170 HD
HETATM   10  H   UNL     1      39.042 -14.740   3.970  1.00  0.00     0.165 HD
ENDROOT
BRANCH   7  11
HETATM   11  C   UNL     1      41.012 -14.590   2.090  1.00  0.00    -0.028 A 
HETATM   12  C   UNL     1      40.384 -14.805   0.848  1.00  0.00     0.049 A 
HETATM   13  C   UNL     1      40.554 -13.922  -0.231  1.00  0.00     0.102 A 
HETATM   14  C   UNL     1      41.342 -12.774  -0.049  1.00  0.00     0.102 A 
HETATM   15  C   UNL     1      41.966 -12.557   1.187  1.00  0.00     0.040 A 
HETATM   16  C   UNL     1      41.803 -13.449   2.248  1.00  0.00     0.012 A 
BRANCH  13  17
HETATM   17  O   UNL     1      39.976 -14.132  -1.453  1.00  0.00    -0.353 OA
HETATM   18  C   UNL     1      38.627 -13.710  -1.630  1.00  0.00     0.210 C 
ENDBRANCH  13  17
BRANCH  14  19
HETATM   19  O   UNL     1      41.642 -11.797  -0.964  1.00  0.00    -0.339 OA
BRANCH  19  20
HETATM   20  C   UNL     1      42.863 -11.903  -1.690  1.00  0.00     0.278 C 
BRANCH  20  21
HETATM   21  C   UNL     1      42.591 -12.461  -3.087  1.00  0.00     0.239 C 
HETATM   22  N   UNL     1      42.593 -13.823  -3.191  1.00  0.00    -0.368 N 
HETATM   23  H   UNL     1      42.973 -14.382  -2.436  1.00  0.00     0.159 HD
HETATM   24  H   UNL     1      42.481 -14.232  -4.108  1.00  0.00     0.159 HD
HETATM   25  O   UNL     1      42.330 -11.756  -4.057  1.00  0.00    -0.271 OA
ENDBRANCH  20  21
ENDBRANCH  19  20
ENDBRANCH  14  19
ENDBRANCH   7  11
BRANCH   8  26
HETATM   26  C   UNL     1      42.991 -16.881   2.974  1.00  0.00     0.252 C 
HETATM   27  N   UNL     1      42.600 -18.195   2.955  1.00  0.00    -0.353 N 
HETATM   28  H   UNL     1      41.952 -18.529   3.655  1.00  0.00     0.163 HD
HETATM   29  O   UNL     1      43.975 -16.444   2.388  1.00  0.00    -0.268 OA
BRANCH  27  30
HETATM   30  C   UNL     1      43.363 -19.174   2.212  1.00  0.00     0.161 C 
BRANCH  30  31
HETATM   31  C   UNL     1      43.966 -20.260   3.070  1.00  0.00    -0.041 A 
HETATM   32  C   UNL     1      44.273 -20.070   4.426  1.00  0.00     0.009 A 
HETATM   33  C   UNL     1      44.778 -21.120   5.199  1.00  0.00     0.001 A 
HETATM   34  C   UNL     1      44.958 -22.379   4.635  1.00  0.00     0.000 A 
HETATM   35  C   UNL     1      44.636 -22.592   3.297  1.00  0.00     0.001 A 
HETATM   36  C   UNL     1      44.141 -21.541   2.522  1.00  0.00     0.009 A 
ENDBRANCH  30  31
ENDBRANCH  27  30
ENDBRANCH   8  26
TORSDOF 8
ENDMDL
MODEL 2
REMARK VINA RESULT:      -8.2      3.339      7.289
REMARK  8 active torsions:
REMARK  status: ('A' for Active; 'I' for Inactive)
REMARK    1  A    between atoms: C_7  and  C_8 
REMARK    2  A    between atoms: C_10  and  O_11 
REMARK    3  A    between atoms: C_13  and  O_14 
REMARK    4  A    between atoms: O_14  and  C_15 
REMARK    5  A    between atoms: C_15  and  C_16 
REMARK       I    between atoms: C_16  and  N_17 
REMARK    6  A    between atoms: C_21  and  C_22 
REMARK       I    between atoms: C_22  and  N_23 
REMARK    7  A    between atoms: N_23  and  C_24 
REMARK    8  A    between atoms: C_24  and  C_25 
ROOT
HETATM    1  C   UNL     1      45.082 -20.433   3.100  1.00  0.00     0.069 C 
HETATM    2  C   UNL     1      44.333 -19.693   4.169  1.00  0.00     0.024 C 
HETATM    3  N   UNL     1      44.407 -20.248   5.428  1.00  0.00    -0.312 N 
HETATM    4  C   UNL     1      43.655 -19.871   6.500  1.00  0.00     0.321 C 
HETATM    5  O   UNL     1      43.741 -20.442   7.582  1.00  0.00    -0.247 OA
HETATM    6  N   UNL     1      42.787 -18.850   6.298  1.00  0.00    -0.330 N 
HETATM    7  C   UNL     1      42.792 -17.982   5.134  1.00  0.00     0.160 C 
HETATM    8  C   UNL     1      43.570 -18.595   4.002  1.00  0.00     0.059 C 
HETATM    9  H   UNL     1      44.980 -21.068   5.590  1.00  0.00     0.170 HD
HETATM   10  H   UNL     1      42.258 -18.569   7.112  1.00  0.00     0.165 HD
ENDROOT
BRANCH   7  11
HETATM   11  C   UNL     1      43.311 -16.607   5.537  1.00  0.00    -0.028 A 
HETATM   12  C   UNL     1      42.953 -15.451   4.818  1.00  0.00     0.049 A 
HETATM   13  C   UNL     1      43.459 -14.184   5.152  1.00  0.00     0.102 A 
HETATM   14  C   UNL     1      44.315 -14.066   6.259  1.00  0.00     0.102 A 
HETATM   15  C   UNL     1      44.671 -15.216   6.978  1.00  0.00     0.040 A 
HETATM   16  C   UNL     1      44.175 -16.473   6.628  1.00  0.00     0.012 A 
BRANCH  13  17
HETATM   17  O   UNL     1      43.145 -13.055   4.444  1.00  0.00    -0.353 OA
HETATM   18  C   UNL     1      41.868 -12.466   4.668  1.00  0.00     0.210 C 
ENDBRANCH  13  17
BRANCH  14  19
HETATM   19  O   UNL     1      44.921 -12.937   6.747  1.00  0.00    -0.339 OA
BRANCH  19  20
HETATM   20  C   UNL     1      45.309 -12.917   8.118  1.00  0.00     0.278 C 
BRANCH  20  21
HETATM   21  C   UNL     1      46.387 -11.857   8.338  1.00  0.00     0.239 C 
HETATM   22  N   UNL     1      47.547 -12.036   7.639  1.00  0.00    -0.368 N 
HETATM   23  H   UNL     1      47.731 -12.930   7.198  1.00  0.00     0.159 HD
HETATM   24  H   UNL     1      48.308 -11.394   7.805  1.00  0.00     0.159 HD
HETATM   25  O   UNL     1      46.228 -10.869   9.049  1.00  0.00    -0.271 OA
ENDBRANCH  20  21
ENDBRANCH  19  20
ENDBRANCH  14  19
ENDBRANCH   7  11
BRANCH   8  26
HETATM   26  C   UNL     1      43.346 -17.950   2.684  1.00  0.00     0.252 C 
HETATM   27  N   UNL     1      42.061 -18.023   2.213  1.00  0.00    -0.353 N 
HETATM   28  H   UNL     1      41.410 -18.662   2.648  1.00  0.00     0.163 HD
HETATM   29  O   UNL     1      44.282 -17.457   2.065  1.00  0.00    -0.268 OA
BRANCH  27  30
HETATM   30  C   UNL     1      41.730 -17.500   0.905  1.00  0.00     0.161 C 
BRANCH  30  31
HETATM   31  C   UNL     1      40.890 -16.246   0.942  1.00  0.00    -0.041 A 
HETATM   32  C   UNL     1      40.833 -15.341  -0.129  1.00  0.00     0.009 A 
HETATM   33  C   UNL     1      39.998 -14.221  -0.076  1.00  0.00     0.001 A 
HETATM   34  C   UNL     1      39.191 -14.004   1.036  1.00  0.00     0.000 A 
HETATM   35  C   UNL     1      39.217 -14.904   2.098  1.00  0.00     0.001 A 
HETATM   36  C   UNL     1      40.059 -16.018   2.050  1.00  0.00     0.009 A 
ENDBRANCH  30  31
ENDBRANCH  27  30
ENDBRANCH   8  26
TORSDOF 8
ENDMDL
MODEL 3
REMARK VINA RESULT:      -8.1      1.881      2.973
REMARK  8 active torsions:
REMARK  status: ('A' for Active; 'I' for Inactive)
REMARK    1  A    between atoms: C_7  and  C_8 
REMARK    2  A    between atoms: C_10  and  O_11 
REMARK    3  A    between atoms: C_13  and  O_14 
REMARK    4  A    between atoms: O_14  and  C_15 
REMARK    5  A    between atoms: C_15  and  C_16 
REMARK       I    between atoms: C_16  and  N_17 
REMARK    6  A    between atoms: C_21  and  C_22 
REMARK       I    between atoms: C_22  and  N_23 
REMARK    7  A    between atoms: N_23  and  C_24 
REMARK    8  A    between atoms: C_24  and  C_25 
ROOT
HETATM    1  C   UNL     1      44.437 -14.641   7.295  1.00  0.00     0.069 C 
HETATM    2  C   UNL     1      43.191 -14.419   6.487  1.00  0.00     0.024 C 
HETATM    3  N   UNL     1      42.737 -13.119   6.457  1.00  0.00    -0.312 N 
HETATM    4  C   UNL     1      41.532 -12.717   5.963  1.00  0.00     0.321 C 
HETATM    5  O   UNL     1      41.172 -11.547   6.010  1.00  0.00    -0.247 OA
HETATM    6  N   UNL     1      40.742 -13.687   5.441  1.00  0.00    -0.330 N 
HETATM    7  C   UNL     1      41.184 -15.037   5.138  1.00  0.00     0.160 C 
HETATM    8  C   UNL     1      42.468 -15.361   5.851  1.00  0.00     0.059 C 
HETATM    9  H   UNL     1      43.262 -12.385   6.916  1.00  0.00     0.170 HD
HETATM   10  H   UNL     1      39.865 -13.366   5.056  1.00  0.00     0.165 HD
ENDROOT
BRANCH   7  11
HETATM   11  C   UNL     1      41.283 -15.205   3.627  1.00  0.00    -0.028 A 
HETATM   12  C   UNL     1      41.909 -14.233   2.823  1.00  0.00     0.049 A 
HETATM   13  C   UNL     1      41.968 -14.354   1.425  1.00  0.00     0.102 A 
HETATM   14  C   UNL     1      41.422 -15.497   0.820  1.00  0.00     0.102 A 
HETATM   15  C   UNL     1      40.801 -16.468   1.619  1.00  0.00     0.040 A 
HETATM   16  C   UNL     1      40.733 -16.330   3.006  1.00  0.00     0.012 A 
BRANCH  13  17
HETATM   17  O   UNL     1      42.545 -13.403   0.627  1.00  0.00    -0.353 OA
HETATM   18  C   UNL     1      41.968 -12.101   0.624  1.00  0.00     0.210 C 
ENDBRANCH  13  17
BRANCH  14  19
HETATM   19  O   UNL     1      41.367 -15.807  -0.515  1.00  0.00    -0.339 OA
BRANCH  19  20
HETATM   20  C   UNL     1      40.524 -15.024  -1.356  1.00  0.00     0.278 C 
BRANCH  20  21
HETATM   21  C   UNL     1      41.269 -14.653  -2.638  1.00  0.00     0.239 C 
HETATM   22  N   UNL     1      42.414 -13.927  -2.469  1.00  0.00    -0.368 N 
HETATM   23  H   UNL     1      42.603 -13.492  -1.574  1.00  0.00     0.159 HD
HETATM   24  H   UNL     1      42.902 -13.607  -3.293  1.00  0.00     0.159 HD
HETATM   25  O   UNL     1      40.914 -15.017  -3.755  1.00  0.00    -0.271 OA
ENDBRANCH  20  21
ENDBRANCH  19  20
ENDBRANCH  14  19
ENDBRANCH   7  11
BRANCH   8  26
HETATM   26  C   UNL     1      42.809 -16.806   5.876  1.00  0.00     0.252 C 
HETATM   27  N   UNL     1      44.103 -17.103   5.533  1.00  0.00    -0.353 N 
HETATM   28  H   UNL     1      44.673 -16.394   5.091  1.00  0.00     0.163 HD
HETATM   29  O   UNL     1      41.952 -17.644   6.127  1.00  0.00    -0.268 OA
BRANCH  27  30
HETATM   30  C   UNL     1      44.538 -18.480   5.445  1.00  0.00     0.161 C 
BRANCH  30  31
HETATM   31  C   UNL     1      44.305 -19.110   4.093  1.00  0.00    -0.041 A 
HETATM   32  C   UNL     1      44.545 -20.469   3.839  1.00  0.00     0.009 A 
HETATM   33  C   UNL     1      44.261 -21.024   2.588  1.00  0.00     0.001 A 
HETATM   34  C   UNL     1      43.711 -20.236   1.582  1.00  0.00     0.000 A 
HETATM   35  C   UNL     1      43.445 -18.891   1.823  1.00  0.00     0.001 A 
HETATM   36  C   UNL     1      43.737 -18.333   3.070  1.00  0.00     0.009 A 
ENDBRANCH  30  31
ENDBRANCH  27  30
ENDBRANCH   8  26
TORSDOF 8
ENDMDL
MODEL 4
REMARK VINA RESULT:      -7.9      2.733      6.388
REMARK  8 active torsions:
REMARK  status: ('A' for Active; 'I' for Inactive)
REMARK    1  A    between atoms: C_7  and  C_8 
REMARK    2  A    between atoms: C_10  and  O_11 
REMARK    3  A    between atoms: C_13  and  O_14 
REMARK    4  A    between atoms: O_14  and  C_15 
REMARK    5  A    between atoms: C_15  and  C_16 
REMARK       I    between atoms: C_16  and  N_17 
REMARK    6  A    between atoms: C_21  and  C_22 
REMARK       I    between atoms: C_22  and  N_23 
REMARK    7  A    between atoms: N_23  and  C_24 
REMARK    8  A    between atoms: C_24  and  C_25 
ROOT
HETATM    1  C   UNL     1      38.242 -14.043   0.719  1.00  0.00     0.069 C 
HETATM    2  C   UNL     1      39.358 -13.394   1.485  1.00  0.00     0.024 C 
HETATM    3  N   UNL     1      39.035 -12.198   2.088  1.00  0.00    -0.312 N 
HETATM    4  C   UNL     1      39.927 -11.340   2.659  1.00  0.00     0.321 C 
HETATM    5  O   UNL     1      39.575 -10.268   3.139  1.00  0.00    -0.247 OA
HETATM    6  N   UNL     1      41.227 -11.723   2.644  1.00  0.00    -0.330 N 
HETATM    7  C   UNL     1      41.689 -13.059   2.313  1.00  0.00     0.160 C 
HETATM    8  C   UNL     1      40.626 -13.837   1.586  1.00  0.00     0.059 C 
HETATM    9  H   UNL     1      38.089 -11.842   2.040  1.00  0.00     0.170 HD
HETATM   10  H   UNL     1      41.868 -11.086   3.095  1.00  0.00     0.165 HD
ENDROOT
BRANCH   7  11
HETATM   11  C   UNL     1      42.171 -13.752   3.582  1.00  0.00    -0.028 A 
HETATM   12  C   UNL     1      41.269 -14.396   4.451  1.00  0.00     0.049 A 
HETATM   13  C   UNL     1      41.695 -14.999   5.645  1.00  0.00     0.102 A 
HETATM   14  C   UNL     1      43.064 -14.992   5.958  1.00  0.00     0.102 A 
HETATM   15  C   UNL     1      43.964 -14.354   5.092  1.00  0.00     0.040 A 
HETATM   16  C   UNL     1      43.528 -13.743   3.915  1.00  0.00     0.012 A 
BRANCH  13  17
HETATM   17  O   UNL     1      40.828 -15.602   6.516  1.00  0.00    -0.353 OA
HETATM   18  C   UNL     1      40.560 -16.988   6.332  1.00  0.00     0.210 C 
ENDBRANCH  13  17
BRANCH  14  19
HETATM   19  O   UNL     1      43.684 -15.512   7.065  1.00  0.00    -0.339 OA
BRANCH  19  20
HETATM   20  C   UNL     1      44.468 -16.691   6.909  1.00  0.00     0.278 C 
BRANCH  20  21
HETATM   21  C   UNL     1      43.916 -17.804   7.800  1.00  0.00     0.239 C 
HETATM   22  N   UNL     1      43.423 -17.405   9.010  1.00  0.00    -0.368 N 
HETATM   23  H   UNL     1      43.631 -16.474   9.352  1.00  0.00     0.159 HD
HETATM   24  H   UNL     1      43.109 -18.115   9.655  1.00  0.00     0.159 HD
HETATM   25  O   UNL     1      43.857 -18.980   7.454  1.00  0.00    -0.271 OA
ENDBRANCH  20  21
ENDBRANCH  19  20
ENDBRANCH  14  19
ENDBRANCH   7  11
BRANCH   8  26
HETATM   26  C   UNL     1      41.116 -15.068   0.916  1.00  0.00     0.252 C 
HETATM   27  N   UNL     1      40.801 -16.241   1.554  1.00  0.00    -0.353 N 
HETATM   28  H   UNL     1      40.464 -16.210   2.507  1.00  0.00     0.163 HD
HETATM   29  O   UNL     1      41.802 -14.996  -0.096  1.00  0.00    -0.268 OA
BRANCH  27  30
HETATM   30  C   UNL     1      41.286 -17.504   1.043  1.00  0.00     0.161 C 
BRANCH  30  31
HETATM   31  C   UNL     1      42.267 -18.198   1.958  1.00  0.00    -0.041 A 
HETATM   32  C   UNL     1      42.889 -19.410   1.622  1.00  0.00     0.009 A 
HETATM   33  C   UNL     1      43.834 -19.990   2.473  1.00  0.00     0.001 A 
HETATM   34  C   UNL     1      44.189 -19.354   3.659  1.00  0.00     0.000 A 
HETATM   35  C   UNL     1      43.600 -18.138   3.997  1.00  0.00     0.001 A 
HETATM   36  C   UNL     1      42.648 -17.564   3.151  1.00  0.00     0.009 A 
ENDBRANCH  30  31
ENDBRANCH  27  30
ENDBRANCH   8  26
TORSDOF 8
ENDMDL
MODEL 5
REMARK VINA RESULT:      -7.9      2.789      6.444
REMARK  8 active torsions:
REMARK  status: ('A' for Active; 'I' for Inactive)
REMARK    1  A    between atoms: C_7  and  C_8 
REMARK    2  A    between atoms: C_10  and  O_11 
REMARK    3  A    between atoms: C_13  and  O_14 
REMARK    4  A    between atoms: O_14  and  C_15 
REMARK    5  A    between atoms: C_15  and  C_16 
REMARK       I    between atoms: C_16  and  N_17 
REMARK    6  A    between atoms: C_21  and  C_22 
REMARK       I    between atoms: C_22  and  N_23 
REMARK    7  A    between atoms: N_23  and  C_24 
REMARK    8  A    between atoms: C_24  and  C_25 
ROOT
HETATM    1  C   UNL     1      38.491 -13.351  -0.153  1.00  0.00     0.069 C 
HETATM    2  C   UNL     1      39.752 -12.807   0.451  1.00  0.00     0.024 C 
HETATM    3  N   UNL     1      39.775 -11.440   0.626  1.00  0.00    -0.312 N 
HETATM    4  C   UNL     1      40.875 -10.709   0.964  1.00  0.00     0.321 C 
HETATM    5  O   UNL     1      40.834  -9.487   1.058  1.00  0.00    -0.247 OA
HETATM    6  N   UNL     1      42.022 -11.402   1.164  1.00  0.00    -0.330 N 
HETATM    7  C   UNL     1      42.099 -12.846   1.301  1.00  0.00     0.160 C 
HETATM    8  C   UNL     1      40.854 -13.509   0.778  1.00  0.00     0.059 C 
HETATM    9  H   UNL     1      38.960 -10.884   0.400  1.00  0.00     0.170 HD
HETATM   10  H   UNL     1      42.818 -10.845   1.439  1.00  0.00     0.165 HD
ENDROOT
BRANCH   7  11
HETATM   11  C   UNL     1      42.395 -13.196   2.754  1.00  0.00    -0.028 A 
HETATM   12  C   UNL     1      41.647 -12.637   3.808  1.00  0.00     0.049 A 
HETATM   13  C   UNL     1      41.938 -12.918   5.153  1.00  0.00     0.102 A 
HETATM   14  C   UNL     1      42.979 -13.812   5.449  1.00  0.00     0.102 A 
HETATM   15  C   UNL     1      43.723 -14.372   4.401  1.00  0.00     0.040 A 
HETATM   16  C   UNL     1      43.436 -14.074   3.068  1.00  0.00     0.012 A 
BRANCH  13  17
HETATM   17  O   UNL     1      41.241 -12.359   6.189  1.00  0.00    -0.353 OA
HETATM   18  C   UNL     1      39.896 -12.782   6.389  1.00  0.00     0.210 C 
ENDBRANCH  13  17
BRANCH  14  19
HETATM   19  O   UNL     1      43.429 -14.214   6.681  1.00  0.00    -0.339 OA
BRANCH  19  20
HETATM   20  C   UNL     1      44.755 -13.861   7.064  1.00  0.00     0.278 C 
BRANCH  20  21
HETATM   21  C   UNL     1      44.717 -12.922   8.269  1.00  0.00     0.239 C 
HETATM   22  N   UNL     1      43.580 -12.176   8.403  1.00  0.00    -0.368 N 
HETATM   23  H   UNL     1      42.934 -12.106   7.626  1.00  0.00     0.159 HD
HETATM   24  H   UNL     1      43.541 -11.496   9.148  1.00  0.00     0.159 HD
HETATM   25  O   UNL     1      45.611 -12.862   9.107  1.00  0.00    -0.271 OA
ENDBRANCH  20  21
ENDBRANCH  19  20
ENDBRANCH  14  19
ENDBRANCH   7  11
BRANCH   8  26
HETATM   26  C   UNL     1      40.982 -14.972   0.563  1.00  0.00     0.252 C 
HETATM   27  N   UNL     1      40.549 -15.752   1.605  1.00  0.00    -0.353 N 
HETATM   28  H   UNL     1      40.379 -15.325   2.505  1.00  0.00     0.163 HD
HETATM   29  O   UNL     1      41.501 -15.409  -0.457  1.00  0.00    -0.268 OA
BRANCH  27  30
HETATM   30  C   UNL     1      40.691 -17.191   1.550  1.00  0.00     0.161 C 
BRANCH  30  31
HETATM   31  C   UNL     1      41.860 -17.721   2.345  1.00  0.00    -0.041 A 
HETATM   32  C   UNL     1      42.998 -18.274   1.740  1.00  0.00     0.009 A 
HETATM   33  C   UNL     1      44.082 -18.702   2.511  1.00  0.00     0.001 A 
HETATM   34  C   UNL     1      44.054 -18.559   3.895  1.00  0.00     0.000 A 
HETATM   35  C   UNL     1      42.942 -17.991   4.511  1.00  0.00     0.001 A 
HETATM   36  C   UNL     1      41.854 -17.573   3.741  1.00  0.00     0.009 A 
ENDBRANCH  30  31
ENDBRANCH  27  30
ENDBRANCH   8  26
TORSDOF 8
ENDMDL
MODEL 6
REMARK VINA RESULT:      -7.9      2.484      7.197
REMARK  8 active torsions:
REMARK  status: ('A' for Active; 'I' for Inactive)
REMARK    1  A    between atoms: C_7  and  C_8 
REMARK    2  A    between atoms: C_10  and  O_11 
REMARK    3  A    between atoms: C_13  and  O_14 
REMARK    4  A    between atoms: O_14  and  C_15 
REMARK    5  A    between atoms: C_15  and  C_16 
REMARK       I    between atoms: C_16  and  N_17 
REMARK    6  A    between atoms: C_21  and  C_22 
REMARK       I    between atoms: C_22  and  N_23 
REMARK    7  A    between atoms: N_23  and  C_24 
REMARK    8  A    between atoms: C_24  and  C_25 
ROOT
HETATM    1  C   UNL     1      42.322 -12.037  -0.371  1.00  0.00     0.069 C 
HETATM    2  C   UNL     1      41.826 -13.452  -0.298  1.00  0.00     0.024 C 
HETATM    3  N   UNL     1      41.785 -14.121  -1.501  1.00  0.00    -0.312 N 
HETATM    4  C   UNL     1      41.190 -15.329  -1.710  1.00  0.00     0.321 C 
HETATM    5  O   UNL     1      41.151 -15.847  -2.820  1.00  0.00    -0.247 OA
HETATM    6  N   UNL     1      40.619 -15.914  -0.629  1.00  0.00    -0.330 N 
HETATM    7  C   UNL     1      40.823 -15.486   0.744  1.00  0.00     0.160 C 
HETATM    8  C   UNL     1      41.379 -14.090   0.801  1.00  0.00     0.059 C 
HETATM    9  H   UNL     1      42.124 -13.674  -2.345  1.00  0.00     0.170 HD
HETATM   10  H   UNL     1      40.206 -16.820  -0.799  1.00  0.00     0.165 HD
ENDROOT
BRANCH   7  11
HETATM   11  C   UNL     1      41.699 -16.505   1.462  1.00  0.00    -0.028 A 
HETATM   12  C   UNL     1      41.316 -17.054   2.701  1.00  0.00     0.049 A 
HETATM   13  C   UNL     1      42.135 -17.961   3.394  1.00  0.00     0.102 A 
HETATM   14  C   UNL     1      43.350 -18.358   2.812  1.00  0.00     0.102 A 
HETATM   15  C   UNL     1      43.731 -17.815   1.577  1.00  0.00     0.040 A 
HETATM   16  C   UNL     1      42.917 -16.902   0.904  1.00  0.00     0.012 A 
BRANCH  13  17
HETATM   17  O   UNL     1      41.792 -18.480   4.613  1.00  0.00    -0.353 OA
HETATM   18  C   UNL     1      40.884 -17.736   5.419  1.00  0.00     0.210 C 
ENDBRANCH  13  17
BRANCH  14  19
HETATM   19  O   UNL     1      44.292 -19.218   3.318  1.00  0.00    -0.339 OA
BRANCH  19  20
HETATM   20  C   UNL     1      44.646 -20.361   2.545  1.00  0.00     0.278 C 
BRANCH  20  21
HETATM   21  C   UNL     1      44.666 -21.604   3.435  1.00  0.00     0.239 C 
HETATM   22  N   UNL     1      44.784 -21.371   4.776  1.00  0.00    -0.368 N 
HETATM   23  H   UNL     1      45.065 -20.453   5.101  1.00  0.00     0.159 HD
HETATM   24  H   UNL     1      44.866 -22.166   5.393  1.00  0.00     0.159 HD
HETATM   25  O   UNL     1      44.531 -22.745   3.005  1.00  0.00    -0.271 OA
ENDBRANCH  20  21
ENDBRANCH  19  20
ENDBRANCH  14  19
ENDBRANCH   7  11
BRANCH   8  26
HETATM   26  C   UNL     1      41.298 -13.451   2.139  1.00  0.00     0.252 C 
HETATM   27  N   UNL     1      42.473 -13.431   2.845  1.00  0.00    -0.353 N 
HETATM   28  H   UNL     1      43.243 -14.012   2.540  1.00  0.00     0.163 HD
HETATM   29  O   UNL     1      40.227 -13.041   2.570  1.00  0.00    -0.268 OA
BRANCH  27  30
HETATM   30  C   UNL     1      42.508 -12.905   4.192  1.00  0.00     0.161 C 
BRANCH  30  31
HETATM   31  C   UNL     1      43.245 -13.786   5.173  1.00  0.00    -0.041 A 
HETATM   32  C   UNL     1      43.691 -13.322   6.420  1.00  0.00     0.009 A 
HETATM   33  C   UNL     1      44.319 -14.185   7.322  1.00  0.00     0.001 A 
HETATM   34  C   UNL     1      44.486 -15.529   7.001  1.00  0.00     0.000 A 
HETATM   35  C   UNL     1      44.029 -16.012   5.778  1.00  0.00     0.001 A 
HETATM   36  C   UNL     1      43.410 -15.147   4.872  1.00  0.00     0.009 A 
ENDBRANCH  30  31
ENDBRANCH  27  30
ENDBRANCH   8  26
TORSDOF 8
ENDMDL
MODEL 7
REMARK VINA RESULT:      -7.8      1.111      1.817
REMARK  8 active torsions:
REMARK  status: ('A' for Active; 'I' for Inactive)
REMARK    1  A    between atoms: C_7  and  C_8 
REMARK    2  A    between atoms: C_10  and  O_11 
REMARK    3  A    between atoms: C_13  and  O_14 
REMARK    4  A    between atoms: O_14  and  C_15 
REMARK    5  A    between atoms: C_15  and  C_16 
REMARK       I    between atoms: C_16  and  N_17 
REMARK    6  A    between atoms: C_21  and  C_22 
REMARK       I    between atoms: C_22  and  N_23 
REMARK    7  A    between atoms: N_23  and  C_24 
REMARK    8  A    between atoms: C_24  and  C_25 
ROOT
HETATM    1  C   UNL     1      43.706 -15.265   5.321  1.00  0.00     0.069 C 
HETATM    2  C   UNL     1      42.382 -15.090   4.636  1.00  0.00     0.024 C 
HETATM    3  N   UNL     1      41.457 -14.343   5.333  1.00  0.00    -0.312 N 
HETATM    4  C   UNL     1      40.139 -14.220   5.008  1.00  0.00     0.321 C 
HETATM    5  O   UNL     1      39.361 -13.575   5.701  1.00  0.00    -0.247 OA
HETATM    6  N   UNL     1      39.730 -14.874   3.894  1.00  0.00    -0.330 N 
HETATM    7  C   UNL     1      40.621 -15.456   2.906  1.00  0.00     0.160 C 
HETATM    8  C   UNL     1      42.009 -15.629   3.460  1.00  0.00     0.059 C 
HETATM    9  H   UNL     1      41.709 -13.915   6.216  1.00  0.00     0.170 HD
HETATM   10  H   UNL     1      38.756 -14.749   3.656  1.00  0.00     0.165 HD
ENDROOT
BRANCH   7  11
HETATM   11  C   UNL     1      40.586 -14.610   1.639  1.00  0.00    -0.028 A 
HETATM   12  C   UNL     1      41.629 -13.716   1.329  1.00  0.00     0.049 A 
HETATM   13  C   UNL     1      41.588 -12.898   0.188  1.00  0.00     0.102 A 
HETATM   14  C   UNL     1      40.494 -13.007  -0.685  1.00  0.00     0.102 A 
HETATM   15  C   UNL     1      39.456 -13.898  -0.380  1.00  0.00     0.040 A 
HETATM   16  C   UNL     1      39.499 -14.695   0.766  1.00  0.00     0.012 A 
BRANCH  13  17
HETATM   17  O   UNL     1      42.578 -12.002  -0.112  1.00  0.00    -0.353 OA
HETATM   18  C   UNL     1      42.317 -10.622   0.123  1.00  0.00     0.210 C 
ENDBRANCH  13  17
BRANCH  14  19
HETATM   19  O   UNL     1      40.255 -12.304  -1.839  1.00  0.00    -0.339 OA
BRANCH  19  20
HETATM   20  C   UNL     1      40.010 -13.035  -3.037  1.00  0.00     0.278 C 
BRANCH  20  21
HETATM   21  C   UNL     1      41.303 -13.690  -3.521  1.00  0.00     0.239 C 
HETATM   22  N   UNL     1      42.361 -12.846  -3.708  1.00  0.00    -0.368 N 
HETATM   23  H   UNL     1      42.204 -11.846  -3.735  1.00  0.00     0.159 HD
HETATM   24  H   UNL     1      43.215 -13.228  -4.088  1.00  0.00     0.159 HD
HETATM   25  O   UNL     1      41.426 -14.900  -3.687  1.00  0.00    -0.271 OA
ENDBRANCH  20  21
ENDBRANCH  19  20
ENDBRANCH  14  19
ENDBRANCH   7  11
BRANCH   8  26
HETATM   26  C   UNL     1      42.885 -16.516   2.654  1.00  0.00     0.252 C 
HETATM   27  N   UNL     1      42.419 -17.794   2.484  1.00  0.00    -0.353 N 
HETATM   28  H   UNL     1      41.657 -18.124   3.061  1.00  0.00     0.163 HD
HETATM   29  O   UNL     1      43.968 -16.116   2.244  1.00  0.00    -0.268 OA
BRANCH  27  30
HETATM   30  C   UNL     1      43.217 -18.776   1.783  1.00  0.00     0.161 C 
BRANCH  30  31
HETATM   31  C   UNL     1      43.831 -19.821   2.684  1.00  0.00    -0.041 A 
HETATM   32  C   UNL     1      44.225 -19.546   4.003  1.00  0.00     0.009 A 
HETATM   33  C   UNL     1      44.737 -20.556   4.822  1.00  0.00     0.001 A 
HETATM   34  C   UNL     1      44.840 -21.859   4.343  1.00  0.00     0.000 A 
HETATM   35  C   UNL     1      44.432 -22.155   3.045  1.00  0.00     0.001 A 
HETATM   36  C   UNL     1      43.929 -21.143   2.223  1.00  0.00     0.009 A 
ENDBRANCH  30  31
ENDBRANCH  27  30
ENDBRANCH   8  26
TORSDOF 8
ENDMDL
MODEL 8
REMARK VINA RESULT:      -7.7      2.578      7.842
REMARK  8 active torsions:
REMARK  status: ('A' for Active; 'I' for Inactive)
REMARK    1  A    between atoms: C_7  and  C_8 
REMARK    2  A    between atoms: C_10  and  O_11 
REMARK    3  A    between atoms: C_13  and  O_14 
REMARK    4  A    between atoms: O_14  and  C_15 
REMARK    5  A    between atoms: C_15  and  C_16 
REMARK       I    between atoms: C_16  and  N_17 
REMARK    6  A    between atoms: C_21  and  C_22 
REMARK       I    between atoms: C_22  and  N_23 
REMARK    7  A    between atoms: N_23  and  C_24 
REMARK    8  A    between atoms: C_24  and  C_25 
ROOT
HETATM    1  C   UNL     1      39.188 -13.560   1.534  1.00  0.00     0.069 C 
HETATM    2  C   UNL     1      40.541 -13.821   2.131  1.00  0.00     0.024 C 
HETATM    3  N   UNL     1      40.788 -13.178   3.324  1.00  0.00    -0.312 N 
HETATM    4  C   UNL     1      42.001 -13.103   3.941  1.00  0.00     0.321 C 
HETATM    5  O   UNL     1      42.159 -12.473   4.981  1.00  0.00    -0.247 OA
HETATM    6  N   UNL     1      43.028 -13.740   3.328  1.00  0.00    -0.330 N 
HETATM    7  C   UNL     1      42.879 -14.688   2.239  1.00  0.00     0.160 C 
HETATM    8  C   UNL     1      41.527 -14.563   1.592  1.00  0.00     0.059 C 
HETATM    9  H   UNL     1      40.065 -12.620   3.762  1.00  0.00     0.170 HD
HETATM   10  H   UNL     1      43.913 -13.695   3.815  1.00  0.00     0.165 HD
ENDROOT
BRANCH   7  11
HETATM   11  C   UNL     1      43.164 -16.093   2.754  1.00  0.00    -0.028 A 
HETATM   12  C   UNL     1      42.726 -16.509   4.026  1.00  0.00     0.049 A 
HETATM   13  C   UNL     1      43.020 -17.786   4.530  1.00  0.00     0.102 A 
HETATM   14  C   UNL     1      43.739 -18.684   3.725  1.00  0.00     0.102 A 
HETATM   15  C   UNL     1      44.175 -18.273   2.457  1.00  0.00     0.040 A 
HETATM   16  C   UNL     1      43.891 -16.995   1.972  1.00  0.00     0.012 A 
BRANCH  13  17
HETATM   17  O   UNL     1      42.628 -18.194   5.776  1.00  0.00    -0.353 OA
HETATM   18  C   UNL     1      42.124 -17.207   6.670  1.00  0.00     0.210 C 
ENDBRANCH  13  17
BRANCH  14  19
HETATM   19  O   UNL     1      44.136 -19.962   4.024  1.00  0.00    -0.339 OA
BRANCH  19  20
HETATM   20  C   UNL     1      45.039 -20.615   3.135  1.00  0.00     0.278 C 
BRANCH  20  21
HETATM   21  C   UNL     1      44.439 -21.939   2.665  1.00  0.00     0.239 C 
HETATM   22  N   UNL     1      43.638 -21.868   1.561  1.00  0.00    -0.368 N 
HETATM   23  H   UNL     1      43.305 -20.966   1.242  1.00  0.00     0.159 HD
HETATM   24  H   UNL     1      43.171 -22.710   1.255  1.00  0.00     0.159 HD
HETATM   25  O   UNL     1      44.688 -23.019   3.192  1.00  0.00    -0.271 OA
ENDBRANCH  20  21
ENDBRANCH  19  20
ENDBRANCH  14  19
ENDBRANCH   7  11
BRANCH   8  26
HETATM   26  C   UNL     1      41.411 -15.240   0.275  1.00  0.00     0.252 C 
HETATM   27  N   UNL     1      41.679 -14.446  -0.811  1.00  0.00    -0.353 N 
HETATM   28  H   UNL     1      41.723 -13.443  -0.692  1.00  0.00     0.163 HD
HETATM   29  O   UNL     1      41.040 -16.405   0.204  1.00  0.00    -0.268 OA
BRANCH  27  30
HETATM   30  C   UNL     1      41.527 -14.967  -2.152  1.00  0.00     0.161 C 
BRANCH  30  31
HETATM   31  C   UNL     1      40.097 -15.003  -2.636  1.00  0.00    -0.041 A 
HETATM   32  C   UNL     1      39.133 -14.073  -2.219  1.00  0.00     0.009 A 
HETATM   33  C   UNL     1      37.835 -14.107  -2.735  1.00  0.00     0.001 A 
HETATM   34  C   UNL     1      37.490 -15.056  -3.694  1.00  0.00     0.000 A 
HETATM   35  C   UNL     1      38.440 -15.971  -4.137  1.00  0.00     0.001 A 
HETATM   36  C   UNL     1      39.735 -15.943  -3.614  1.00  0.00     0.009 A 
ENDBRANCH  30  31
ENDBRANCH  27  30
ENDBRANCH   8  26
TORSDOF 8
ENDMDL
MODEL 9
REMARK VINA RESULT:      -7.6      2.727      5.736
REMARK  8 active torsions:
REMARK  status: ('A' for Active; 'I' for Inactive)
REMARK    1  A    between atoms: C_7  and  C_8 
REMARK    2  A    between atoms: C_10  and  O_11 
REMARK    3  A    between atoms: C_13  and  O_14 
REMARK    4  A    between atoms: O_14  and  C_15 
REMARK    5  A    between atoms: C_15  and  C_16 
REMARK       I    between atoms: C_16  and  N_17 
REMARK    6  A    between atoms: C_21  and  C_22 
REMARK       I    between atoms: C_22  and  N_23 
REMARK    7  A    between atoms: N_23  and  C_24 
REMARK    8  A    between atoms: C_24  and  C_25 
ROOT
HETATM    1  C   UNL     1      40.607 -17.608   1.005  1.00  0.00     0.069 C 
HETATM    2  C   UNL     1      41.061 -16.182   1.126  1.00  0.00     0.024 C 
HETATM    3  N   UNL     1      40.747 -15.375   0.055  1.00  0.00    -0.312 N 
HETATM    4  C   UNL     1      41.225 -14.114  -0.147  1.00  0.00     0.321 C 
HETATM    5  O   UNL     1      40.939 -13.468  -1.149  1.00  0.00    -0.247 OA
HETATM    6  N   UNL     1      42.055 -13.625   0.806  1.00  0.00    -0.330 N 
HETATM    7  C   UNL     1      42.253 -14.224   2.113  1.00  0.00     0.160 C 
HETATM    8  C   UNL     1      41.777 -15.650   2.136  1.00  0.00     0.059 C 
HETATM    9  H   UNL     1      40.201 -15.740  -0.716  1.00  0.00     0.170 HD
HETATM   10  H   UNL     1      42.378 -12.680   0.650  1.00  0.00     0.165 HD
ENDROOT
BRANCH   7  11
HETATM   11  C   UNL     1      41.580 -13.355   3.169  1.00  0.00    -0.028 A 
HETATM   12  C   UNL     1      40.260 -12.894   3.004  1.00  0.00     0.049 A 
HETATM   13  C   UNL     1      39.645 -12.057   3.948  1.00  0.00     0.102 A 
HETATM   14  C   UNL     1      40.355 -11.704   5.107  1.00  0.00     0.102 A 
HETATM   15  C   UNL     1      41.669 -12.165   5.275  1.00  0.00     0.040 A 
HETATM   16  C   UNL     1      42.278 -12.983   4.322  1.00  0.00     0.012 A 
BRANCH  13  17
HETATM   17  O   UNL     1      38.374 -11.575   3.788  1.00  0.00    -0.353 OA
HETATM   18  C   UNL     1      38.016 -11.060   2.510  1.00  0.00     0.210 C 
ENDBRANCH  13  17
BRANCH  14  19
HETATM   19  O   UNL     1      39.948 -10.900   6.141  1.00  0.00    -0.339 OA
BRANCH  19  20
HETATM   20  C   UNL     1      40.461 -11.163   7.444  1.00  0.00     0.278 C 
BRANCH  20  21
HETATM   21  C   UNL     1      39.368 -10.940   8.488  1.00  0.00     0.239 C 
HETATM   22  N   UNL     1      39.418 -11.757   9.582  1.00  0.00    -0.368 N 
HETATM   23  H   UNL     1      40.006 -12.583   9.563  1.00  0.00     0.159 HD
HETATM   24  H   UNL     1      38.677 -11.688  10.264  1.00  0.00     0.159 HD
HETATM   25  O   UNL     1      38.520 -10.057   8.401  1.00  0.00    -0.271 OA
ENDBRANCH  20  21
ENDBRANCH  19  20
ENDBRANCH  14  19
ENDBRANCH   7  11
BRANCH   8  26
HETATM   26  C   UNL     1      42.244 -16.436   3.306  1.00  0.00     0.252 C 
HETATM   27  N   UNL     1      43.451 -17.065   3.138  1.00  0.00    -0.353 N 
HETATM   28  H   UNL     1      43.841 -17.147   2.209  1.00  0.00     0.163 HD
HETATM   29  O   UNL     1      41.544 -16.540   4.306  1.00  0.00    -0.268 OA
BRANCH  27  30
HETATM   30  C   UNL     1      43.979 -17.923   4.176  1.00  0.00     0.161 C 
BRANCH  30  31
HETATM   31  C   UNL     1      44.185 -19.354   3.741  1.00  0.00    -0.041 A 
HETATM   32  C   UNL     1      44.655 -20.350   4.612  1.00  0.00     0.009 A 
HETATM   33  C   UNL     1      44.778 -21.674   4.183  1.00  0.00     0.001 A 
HETATM   34  C   UNL     1      44.410 -22.027   2.888  1.00  0.00     0.000 A 
HETATM   35  C   UNL     1      43.920 -21.057   2.018  1.00  0.00     0.001 A 
HETATM   36  C   UNL     1      43.806 -19.730   2.443  1.00  0.00     0.009 A 
ENDBRANCH  30  31
ENDBRANCH  27  30
ENDBRANCH   8  26
TORSDOF 8
ENDMDL
MODEL 10
REMARK VINA RESULT:      -7.5      3.201      6.463
REMARK  8 active torsions:
REMARK  status: ('A' for Active; 'I' for Inactive)
REMARK    1  A    between atoms: C_7  and  C_8 
REMARK    2  A    between atoms: C_10  and  O_11 
REMARK    3  A    between atoms: C_13  and  O_14 
REMARK    4  A    between atoms: O_14  and  C_15 
REMARK    5  A    between atoms: C_15  and  C_16 
REMARK       I    between atoms: C_16  and  N_17 
REMARK    6  A    between atoms: C_21  and  C_22 
REMARK       I    between atoms: C_22  and  N_23 
REMARK    7  A    between atoms: N_23  and  C_24 
REMARK    8  A    between atoms: C_24  and  C_25 
ROOT
HETATM    1  C   UNL     1      44.100 -21.516   6.605  1.00  0.00     0.069 C 
HETATM    2  C   UNL     1      44.299 -20.993   5.212  1.00  0.00     0.024 C 
HETATM    3  N   UNL     1      44.296 -21.950   4.221  1.00  0.00    -0.312 N 
HETATM    4  C   UNL     1      44.654 -21.740   2.923  1.00  0.00     0.321 C 
HETATM    5  O   UNL     1      44.671 -22.650   2.102  1.00  0.00    -0.247 OA
HETATM    6  N   UNL     1      45.016 -20.476   2.595  1.00  0.00    -0.330 N 
HETATM    7  C   UNL     1      44.801 -19.312   3.436  1.00  0.00     0.160 C 
HETATM    8  C   UNL     1      44.530 -19.714   4.860  1.00  0.00     0.059 C 
HETATM    9  H   UNL     1      44.115 -22.920   4.450  1.00  0.00     0.170 HD
HETATM   10  H   UNL     1      45.253 -20.336   1.623  1.00  0.00     0.165 HD
ENDROOT
BRANCH   7  11
HETATM   11  C   UNL     1      43.690 -18.459   2.837  1.00  0.00    -0.028 A 
HETATM   12  C   UNL     1      43.676 -17.060   2.995  1.00  0.00     0.049 A 
HETATM   13  C   UNL     1      42.635 -16.267   2.485  1.00  0.00     0.102 A 
HETATM   14  C   UNL     1      41.601 -16.887   1.764  1.00  0.00     0.102 A 
HETATM   15  C   UNL     1      41.615 -18.280   1.603  1.00  0.00     0.040 A 
HETATM   16  C   UNL     1      42.646 -19.060   2.128  1.00  0.00     0.012 A 
BRANCH  13  17
HETATM   17  O   UNL     1      42.591 -14.910   2.657  1.00  0.00    -0.353 OA
HETATM   18  C   UNL     1      43.789 -14.252   3.055  1.00  0.00     0.210 C 
ENDBRANCH  13  17
BRANCH  14  19
HETATM   19  O   UNL     1      40.497 -16.306   1.194  1.00  0.00    -0.339 OA
BRANCH  19  20
HETATM   20  C   UNL     1      39.420 -15.924   2.045  1.00  0.00     0.278 C 
BRANCH  20  21
HETATM   21  C   UNL     1      39.020 -14.477   1.760  1.00  0.00     0.239 C 
HETATM   22  N   UNL     1      39.870 -13.521   2.240  1.00  0.00    -0.368 N 
HETATM   23  H   UNL     1      40.575 -13.777   2.921  1.00  0.00     0.159 HD
HETATM   24  H   UNL     1      39.609 -12.552   2.129  1.00  0.00     0.159 HD
HETATM   25  O   UNL     1      38.034 -14.167   1.098  1.00  0.00    -0.271 OA
ENDBRANCH  20  21
ENDBRANCH  19  20
ENDBRANCH  14  19
ENDBRANCH   7  11
BRANCH   8  26
HETATM   26  C   UNL     1      44.636 -18.605   5.842  1.00  0.00     0.252 C 
HETATM   27  N   UNL     1      43.439 -18.105   6.286  1.00  0.00    -0.353 N 
HETATM   28  H   UNL     1      42.590 -18.345   5.793  1.00  0.00     0.163 HD
HETATM   29  O   UNL     1      45.732 -18.155   6.157  1.00  0.00    -0.268 OA
BRANCH  27  30
HETATM   30  C   UNL     1      43.408 -16.973   7.186  1.00  0.00     0.161 C 
BRANCH  30  31
HETATM   31  C   UNL     1      42.727 -15.753   6.611  1.00  0.00    -0.041 A 
HETATM   32  C   UNL     1      41.407 -15.777   6.137  1.00  0.00     0.009 A 
HETATM   33  C   UNL     1      40.796 -14.612   5.665  1.00  0.00     0.001 A 
HETATM   34  C   UNL     1      41.486 -13.403   5.684  1.00  0.00     0.000 A 
HETATM   35  C   UNL     1      42.789 -13.357   6.174  1.00  0.00     0.001 A 
HETATM   36  C   UNL     1      43.403 -14.523   6.636  1.00  0.00     0.009 A 
ENDBRANCH  30  31
ENDBRANCH  27  30
ENDBRANCH   8  26
TORSDOF 8
ENDMDL
