MODEL 1
REMARK VINA RESULT:      -8.7      0.000      0.000
REMARK  4 active torsions:
REMARK  status: ('A' for Active; 'I' for Inactive)
REMARK    1  A    between atoms: C_6  and  N_7 
REMARK       I    between atoms: N_7  and  C_8 
REMARK    2  A    between atoms: C_8  and  C_9 
REMARK    3  A    between atoms: C_10  and  C_11 
REMARK    4  A    between atoms: C_12  and  O_13 
ROOT
HETATM    1  C   UNL     1      42.143 -14.961   5.255  1.00  0.00     0.063 C 
HETATM    2  C   UNL     1      41.058 -14.105   4.609  1.00  0.00     0.205 C 
HETATM    3  N   UNL     1      40.952 -12.808   5.293  1.00  0.00    -0.084 N 
HETATM    4  C   UNL     1      41.855 -12.352   6.218  1.00  0.00     0.725 A 
HETATM    5  N   UNL     1      42.896 -13.134   6.569  1.00  0.00    -0.192 N 
HETATM    6  N   UNL     1      39.921 -11.946   5.155  1.00  0.00    -0.149 NA
HETATM    7  C   UNL     1      40.315 -10.959   5.968  1.00  0.00     0.275 A 
HETATM    8  N   UNL     1      41.489 -11.170   6.642  1.00  0.00    -0.054 NA
HETATM    9  C   UNL     1      43.020 -14.456   6.157  1.00  0.00     0.037 C 
HETATM   10  C   UNL     1      44.157 -15.234   6.769  1.00  0.00     0.070 C 
HETATM   11  H   UNL     1      43.534 -12.798   7.285  1.00  0.00     0.184 HD
ENDROOT
BRANCH   1  12
HETATM   12  C   UNL     1      42.133 -16.395   4.874  1.00  0.00     0.256 C 
HETATM   13  N   UNL     1      43.178 -16.704   4.026  1.00  0.00    -0.323 N 
HETATM   14  H   UNL     1      43.774 -15.937   3.749  1.00  0.00     0.169 HD
HETATM   15  O   UNL     1      41.264 -17.137   5.306  1.00  0.00    -0.267 OA
BRANCH  13  16
HETATM   16  C   UNL     1      43.514 -17.971   3.492  1.00  0.00     0.041 A 
HETATM   17  C   UNL     1      44.272 -18.865   4.281  1.00  0.00    -0.035 A 
HETATM   18  C   UNL     1      44.590 -20.138   3.772  1.00  0.00     0.015 A 
HETATM   19  C   UNL     1      44.762 -18.508   5.659  1.00  0.00     0.050 C 
HETATM   20  C   UNL     1      44.184 -20.532   2.493  1.00  0.00    -0.061 A 
HETATM   21  C   UNL     1      44.494 -21.907   1.981  1.00  0.00     0.048 C 
HETATM   22  C   UNL     1      43.430 -19.646   1.726  1.00  0.00     0.009 A 
HETATM   23  C   UNL     1      43.104 -18.377   2.218  1.00  0.00     0.030 A 
ENDBRANCH  13  16
ENDBRANCH   1  12
BRANCH   2  24
HETATM   24  C   UNL     1      41.271 -13.875   3.115  1.00  0.00     0.005 A 
HETATM   25  C   UNL     1      40.570 -14.639   2.160  1.00  0.00     0.076 A 
HETATM   26  C   UNL     1      40.786 -14.409   0.796  1.00  0.00     0.037 A 
HETATM   27  C   UNL     1      41.681 -13.423   0.374  1.00  0.00     0.003 A 
HETATM   28  C   UNL     1      42.369 -12.659   1.308  1.00  0.00     0.001 A 
HETATM   29  C   UNL     1      42.168 -12.881   2.668  1.00  0.00     0.012 A 
BRANCH  25  30
HETATM   30  O   UNL     1      39.716 -15.588   2.657  1.00  0.00    -0.355 OA
HETATM   31  C   UNL     1      39.817 -16.901   2.117  1.00  0.00     0.210 C 
ENDBRANCH  25  30
ENDBRANCH   2  24
TORSDOF 4
ENDMDL
MODEL 2
REMARK VINA RESULT:      -8.6      0.353      1.272
REMARK  4 active torsions:
REMARK  status: ('A' for Active; 'I' for Inactive)
REMARK    1  A    between atoms: C_6  and  N_7 
REMARK       I    between atoms: N_7  and  C_8 
REMARK    2  A    between atoms: C_8  and  C_9 
REMARK    3  A    between atoms: C_10  and  C_11 
REMARK    4  A    between atoms: C_12  and  O_13 
ROOT
HETATM    1  C   UNL     1      42.177 -14.936   5.255  1.00  0.00     0.063 C 
HETATM    2  C   UNL     1      41.086 -14.077   4.622  1.00  0.00     0.205 C 
HETATM    3  N   UNL     1      40.996 -12.777   5.303  1.00  0.00    -0.084 N 
HETATM    4  C   UNL     1      41.915 -12.323   6.213  1.00  0.00     0.725 A 
HETATM    5  N   UNL     1      42.957 -13.108   6.552  1.00  0.00    -0.192 N 
HETATM    6  N   UNL     1      39.968 -11.911   5.177  1.00  0.00    -0.149 NA
HETATM    7  C   UNL     1      40.378 -10.923   5.980  1.00  0.00     0.275 A 
HETATM    8  N   UNL     1      41.561 -11.137   6.638  1.00  0.00    -0.054 NA
HETATM    9  C   UNL     1      43.069 -14.433   6.143  1.00  0.00     0.037 C 
HETATM   10  C   UNL     1      44.211 -15.213   6.740  1.00  0.00     0.070 C 
HETATM   11  H   UNL     1      43.607 -12.773   7.256  1.00  0.00     0.184 HD
ENDROOT
BRANCH   1  12
HETATM   12  C   UNL     1      42.154 -16.372   4.879  1.00  0.00     0.256 C 
HETATM   13  N   UNL     1      43.236 -16.709   4.091  1.00  0.00    -0.323 N 
HETATM   14  H   UNL     1      43.864 -15.957   3.844  1.00  0.00     0.169 HD
HETATM   15  O   UNL     1      41.246 -17.091   5.267  1.00  0.00    -0.267 OA
BRANCH  13  16
HETATM   16  C   UNL     1      43.571 -17.986   3.580  1.00  0.00     0.041 A 
HETATM   17  C   UNL     1      43.560 -18.185   2.182  1.00  0.00    -0.035 A 
HETATM   18  C   UNL     1      43.916 -19.442   1.659  1.00  0.00     0.015 A 
HETATM   19  C   UNL     1      43.175 -17.097   1.215  1.00  0.00     0.050 C 
HETATM   20  C   UNL     1      44.268 -20.505   2.497  1.00  0.00    -0.061 A 
HETATM   21  C   UNL     1      44.686 -21.826   1.924  1.00  0.00     0.048 C 
HETATM   22  C   UNL     1      44.283 -20.296   3.875  1.00  0.00     0.009 A 
HETATM   23  C   UNL     1      43.932 -19.052   4.410  1.00  0.00     0.030 A 
ENDBRANCH  13  16
ENDBRANCH   1  12
BRANCH   2  24
HETATM   24  C   UNL     1      41.279 -13.854   3.124  1.00  0.00     0.005 A 
HETATM   25  C   UNL     1      40.541 -14.599   2.183  1.00  0.00     0.076 A 
HETATM   26  C   UNL     1      40.738 -14.376   0.815  1.00  0.00     0.037 A 
HETATM   27  C   UNL     1      41.651 -13.414   0.376  1.00  0.00     0.003 A 
HETATM   28  C   UNL     1      42.376 -12.668   1.297  1.00  0.00     0.001 A 
HETATM   29  C   UNL     1      42.193 -12.884   2.661  1.00  0.00     0.012 A 
BRANCH  25  30
HETATM   30  O   UNL     1      39.671 -15.526   2.695  1.00  0.00    -0.355 OA
HETATM   31  C   UNL     1      39.740 -16.845   2.168  1.00  0.00     0.210 C 
ENDBRANCH  25  30
ENDBRANCH   2  24
TORSDOF 4
ENDMDL
MODEL 3
REMARK VINA RESULT:      -8.1      2.789      4.123
REMARK  4 active torsions:
REMARK  status: ('A' for Active; 'I' for Inactive)
REMARK    1  A    between atoms: C_6  and  N_7 
REMARK       I    between atoms: N_7  and  C_8 
REMARK    2  A    between atoms: C_8  and  C_9 
REMARK    3  A    between atoms: C_10  and  C_11 
REMARK    4  A    between atoms: C_12  and  O_13 
ROOT
HETATM    1  C   UNL     1      40.737 -13.645   2.158  1.00  0.00     0.063 C 
HETATM    2  C   UNL     1      40.367 -13.430   0.694  1.00  0.00     0.205 C 
HETATM    3  N   UNL     1      39.036 -12.814   0.586  1.00  0.00    -0.084 N 
HETATM    4  C   UNL     1      38.341 -12.298   1.649  1.00  0.00     0.725 A 
HETATM    5  N   UNL     1      38.869 -12.377   2.887  1.00  0.00    -0.192 N 
HETATM    6  N   UNL     1      38.306 -12.751  -0.548  1.00  0.00    -0.149 NA
HETATM    7  C   UNL     1      37.218 -12.112  -0.106  1.00  0.00     0.275 A 
HETATM    8  N   UNL     1      37.196 -11.821   1.233  1.00  0.00    -0.054 NA
HETATM    9  C   UNL     1      40.021 -13.101   3.173  1.00  0.00     0.037 C 
HETATM   10  C   UNL     1      40.384 -13.216   4.631  1.00  0.00     0.070 C 
HETATM   11  H   UNL     1      38.324 -12.025   3.669  1.00  0.00     0.184 HD
ENDROOT
BRANCH   1  12
HETATM   12  C   UNL     1      41.897 -14.540   2.396  1.00  0.00     0.256 C 
HETATM   13  N   UNL     1      41.537 -15.871   2.320  1.00  0.00    -0.323 N 
HETATM   14  H   UNL     1      40.559 -16.063   2.159  1.00  0.00     0.169 HD
HETATM   15  O   UNL     1      42.999 -14.066   2.624  1.00  0.00    -0.267 OA
BRANCH  13  16
HETATM   16  C   UNL     1      42.376 -17.004   2.448  1.00  0.00     0.041 A 
HETATM   17  C   UNL     1      42.334 -17.752   3.645  1.00  0.00    -0.035 A 
HETATM   18  C   UNL     1      43.143 -18.896   3.775  1.00  0.00     0.015 A 
HETATM   19  C   UNL     1      41.450 -17.372   4.803  1.00  0.00     0.050 C 
HETATM   20  C   UNL     1      44.002 -19.300   2.748  1.00  0.00    -0.061 A 
HETATM   21  C   UNL     1      44.827 -20.544   2.884  1.00  0.00     0.048 C 
HETATM   22  C   UNL     1      44.031 -18.558   1.567  1.00  0.00     0.009 A 
HETATM   23  C   UNL     1      43.232 -17.420   1.422  1.00  0.00     0.030 A 
ENDBRANCH  13  16
ENDBRANCH   1  12
BRANCH   2  24
HETATM   24  C   UNL     1      41.381 -12.585  -0.073  1.00  0.00     0.005 A 
HETATM   25  C   UNL     1      41.914 -13.034  -1.298  1.00  0.00     0.076 A 
HETATM   26  C   UNL     1      42.844 -12.242  -1.981  1.00  0.00     0.037 A 
HETATM   27  C   UNL     1      43.239 -11.005  -1.465  1.00  0.00     0.003 A 
HETATM   28  C   UNL     1      42.712 -10.550  -0.263  1.00  0.00     0.001 A 
HETATM   29  C   UNL     1      41.790 -11.332   0.429  1.00  0.00     0.012 A 
BRANCH  25  30
HETATM   30  O   UNL     1      41.479 -14.260  -1.732  1.00  0.00    -0.355 OA
HETATM   31  C   UNL     1      41.331 -14.438  -3.135  1.00  0.00     0.210 C 
ENDBRANCH  25  30
ENDBRANCH   2  24
TORSDOF 4
ENDMDL
MODEL 4
REMARK VINA RESULT:      -8.0      2.852      4.948
REMARK  4 active torsions:
REMARK  status: ('A' for Active; 'I' for Inactive)
REMARK    1  A    between atoms: C_6  and  N_7 
REMARK       I    between atoms: N_7  and  C_8 
REMARK    2  A    between atoms: C_8  and  C_9 
REMARK    3  A    between atoms: C_10  and  C_11 
REMARK    4  A    between atoms: C_12  and  O_13 
ROOT
HETATM    1  C   UNL     1      41.597 -14.758   1.763  1.00  0.00     0.063 C 
HETATM    2  C   UNL     1      41.780 -13.244   1.802  1.00  0.00     0.205 C 
HETATM    3  N   UNL     1      42.137 -12.735   0.470  1.00  0.00    -0.084 N 
HETATM    4  C   UNL     1      42.080 -13.484  -0.678  1.00  0.00     0.725 A 
HETATM    5  N   UNL     1      41.712 -14.778  -0.607  1.00  0.00    -0.192 N 
HETATM    6  N   UNL     1      42.634 -11.504   0.223  1.00  0.00    -0.149 NA
HETATM    7  C   UNL     1      42.778 -11.558  -1.106  1.00  0.00     0.275 A 
HETATM    8  N   UNL     1      42.455 -12.753  -1.696  1.00  0.00    -0.054 NA
HETATM    9  C   UNL     1      41.535 -15.449   0.598  1.00  0.00     0.037 C 
HETATM   10  C   UNL     1      41.280 -16.931   0.498  1.00  0.00     0.070 C 
HETATM   11  H   UNL     1      41.713 -15.329  -1.461  1.00  0.00     0.184 HD
ENDROOT
BRANCH   1  12
HETATM   12  C   UNL     1      41.553 -15.427   3.087  1.00  0.00     0.256 C 
HETATM   13  N   UNL     1      42.797 -15.891   3.465  1.00  0.00    -0.323 N 
HETATM   14  H   UNL     1      43.547 -15.758   2.800  1.00  0.00     0.169 HD
HETATM   15  O   UNL     1      40.497 -15.511   3.695  1.00  0.00    -0.267 OA
BRANCH  13  16
HETATM   16  C   UNL     1      43.150 -16.538   4.673  1.00  0.00     0.041 A 
HETATM   17  C   UNL     1      43.425 -17.923   4.649  1.00  0.00    -0.035 A 
HETATM   18  C   UNL     1      43.803 -18.574   5.838  1.00  0.00     0.015 A 
HETATM   19  C   UNL     1      43.328 -18.744   3.390  1.00  0.00     0.050 C 
HETATM   20  C   UNL     1      43.897 -17.880   7.049  1.00  0.00    -0.061 A 
HETATM   21  C   UNL     1      44.342 -18.578   8.299  1.00  0.00     0.048 C 
HETATM   22  C   UNL     1      43.631 -16.512   7.060  1.00  0.00     0.009 A 
HETATM   23  C   UNL     1      43.255 -15.850   5.886  1.00  0.00     0.030 A 
ENDBRANCH  13  16
ENDBRANCH   1  12
BRANCH   2  24
HETATM   24  C   UNL     1      40.554 -12.495   2.319  1.00  0.00     0.005 A 
HETATM   25  C   UNL     1      40.593 -11.809   3.550  1.00  0.00     0.076 A 
HETATM   26  C   UNL     1      39.455 -11.132   4.002  1.00  0.00     0.037 A 
HETATM   27  C   UNL     1      38.284 -11.120   3.240  1.00  0.00     0.003 A 
HETATM   28  C   UNL     1      38.239 -11.785   2.021  1.00  0.00     0.001 A 
HETATM   29  C   UNL     1      39.364 -12.467   1.562  1.00  0.00     0.012 A 
BRANCH  25  30
HETATM   30  O   UNL     1      41.777 -11.874   4.238  1.00  0.00    -0.355 OA
HETATM   31  C   UNL     1      41.733 -12.398   5.560  1.00  0.00     0.210 C 
ENDBRANCH  25  30
ENDBRANCH   2  24
TORSDOF 4
ENDMDL
MODEL 5
REMARK VINA RESULT:      -7.9      3.170      5.041
REMARK  4 active torsions:
REMARK  status: ('A' for Active; 'I' for Inactive)
REMARK    1  A    between atoms: C_6  and  N_7 
REMARK       I    between atoms: N_7  and  C_8 
REMARK    2  A    between atoms: C_8  and  C_9 
REMARK    3  A    between atoms: C_10  and  C_11 
REMARK    4  A    between atoms: C_12  and  O_13 
ROOT
HETATM    1  C   UNL     1      41.582 -14.524  -0.027  1.00  0.00     0.063 C 
HETATM    2  C   UNL     1      41.862 -13.206   0.688  1.00  0.00     0.205 C 
HETATM    3  N   UNL     1      42.149 -12.144  -0.287  1.00  0.00    -0.084 N 
HETATM    4  C   UNL     1      41.959 -12.271  -1.639  1.00  0.00     0.725 A 
HETATM    5  N   UNL     1      41.516 -13.442  -2.138  1.00  0.00    -0.192 N 
HETATM    6  N   UNL     1      42.703 -10.949   0.015  1.00  0.00    -0.149 NA
HETATM    7  C   UNL     1      42.742 -10.382  -1.196  1.00  0.00     0.275 A 
HETATM    8  N   UNL     1      42.301 -11.158  -2.235  1.00  0.00    -0.054 NA
HETATM    9  C   UNL     1      41.389 -14.592  -1.367  1.00  0.00     0.037 C 
HETATM   10  C   UNL     1      41.034 -15.852  -2.115  1.00  0.00     0.070 C 
HETATM   11  H   UNL     1      41.418 -13.533  -3.145  1.00  0.00     0.184 HD
ENDROOT
BRANCH   1  12
HETATM   12  C   UNL     1      41.596 -15.731   0.836  1.00  0.00     0.256 C 
HETATM   13  N   UNL     1      42.873 -16.232   0.990  1.00  0.00    -0.323 N 
HETATM   14  H   UNL     1      43.606 -15.758   0.482  1.00  0.00     0.169 HD
HETATM   15  O   UNL     1      40.554 -16.157   1.309  1.00  0.00    -0.267 OA
BRANCH  13  16
HETATM   16  C   UNL     1      43.281 -17.340   1.771  1.00  0.00     0.041 A 
HETATM   17  C   UNL     1      43.502 -17.154   3.154  1.00  0.00    -0.035 A 
HETATM   18  C   UNL     1      43.881 -18.253   3.948  1.00  0.00     0.015 A 
HETATM   19  C   UNL     1      43.349 -15.814   3.823  1.00  0.00     0.050 C 
HETATM   20  C   UNL     1      44.060 -19.524   3.393  1.00  0.00    -0.061 A 
HETATM   21  C   UNL     1      44.423 -20.693   4.258  1.00  0.00     0.048 C 
HETATM   22  C   UNL     1      43.832 -19.698   2.028  1.00  0.00     0.009 A 
HETATM   23  C   UNL     1      43.453 -18.616   1.226  1.00  0.00     0.030 A 
ENDBRANCH  13  16
ENDBRANCH   1  12
BRANCH   2  24
HETATM   24  C   UNL     1      40.729 -12.758   1.608  1.00  0.00     0.005 A 
HETATM   25  C   UNL     1      40.971 -12.482   2.968  1.00  0.00     0.076 A 
HETATM   26  C   UNL     1      39.914 -12.075   3.791  1.00  0.00     0.037 A 
HETATM   27  C   UNL     1      38.624 -11.930   3.273  1.00  0.00     0.003 A 
HETATM   28  C   UNL     1      38.378 -12.191   1.930  1.00  0.00     0.001 A 
HETATM   29  C   UNL     1      39.421 -12.602   1.103  1.00  0.00     0.012 A 
BRANCH  25  30
HETATM   30  O   UNL     1      42.261 -12.653   3.399  1.00  0.00    -0.355 OA
HETATM   31  C   UNL     1      42.493 -12.590   4.801  1.00  0.00     0.210 C 
ENDBRANCH  25  30
ENDBRANCH   2  24
TORSDOF 4
ENDMDL
MODEL 6
REMARK VINA RESULT:      -7.7      2.569      6.011
REMARK  4 active torsions:
REMARK  status: ('A' for Active; 'I' for Inactive)
REMARK    1  A    between atoms: C_6  and  N_7 
REMARK       I    between atoms: N_7  and  C_8 
REMARK    2  A    between atoms: C_8  and  C_9 
REMARK    3  A    between atoms: C_10  and  C_11 
REMARK    4  A    between atoms: C_12  and  O_13 
ROOT
HETATM    1  C   UNL     1      42.565 -17.444   3.557  1.00  0.00     0.063 C 
HETATM    2  C   UNL     1      42.288 -17.143   5.027  1.00  0.00     0.205 C 
HETATM    3  N   UNL     1      43.011 -18.088   5.890  1.00  0.00    -0.084 N 
HETATM    4  C   UNL     1      43.973 -18.956   5.440  1.00  0.00     0.725 A 
HETATM    5  N   UNL     1      44.270 -18.992   4.126  1.00  0.00    -0.192 N 
HETATM    6  N   UNL     1      42.766 -18.273   7.205  1.00  0.00    -0.149 NA
HETATM    7  C   UNL     1      43.674 -19.211   7.496  1.00  0.00     0.275 A 
HETATM    8  N   UNL     1      44.429 -19.660   6.443  1.00  0.00    -0.054 NA
HETATM    9  C   UNL     1      43.538 -18.303   3.166  1.00  0.00     0.037 C 
HETATM   10  C   UNL     1      43.905 -18.579   1.731  1.00  0.00     0.070 C 
HETATM   11  H   UNL     1      44.957 -19.668   3.804  1.00  0.00     0.184 HD
ENDROOT
BRANCH   1  12
HETATM   12  C   UNL     1      41.656 -16.779   2.590  1.00  0.00     0.256 C 
HETATM   13  N   UNL     1      42.316 -15.817   1.850  1.00  0.00    -0.323 N 
HETATM   14  H   UNL     1      43.287 -15.662   2.079  1.00  0.00     0.169 HD
HETATM   15  O   UNL     1      40.482 -17.108   2.527  1.00  0.00    -0.267 OA
BRANCH  13  16
HETATM   16  C   UNL     1      41.790 -15.013   0.810  1.00  0.00     0.041 A 
HETATM   17  C   UNL     1      41.774 -13.610   0.975  1.00  0.00    -0.035 A 
HETATM   18  C   UNL     1      41.280 -12.797  -0.062  1.00  0.00     0.015 A 
HETATM   19  C   UNL     1      42.269 -12.939   2.229  1.00  0.00     0.050 C 
HETATM   20  C   UNL     1      40.788 -13.351  -1.248  1.00  0.00    -0.061 A 
HETATM   21  C   UNL     1      40.303 -12.471  -2.361  1.00  0.00     0.048 C 
HETATM   22  C   UNL     1      40.815 -14.736  -1.403  1.00  0.00     0.009 A 
HETATM   23  C   UNL     1      41.304 -15.558  -0.382  1.00  0.00     0.030 A 
ENDBRANCH  13  16
ENDBRANCH   1  12
BRANCH   2  24
HETATM   24  C   UNL     1      42.639 -15.714   5.433  1.00  0.00     0.005 A 
HETATM   25  C   UNL     1      41.643 -14.719   5.508  1.00  0.00     0.076 A 
HETATM   26  C   UNL     1      41.992 -13.416   5.881  1.00  0.00     0.037 A 
HETATM   27  C   UNL     1      43.316 -13.095   6.191  1.00  0.00     0.003 A 
HETATM   28  C   UNL     1      44.303 -14.071   6.129  1.00  0.00     0.001 A 
HETATM   29  C   UNL     1      43.970 -15.371   5.754  1.00  0.00     0.012 A 
BRANCH  25  30
HETATM   30  O   UNL     1      40.371 -15.114   5.184  1.00  0.00    -0.355 OA
HETATM   31  C   UNL     1      39.592 -14.219   4.400  1.00  0.00     0.210 C 
ENDBRANCH  25  30
ENDBRANCH   2  24
TORSDOF 4
ENDMDL
MODEL 7
REMARK VINA RESULT:      -7.6      2.521      3.560
REMARK  4 active torsions:
REMARK  status: ('A' for Active; 'I' for Inactive)
REMARK    1  A    between atoms: C_6  and  N_7 
REMARK       I    between atoms: N_7  and  C_8 
REMARK    2  A    between atoms: C_8  and  C_9 
REMARK    3  A    between atoms: C_10  and  C_11 
REMARK    4  A    between atoms: C_12  and  O_13 
ROOT
HETATM    1  C   UNL     1      41.087 -13.183   2.242  1.00  0.00     0.063 C 
HETATM    2  C   UNL     1      40.306 -12.652   1.044  1.00  0.00     0.205 C 
HETATM    3  N   UNL     1      39.965 -11.235   1.240  1.00  0.00    -0.084 N 
HETATM    4  C   UNL     1      40.479 -10.454   2.242  1.00  0.00     0.725 A 
HETATM    5  N   UNL     1      41.324 -10.999   3.140  1.00  0.00    -0.192 N 
HETATM    6  N   UNL     1      39.054 -10.554   0.512  1.00  0.00    -0.149 NA
HETATM    7  C   UNL     1      39.132  -9.347   1.085  1.00  0.00     0.275 A 
HETATM    8  N   UNL     1      39.989  -9.245   2.150  1.00  0.00    -0.054 NA
HETATM    9  C   UNL     1      41.585 -12.364   3.200  1.00  0.00     0.037 C 
HETATM   10  C   UNL     1      42.427 -12.824   4.363  1.00  0.00     0.070 C 
HETATM   11  H   UNL     1      41.665 -10.417   3.899  1.00  0.00     0.184 HD
ENDROOT
BRANCH   1  12
HETATM   12  C   UNL     1      41.210 -14.660   2.316  1.00  0.00     0.256 C 
HETATM   13  N   UNL     1      42.527 -15.066   2.223  1.00  0.00    -0.323 N 
HETATM   14  H   UNL     1      43.213 -14.338   2.080  1.00  0.00     0.169 HD
HETATM   15  O   UNL     1      40.212 -15.352   2.444  1.00  0.00    -0.267 OA
BRANCH  13  16
HETATM   16  C   UNL     1      43.033 -16.386   2.297  1.00  0.00     0.041 A 
HETATM   17  C   UNL     1      43.351 -16.923   3.564  1.00  0.00    -0.035 A 
HETATM   18  C   UNL     1      43.830 -18.244   3.655  1.00  0.00     0.015 A 
HETATM   19  C   UNL     1      43.198 -16.134   4.837  1.00  0.00     0.050 C 
HETATM   20  C   UNL     1      44.013 -19.031   2.514  1.00  0.00    -0.061 A 
HETATM   21  C   UNL     1      44.484 -20.450   2.629  1.00  0.00     0.048 C 
HETATM   22  C   UNL     1      43.690 -18.493   1.269  1.00  0.00     0.009 A 
HETATM   23  C   UNL     1      43.212 -17.183   1.162  1.00  0.00     0.030 A 
ENDBRANCH  13  16
ENDBRANCH   1  12
BRANCH   2  24
HETATM   24  C   UNL     1      41.039 -12.818  -0.285  1.00  0.00     0.005 A 
HETATM   25  C   UNL     1      40.509 -13.633  -1.305  1.00  0.00     0.076 A 
HETATM   26  C   UNL     1      41.202 -13.770  -2.513  1.00  0.00     0.037 A 
HETATM   27  C   UNL     1      42.410 -13.099  -2.720  1.00  0.00     0.003 A 
HETATM   28  C   UNL     1      42.936 -12.286  -1.724  1.00  0.00     0.001 A 
HETATM   29  C   UNL     1      42.258 -12.145  -0.515  1.00  0.00     0.012 A 
BRANCH  25  30
HETATM   30  O   UNL     1      39.324 -14.261  -1.020  1.00  0.00    -0.355 OA
HETATM   31  C   UNL     1      38.188 -13.888  -1.791  1.00  0.00     0.210 C 
ENDBRANCH  25  30
ENDBRANCH   2  24
TORSDOF 4
ENDMDL
MODEL 8
REMARK VINA RESULT:      -7.4      2.506      4.359
REMARK  4 active torsions:
REMARK  status: ('A' for Active; 'I' for Inactive)
REMARK    1  A    between atoms: C_6  and  N_7 
REMARK       I    between atoms: N_7  and  C_8 
REMARK    2  A    between atoms: C_8  and  C_9 
REMARK    3  A    between atoms: C_10  and  C_11 
REMARK    4  A    between atoms: C_12  and  O_13 
ROOT
HETATM    1  C   UNL     1      42.196 -15.142   1.418  1.00  0.00     0.063 C 
HETATM    2  C   UNL     1      42.134 -13.816   2.168  1.00  0.00     0.205 C 
HETATM    3  N   UNL     1      41.368 -12.825   1.398  1.00  0.00    -0.084 N 
HETATM    4  C   UNL     1      40.626 -13.126   0.285  1.00  0.00     0.725 A 
HETATM    5  N   UNL     1      40.605 -14.393  -0.175  1.00  0.00    -0.192 N 
HETATM    6  N   UNL     1      41.363 -11.496   1.640  1.00  0.00    -0.149 NA
HETATM    7  C   UNL     1      40.532 -11.074   0.681  1.00  0.00     0.275 A 
HETATM    8  N   UNL     1      40.063 -12.038  -0.173  1.00  0.00    -0.054 NA
HETATM    9  C   UNL     1      41.430 -15.393   0.328  1.00  0.00     0.037 C 
HETATM   10  C   UNL     1      41.394 -16.709  -0.405  1.00  0.00     0.070 C 
HETATM   11  H   UNL     1      40.082 -14.591  -1.023  1.00  0.00     0.184 HD
ENDROOT
BRANCH   1  12
HETATM   12  C   UNL     1      43.196 -16.114   1.926  1.00  0.00     0.256 C 
HETATM   13  N   UNL     1      42.591 -17.193   2.541  1.00  0.00    -0.323 N 
HETATM   14  H   UNL     1      41.583 -17.168   2.602  1.00  0.00     0.169 HD
HETATM   15  O   UNL     1      44.389 -15.901   1.774  1.00  0.00    -0.267 OA
BRANCH  13  16
HETATM   16  C   UNL     1      43.216 -18.331   3.104  1.00  0.00     0.041 A 
HETATM   17  C   UNL     1      43.337 -18.418   4.509  1.00  0.00    -0.035 A 
HETATM   18  C   UNL     1      43.933 -19.556   5.083  1.00  0.00     0.015 A 
HETATM   19  C   UNL     1      42.852 -17.329   5.429  1.00  0.00     0.050 C 
HETATM   20  C   UNL     1      44.421 -20.599   4.290  1.00  0.00    -0.061 A 
HETATM   21  C   UNL     1      45.015 -21.825   4.918  1.00  0.00     0.048 C 
HETATM   22  C   UNL     1      44.290 -20.508   2.905  1.00  0.00     0.009 A 
HETATM   23  C   UNL     1      43.700 -19.383   2.319  1.00  0.00     0.030 A 
ENDBRANCH  13  16
ENDBRANCH   1  12
BRANCH   2  24
HETATM   24  C   UNL     1      41.543 -13.935   3.571  1.00  0.00     0.005 A 
HETATM   25  C   UNL     1      42.355 -13.779   4.712  1.00  0.00     0.076 A 
HETATM   26  C   UNL     1      41.788 -13.896   5.986  1.00  0.00     0.037 A 
HETATM   27  C   UNL     1      40.423 -14.154   6.137  1.00  0.00     0.003 A 
HETATM   28  C   UNL     1      39.613 -14.300   5.017  1.00  0.00     0.001 A 
HETATM   29  C   UNL     1      40.166 -14.191   3.744  1.00  0.00     0.012 A 
BRANCH  25  30
HETATM   30  O   UNL     1      43.683 -13.534   4.478  1.00  0.00    -0.355 OA
HETATM   31  C   UNL     1      44.605 -13.928   5.486  1.00  0.00     0.210 C 
ENDBRANCH  25  30
ENDBRANCH   2  24
TORSDOF 4
ENDMDL
MODEL 9
REMARK VINA RESULT:      -7.4      2.350      7.244
REMARK  4 active torsions:
REMARK  status: ('A' for Active; 'I' for Inactive)
REMARK    1  A    between atoms: C_6  and  N_7 
REMARK       I    between atoms: N_7  and  C_8 
REMARK    2  A    between atoms: C_8  and  C_9 
REMARK    3  A    between atoms: C_10  and  C_11 
REMARK    4  A    between atoms: C_12  and  O_13 
ROOT
HETATM    1  C   UNL     1      41.189 -15.935   1.806  1.00  0.00     0.063 C 
HETATM    2  C   UNL     1      41.769 -16.676   3.006  1.00  0.00     0.205 C 
HETATM    3  N   UNL     1      42.698 -17.725   2.562  1.00  0.00    -0.084 N 
HETATM    4  C   UNL     1      43.149 -17.856   1.274  1.00  0.00     0.725 A 
HETATM    5  N   UNL     1      42.704 -17.005   0.327  1.00  0.00    -0.192 N 
HETATM    6  N   UNL     1      43.157 -18.728   3.341  1.00  0.00    -0.149 NA
HETATM    7  C   UNL     1      43.941 -19.376   2.473  1.00  0.00     0.275 A 
HETATM    8  N   UNL     1      43.961 -18.878   1.196  1.00  0.00    -0.054 NA
HETATM    9  C   UNL     1      41.681 -16.091   0.552  1.00  0.00     0.037 C 
HETATM   10  C   UNL     1      41.199 -15.329  -0.655  1.00  0.00     0.070 C 
HETATM   11  H   UNL     1      43.018 -17.140  -0.630  1.00  0.00     0.184 HD
ENDROOT
BRANCH   1  12
HETATM   12  C   UNL     1      40.011 -15.079   2.095  1.00  0.00     0.256 C 
HETATM   13  N   UNL     1      40.384 -13.786   2.405  1.00  0.00    -0.323 N 
HETATM   14  H   UNL     1      41.377 -13.600   2.435  1.00  0.00     0.169 HD
HETATM   15  O   UNL     1      38.885 -15.550   2.042  1.00  0.00    -0.267 OA
BRANCH  13  16
HETATM   16  C   UNL     1      39.540 -12.687   2.693  1.00  0.00     0.041 A 
HETATM   17  C   UNL     1      39.434 -12.241   4.030  1.00  0.00    -0.035 A 
HETATM   18  C   UNL     1      38.620 -11.132   4.327  1.00  0.00     0.015 A 
HETATM   19  C   UNL     1      40.163 -12.912   5.164  1.00  0.00     0.050 C 
HETATM   20  C   UNL     1      37.900 -10.471   3.327  1.00  0.00    -0.061 A 
HETATM   21  C   UNL     1      37.070  -9.265   3.651  1.00  0.00     0.048 C 
HETATM   22  C   UNL     1      38.018 -10.914   2.010  1.00  0.00     0.009 A 
HETATM   23  C   UNL     1      38.824 -12.014   1.699  1.00  0.00     0.030 A 
ENDBRANCH  13  16
ENDBRANCH   1  12
BRANCH   2  24
HETATM   24  C   UNL     1      42.476 -15.762   4.004  1.00  0.00     0.005 A 
HETATM   25  C   UNL     1      42.353 -15.975   5.391  1.00  0.00     0.076 A 
HETATM   26  C   UNL     1      43.010 -15.121   6.285  1.00  0.00     0.037 A 
HETATM   27  C   UNL     1      43.795 -14.066   5.813  1.00  0.00     0.003 A 
HETATM   28  C   UNL     1      43.929 -13.853   4.446  1.00  0.00     0.001 A 
HETATM   29  C   UNL     1      43.276 -14.693   3.547  1.00  0.00     0.012 A 
BRANCH  25  30
HETATM   30  O   UNL     1      41.562 -17.028   5.771  1.00  0.00    -0.355 OA
HETATM   31  C   UNL     1      40.392 -16.725   6.522  1.00  0.00     0.210 C 
ENDBRANCH  25  30
ENDBRANCH   2  24
TORSDOF 4
ENDMDL
MODEL 10
REMARK VINA RESULT:      -7.3      2.918      5.083
REMARK  4 active torsions:
REMARK  status: ('A' for Active; 'I' for Inactive)
REMARK    1  A    between atoms: C_6  and  N_7 
REMARK       I    between atoms: N_7  and  C_8 
REMARK    2  A    between atoms: C_8  and  C_9 
REMARK    3  A    between atoms: C_10  and  C_11 
REMARK    4  A    between atoms: C_12  and  O_13 
ROOT
HETATM    1  C   UNL     1      42.040 -15.745   1.490  1.00  0.00     0.063 C 
HETATM    2  C   UNL     1      42.119 -14.226   1.371  1.00  0.00     0.205 C 
HETATM    3  N   UNL     1      41.484 -13.776   0.124  1.00  0.00    -0.084 N 
HETATM    4  C   UNL     1      40.729 -14.583  -0.689  1.00  0.00     0.725 A 
HETATM    5  N   UNL     1      40.572 -15.883  -0.368  1.00  0.00    -0.192 N 
HETATM    6  N   UNL     1      41.626 -12.545  -0.413  1.00  0.00    -0.149 NA
HETATM    7  C   UNL     1      40.864 -12.662  -1.506  1.00  0.00     0.275 A 
HETATM    8  N   UNL     1      40.302 -13.894  -1.715  1.00  0.00    -0.054 NA
HETATM    9  C   UNL     1      41.268 -16.496   0.668  1.00  0.00     0.037 C 
HETATM   10  C   UNL     1      41.093 -17.988   0.788  1.00  0.00     0.070 C 
HETATM   11  H   UNL     1      40.043 -16.476  -1.001  1.00  0.00     0.184 HD
ENDROOT
BRANCH   1  12
HETATM   12  C   UNL     1      42.914 -16.347   2.528  1.00  0.00     0.256 C 
HETATM   13  N   UNL     1      42.222 -16.593   3.697  1.00  0.00    -0.323 N 
HETATM   14  H   UNL     1      41.253 -16.306   3.714  1.00  0.00     0.169 HD
HETATM   15  O   UNL     1      44.092 -16.561   2.287  1.00  0.00    -0.267 OA
BRANCH  13  16
HETATM   16  C   UNL     1      42.709 -17.195   4.882  1.00  0.00     0.041 A 
HETATM   17  C   UNL     1      42.185 -16.775   6.125  1.00  0.00    -0.035 A 
HETATM   18  C   UNL     1      42.641 -17.384   7.309  1.00  0.00     0.015 A 
HETATM   19  C   UNL     1      41.150 -15.688   6.238  1.00  0.00     0.050 C 
HETATM   20  C   UNL     1      43.614 -18.388   7.282  1.00  0.00    -0.061 A 
HETATM   21  C   UNL     1      44.059 -19.057   8.548  1.00  0.00     0.048 C 
HETATM   22  C   UNL     1      44.118 -18.801   6.049  1.00  0.00     0.009 A 
HETATM   23  C   UNL     1      43.675 -18.206   4.864  1.00  0.00     0.030 A 
ENDBRANCH  13  16
ENDBRANCH   1  12
BRANCH   2  24
HETATM   24  C   UNL     1      41.495 -13.488   2.553  1.00  0.00     0.005 A 
HETATM   25  C   UNL     1      42.299 -12.984   3.595  1.00  0.00     0.076 A 
HETATM   26  C   UNL     1      41.701 -12.314   4.668  1.00  0.00     0.037 A 
HETATM   27  C   UNL     1      40.317 -12.130   4.710  1.00  0.00     0.003 A 
HETATM   28  C   UNL     1      39.517 -12.615   3.683  1.00  0.00     0.001 A 
HETATM   29  C   UNL     1      40.099 -13.289   2.612  1.00  0.00     0.012 A 
BRANCH  25  30
HETATM   30  O   UNL     1      43.646 -13.211   3.480  1.00  0.00    -0.355 OA
HETATM   31  C   UNL     1      44.290 -13.867   4.566  1.00  0.00     0.210 C 
ENDBRANCH  25  30
ENDBRANCH   2  24
TORSDOF 4
ENDMDL
