MODEL 1
REMARK VINA RESULT:      -8.7      0.000      0.000
REMARK  3 active torsions:
REMARK  status: ('A' for Active; 'I' for Inactive)
REMARK    1  A    between atoms: C_2  and  C_3 
REMARK    2  A    between atoms: C_10  and  O_11 
REMARK    3  A    between atoms: C_10  and  C_12 
ROOT
HETATM    1  C   UNL     1      44.341 -19.821   3.973  1.00  0.00    -0.058 A 
HETATM    2  C   UNL     1      44.116 -18.524   4.463  1.00  0.00     0.020 A 
HETATM    3  C   UNL     1      43.936 -18.350   5.829  1.00  0.00     0.018 A 
HETATM    4  C   UNL     1      43.997 -19.445   6.692  1.00  0.00     0.045 A 
HETATM    5  N   UNL     1      43.807 -19.042   8.003  1.00  0.00    -0.323 N 
HETATM    6  C   UNL     1      43.602 -17.663   8.090  1.00  0.00     0.266 A 
HETATM    7  O   UNL     1      43.437 -17.062   9.141  1.00  0.00    -0.269 OA
HETATM    8  C   UNL     1      43.684 -17.085   6.626  1.00  0.00     0.198 A 
HETATM    9  C   UNL     1      44.221 -20.730   6.244  1.00  0.00     0.031 A 
HETATM   10  C   UNL     1      44.389 -20.913   4.868  1.00  0.00     0.009 A 
HETATM   11  H   UNL     1      43.807 -19.643   8.814  1.00  0.00     0.169 HD
ENDROOT
BRANCH   8  12
HETATM   12  O   UNL     1      44.776 -16.190   6.472  1.00  0.00    -0.371 OA
HETATM   13  H   UNL     1      45.561 -16.739   6.316  1.00  0.00     0.212 HD
ENDBRANCH   8  12
BRANCH   8  14
HETATM   14  C   UNL     1      42.363 -16.543   6.136  1.00  0.00     0.018 A 
HETATM   15  C   UNL     1      42.148 -15.612   5.054  1.00  0.00     0.002 A 
HETATM   16  C   UNL     1      40.772 -15.423   4.922  1.00  0.00     0.043 A 
HETATM   17  C   UNL     1      42.999 -14.920   4.165  1.00  0.00     0.014 A 
HETATM   18  C   UNL     1      40.207 -14.586   3.950  1.00  0.00     0.030 A 
HETATM   19  N   UNL     1      40.164 -16.182   5.889  1.00  0.00    -0.365 N 
HETATM   20  C   UNL     1      41.075 -13.917   3.083  1.00  0.00     0.002 A 
HETATM   21  C   UNL     1      42.452 -14.078   3.188  1.00  0.00     0.001 A 
HETATM   22  H   UNL     1      39.165 -16.231   6.034  1.00  0.00     0.165 HD
HETATM   23  C   UNL     1      41.100 -16.862   6.617  1.00  0.00     0.100 A 
ENDBRANCH   8  14
BRANCH   1  24
HETATM   24  C   UNL     1      44.487 -20.050   2.489  1.00  0.00     0.034 C 
HETATM   25  C   UNL     1      44.050 -21.452   2.092  1.00  0.00     0.010 C 
ENDBRANCH   1  24
TORSDOF 3
ENDMDL
MODEL 2
REMARK VINA RESULT:      -8.6      1.794      1.988
REMARK  3 active torsions:
REMARK  status: ('A' for Active; 'I' for Inactive)
REMARK    1  A    between atoms: C_2  and  C_3 
REMARK    2  A    between atoms: C_10  and  O_11 
REMARK    3  A    between atoms: C_10  and  C_12 
ROOT
HETATM    1  C   UNL     1      44.683 -21.458   4.113  1.00  0.00    -0.058 A 
HETATM    2  C   UNL     1      44.480 -20.071   4.203  1.00  0.00     0.020 A 
HETATM    3  C   UNL     1      44.089 -19.533   5.422  1.00  0.00     0.018 A 
HETATM    4  C   UNL     1      43.921 -20.359   6.534  1.00  0.00     0.045 A 
HETATM    5  N   UNL     1      43.547 -19.615   7.641  1.00  0.00    -0.323 N 
HETATM    6  C   UNL     1      43.438 -18.258   7.332  1.00  0.00     0.266 A 
HETATM    7  O   UNL     1      43.146 -17.392   8.145  1.00  0.00    -0.269 OA
HETATM    8  C   UNL     1      43.806 -18.094   5.808  1.00  0.00     0.198 A 
HETATM    9  C   UNL     1      44.116 -21.723   6.481  1.00  0.00     0.031 A 
HETATM   10  C   UNL     1      44.496 -22.272   5.252  1.00  0.00     0.009 A 
HETATM   11  H   UNL     1      43.365 -19.977   8.565  1.00  0.00     0.169 HD
ENDROOT
BRANCH   8  12
HETATM   12  O   UNL     1      44.974 -17.306   5.629  1.00  0.00    -0.371 OA
HETATM   13  H   UNL     1      44.676 -16.386   5.553  1.00  0.00     0.212 HD
ENDBRANCH   8  12
BRANCH   8  14
HETATM   14  C   UNL     1      42.631 -17.662   4.964  1.00  0.00     0.018 A 
HETATM   15  C   UNL     1      42.631 -17.369   3.551  1.00  0.00     0.002 A 
HETATM   16  C   UNL     1      41.323 -17.052   3.182  1.00  0.00     0.043 A 
HETATM   17  C   UNL     1      43.623 -17.354   2.547  1.00  0.00     0.014 A 
HETATM   18  C   UNL     1      40.959 -16.728   1.868  1.00  0.00     0.030 A 
HETATM   19  N   UNL     1      40.553 -17.125   4.315  1.00  0.00    -0.365 N 
HETATM   20  C   UNL     1      41.963 -16.724   0.896  1.00  0.00     0.002 A 
HETATM   21  C   UNL     1      43.279 -17.030   1.229  1.00  0.00     0.001 A 
HETATM   22  H   UNL     1      39.561 -16.935   4.345  1.00  0.00     0.165 HD
HETATM   23  C   UNL     1      41.318 -17.494   5.386  1.00  0.00     0.100 A 
ENDBRANCH   8  14
BRANCH   1  24
HETATM   24  C   UNL     1      45.056 -22.079   2.789  1.00  0.00     0.034 C 
HETATM   25  C   UNL     1      43.994 -21.819   1.730  1.00  0.00     0.010 C 
ENDBRANCH   1  24
TORSDOF 3
ENDMDL
MODEL 3
REMARK VINA RESULT:      -8.4      2.746      4.351
REMARK  3 active torsions:
REMARK  status: ('A' for Active; 'I' for Inactive)
REMARK    1  A    between atoms: C_2  and  C_3 
REMARK    2  A    between atoms: C_10  and  O_11 
REMARK    3  A    between atoms: C_10  and  C_12 
ROOT
HETATM    1  C   UNL     1      44.263 -19.835   3.788  1.00  0.00    -0.058 A 
HETATM    2  C   UNL     1      43.471 -18.773   4.253  1.00  0.00     0.020 A 
HETATM    3  C   UNL     1      42.589 -18.164   3.370  1.00  0.00     0.018 A 
HETATM    4  C   UNL     1      42.486 -18.617   2.054  1.00  0.00     0.045 A 
HETATM    5  N   UNL     1      41.540 -17.881   1.359  1.00  0.00    -0.323 N 
HETATM    6  C   UNL     1      40.966 -16.895   2.164  1.00  0.00     0.266 A 
HETATM    7  O   UNL     1      40.087 -16.133   1.789  1.00  0.00    -0.269 OA
HETATM    8  C   UNL     1      41.623 -17.016   3.591  1.00  0.00     0.198 A 
HETATM    9  C   UNL     1      43.245 -19.660   1.567  1.00  0.00     0.031 A 
HETATM   10  C   UNL     1      44.145 -20.268   2.448  1.00  0.00     0.009 A 
HETATM   11  H   UNL     1      41.280 -18.012   0.393  1.00  0.00     0.169 HD
ENDROOT
BRANCH   8  12
HETATM   12  O   UNL     1      40.670 -17.370   4.584  1.00  0.00    -0.371 OA
HETATM   13  H   UNL     1      39.807 -17.389   4.141  1.00  0.00     0.212 HD
ENDBRANCH   8  12
BRANCH   8  14
HETATM   14  C   UNL     1      42.474 -15.821   3.948  1.00  0.00     0.018 A 
HETATM   15  C   UNL     1      43.082 -15.530   5.224  1.00  0.00     0.002 A 
HETATM   16  C   UNL     1      43.813 -14.349   5.089  1.00  0.00     0.043 A 
HETATM   17  C   UNL     1      43.087 -16.170   6.482  1.00  0.00     0.014 A 
HETATM   18  C   UNL     1      44.546 -13.782   6.140  1.00  0.00     0.030 A 
HETATM   19  N   UNL     1      43.649 -13.917   3.797  1.00  0.00    -0.365 N 
HETATM   20  C   UNL     1      44.533 -14.440   7.372  1.00  0.00     0.002 A 
HETATM   21  C   UNL     1      43.812 -15.617   7.545  1.00  0.00     0.001 A 
HETATM   22  H   UNL     1      44.061 -13.075   3.419  1.00  0.00     0.165 HD
HETATM   23  C   UNL     1      42.858 -14.789   3.102  1.00  0.00     0.100 A 
ENDBRANCH   8  14
BRANCH   1  24
HETATM   24  C   UNL     1      45.269 -20.482   4.709  1.00  0.00     0.034 C 
HETATM   25  C   UNL     1      44.875 -21.911   5.053  1.00  0.00     0.010 C 
ENDBRANCH   1  24
TORSDOF 3
ENDMDL
MODEL 4
REMARK VINA RESULT:      -7.7      2.208      3.085
REMARK  3 active torsions:
REMARK  status: ('A' for Active; 'I' for Inactive)
REMARK    1  A    between atoms: C_2  and  C_3 
REMARK    2  A    between atoms: C_10  and  O_11 
REMARK    3  A    between atoms: C_10  and  C_12 
ROOT
HETATM    1  C   UNL     1      43.910 -19.531   2.851  1.00  0.00    -0.058 A 
HETATM    2  C   UNL     1      43.477 -18.243   2.496  1.00  0.00     0.020 A 
HETATM    3  C   UNL     1      43.302 -17.299   3.499  1.00  0.00     0.018 A 
HETATM    4  C   UNL     1      43.571 -17.627   4.828  1.00  0.00     0.045 A 
HETATM    5  N   UNL     1      43.345 -16.537   5.653  1.00  0.00    -0.323 N 
HETATM    6  C   UNL     1      42.909 -15.428   4.927  1.00  0.00     0.266 A 
HETATM    7  O   UNL     1      42.667 -14.337   5.424  1.00  0.00    -0.269 OA
HETATM    8  C   UNL     1      42.855 -15.853   3.410  1.00  0.00     0.198 A 
HETATM    9  C   UNL     1      44.001 -18.880   5.210  1.00  0.00     0.031 A 
HETATM   10  C   UNL     1      44.166 -19.839   4.206  1.00  0.00     0.009 A 
HETATM   11  H   UNL     1      43.467 -16.517   6.655  1.00  0.00     0.169 HD
ENDROOT
BRANCH   8  12
HETATM   12  O   UNL     1      43.773 -15.110   2.620  1.00  0.00    -0.371 OA
HETATM   13  H   UNL     1      44.511 -14.876   3.205  1.00  0.00     0.212 HD
ENDBRANCH   8  12
BRANCH   8  14
HETATM   14  C   UNL     1      41.449 -15.886   2.860  1.00  0.00     0.018 A 
HETATM   15  C   UNL     1      40.644 -14.761   2.452  1.00  0.00     0.002 A 
HETATM   16  C   UNL     1      39.432 -15.257   1.968  1.00  0.00     0.043 A 
HETATM   17  C   UNL     1      40.838 -13.362   2.437  1.00  0.00     0.014 A 
HETATM   18  C   UNL     1      38.414 -14.432   1.471  1.00  0.00     0.030 A 
HETATM   19  N   UNL     1      39.476 -16.623   2.092  1.00  0.00    -0.365 N 
HETATM   20  C   UNL     1      38.637 -13.053   1.469  1.00  0.00     0.002 A 
HETATM   21  C   UNL     1      39.831 -12.522   1.946  1.00  0.00     0.001 A 
HETATM   22  H   UNL     1      38.725 -17.245   1.826  1.00  0.00     0.165 HD
HETATM   23  C   UNL     1      40.676 -17.014   2.616  1.00  0.00     0.100 A 
ENDBRANCH   8  14
BRANCH   1  24
HETATM   24  C   UNL     1      44.058 -20.594   1.790  1.00  0.00     0.034 C 
HETATM   25  C   UNL     1      44.331 -21.961   2.401  1.00  0.00     0.010 C 
ENDBRANCH   1  24
TORSDOF 3
ENDMDL
MODEL 5
REMARK VINA RESULT:      -7.7      3.479      5.109
REMARK  3 active torsions:
REMARK  status: ('A' for Active; 'I' for Inactive)
REMARK    1  A    between atoms: C_2  and  C_3 
REMARK    2  A    between atoms: C_10  and  O_11 
REMARK    3  A    between atoms: C_10  and  C_12 
ROOT
HETATM    1  C   UNL     1      43.070 -18.331   4.066  1.00  0.00    -0.058 A 
HETATM    2  C   UNL     1      42.125 -17.318   3.837  1.00  0.00     0.020 A 
HETATM    3  C   UNL     1      41.934 -16.866   2.538  1.00  0.00     0.018 A 
HETATM    4  C   UNL     1      42.658 -17.427   1.485  1.00  0.00     0.045 A 
HETATM    5  N   UNL     1      42.299 -16.842   0.282  1.00  0.00    -0.323 N 
HETATM    6  C   UNL     1      41.325 -15.858   0.462  1.00  0.00     0.266 A 
HETATM    7  O   UNL     1      40.826 -15.215  -0.450  1.00  0.00    -0.269 OA
HETATM    8  C   UNL     1      40.994 -15.804   2.002  1.00  0.00     0.198 A 
HETATM    9  C   UNL     1      43.589 -18.426   1.675  1.00  0.00     0.031 A 
HETATM   10  C   UNL     1      43.795 -18.875   2.983  1.00  0.00     0.009 A 
HETATM   11  H   UNL     1      42.676 -17.072  -0.625  1.00  0.00     0.169 HD
ENDROOT
BRANCH   8  12
HETATM   12  O   UNL     1      39.647 -16.172   2.266  1.00  0.00    -0.371 OA
HETATM   13  H   UNL     1      39.092 -15.492   1.853  1.00  0.00     0.212 HD
ENDBRANCH   8  12
BRANCH   8  14
HETATM   14  C   UNL     1      41.422 -14.508   2.649  1.00  0.00     0.018 A 
HETATM   15  C   UNL     1      40.939 -13.950   3.889  1.00  0.00     0.002 A 
HETATM   16  C   UNL     1      41.638 -12.766   4.124  1.00  0.00     0.043 A 
HETATM   17  C   UNL     1      39.977 -14.349   4.842  1.00  0.00     0.014 A 
HETATM   18  C   UNL     1      41.429 -11.968   5.257  1.00  0.00     0.030 A 
HETATM   19  N   UNL     1      42.498 -12.587   3.069  1.00  0.00    -0.365 N 
HETATM   20  C   UNL     1      40.472 -12.390   6.182  1.00  0.00     0.002 A 
HETATM   21  C   UNL     1      39.753 -13.563   5.979  1.00  0.00     0.001 A 
HETATM   22  H   UNL     1      43.126 -11.801   2.970  1.00  0.00     0.165 HD
HETATM   23  C   UNL     1      42.385 -13.623   2.184  1.00  0.00     0.100 A 
ENDBRANCH   8  14
BRANCH   1  24
HETATM   24  C   UNL     1      43.338 -18.805   5.474  1.00  0.00     0.034 C 
HETATM   25  C   UNL     1      44.826 -18.798   5.793  1.00  0.00     0.010 C 
ENDBRANCH   1  24
TORSDOF 3
ENDMDL
MODEL 6
REMARK VINA RESULT:      -7.6      2.477      3.900
REMARK  3 active torsions:
REMARK  status: ('A' for Active; 'I' for Inactive)
REMARK    1  A    between atoms: C_2  and  C_3 
REMARK    2  A    between atoms: C_10  and  O_11 
REMARK    3  A    between atoms: C_10  and  C_12 
ROOT
HETATM    1  C   UNL     1      43.970 -19.681   2.966  1.00  0.00    -0.058 A 
HETATM    2  C   UNL     1      43.145 -19.180   3.985  1.00  0.00     0.020 A 
HETATM    3  C   UNL     1      42.421 -18.020   3.745  1.00  0.00     0.018 A 
HETATM    4  C   UNL     1      42.504 -17.382   2.506  1.00  0.00     0.045 A 
HETATM    5  N   UNL     1      41.692 -16.260   2.481  1.00  0.00    -0.323 N 
HETATM    6  C   UNL     1      41.028 -16.081   3.696  1.00  0.00     0.266 A 
HETATM    7  O   UNL     1      40.235 -15.178   3.916  1.00  0.00    -0.269 OA
HETATM    8  C   UNL     1      41.461 -17.264   4.644  1.00  0.00     0.198 A 
HETATM    9  C   UNL     1      43.301 -17.850   1.483  1.00  0.00     0.031 A 
HETATM   10  C   UNL     1      44.043 -19.011   1.725  1.00  0.00     0.009 A 
HETATM   11  H   UNL     1      41.575 -15.630   1.701  1.00  0.00     0.169 HD
ENDROOT
BRANCH   8  12
HETATM   12  O   UNL     1      40.362 -18.097   4.986  1.00  0.00    -0.371 OA
HETATM   13  H   UNL     1      40.013 -18.447   4.152  1.00  0.00     0.212 HD
ENDBRANCH   8  12
BRANCH   8  14
HETATM   14  C   UNL     1      42.279 -16.800   5.825  1.00  0.00     0.018 A 
HETATM   15  C   UNL     1      43.173 -15.668   5.877  1.00  0.00     0.002 A 
HETATM   16  C   UNL     1      43.682 -15.588   7.174  1.00  0.00     0.043 A 
HETATM   17  C   UNL     1      43.590 -14.696   4.943  1.00  0.00     0.014 A 
HETATM   18  C   UNL     1      44.577 -14.589   7.582  1.00  0.00     0.030 A 
HETATM   19  N   UNL     1      43.146 -16.632   7.886  1.00  0.00    -0.365 N 
HETATM   20  C   UNL     1      44.968 -13.640   6.634  1.00  0.00     0.002 A 
HETATM   21  C   UNL     1      44.485 -13.692   5.331  1.00  0.00     0.001 A 
HETATM   22  H   UNL     1      43.348 -16.825   8.857  1.00  0.00     0.165 HD
HETATM   23  C   UNL     1      42.302 -17.359   7.096  1.00  0.00     0.100 A 
ENDBRANCH   8  14
BRANCH   1  24
HETATM   24  C   UNL     1      44.811 -20.910   3.215  1.00  0.00     0.034 C 
HETATM   25  C   UNL     1      44.810 -21.300   4.686  1.00  0.00     0.010 C 
ENDBRANCH   1  24
TORSDOF 3
ENDMDL
MODEL 7
REMARK VINA RESULT:      -7.6      2.031      2.375
REMARK  3 active torsions:
REMARK  status: ('A' for Active; 'I' for Inactive)
REMARK    1  A    between atoms: C_2  and  C_3 
REMARK    2  A    between atoms: C_10  and  O_11 
REMARK    3  A    between atoms: C_10  and  C_12 
ROOT
HETATM    1  C   UNL     1      43.365 -18.449   3.473  1.00  0.00    -0.058 A 
HETATM    2  C   UNL     1      43.128 -17.096   3.765  1.00  0.00     0.020 A 
HETATM    3  C   UNL     1      43.565 -16.591   4.982  1.00  0.00     0.018 A 
HETATM    4  C   UNL     1      44.243 -17.414   5.882  1.00  0.00     0.045 A 
HETATM    5  N   UNL     1      44.600 -16.704   7.017  1.00  0.00    -0.323 N 
HETATM    6  C   UNL     1      44.178 -15.375   6.943  1.00  0.00     0.266 A 
HETATM    7  O   UNL     1      44.395 -14.539   7.808  1.00  0.00    -0.269 OA
HETATM    8  C   UNL     1      43.454 -15.191   5.555  1.00  0.00     0.198 A 
HETATM    9  C   UNL     1      44.496 -18.745   5.625  1.00  0.00     0.031 A 
HETATM   10  C   UNL     1      44.044 -19.262   4.406  1.00  0.00     0.009 A 
HETATM   11  H   UNL     1      45.098 -17.072   7.814  1.00  0.00     0.169 HD
ENDROOT
BRANCH   8  12
HETATM   12  O   UNL     1      44.140 -14.270   4.719  1.00  0.00    -0.371 OA
HETATM   13  H   UNL     1      43.714 -13.409   4.852  1.00  0.00     0.212 HD
ENDBRANCH   8  12
BRANCH   8  14
HETATM   14  C   UNL     1      41.976 -14.918   5.697  1.00  0.00     0.018 A 
HETATM   15  C   UNL     1      41.310 -13.641   5.602  1.00  0.00     0.002 A 
HETATM   16  C   UNL     1      39.941 -13.863   5.754  1.00  0.00     0.043 A 
HETATM   17  C   UNL     1      41.745 -12.315   5.391  1.00  0.00     0.014 A 
HETATM   18  C   UNL     1      38.991 -12.833   5.700  1.00  0.00     0.030 A 
HETATM   19  N   UNL     1      39.768 -15.209   5.954  1.00  0.00    -0.365 N 
HETATM   20  C   UNL     1      39.453 -11.532   5.487  1.00  0.00     0.002 A 
HETATM   21  C   UNL     1      40.812 -11.273   5.337  1.00  0.00     0.001 A 
HETATM   22  H   UNL     1      38.873 -15.654   6.103  1.00  0.00     0.165 HD
HETATM   23  C   UNL     1      40.972 -15.853   5.915  1.00  0.00     0.100 A 
ENDBRANCH   8  14
BRANCH   1  24
HETATM   24  C   UNL     1      42.854 -19.040   2.181  1.00  0.00     0.034 C 
HETATM   25  C   UNL     1      43.467 -20.406   1.909  1.00  0.00     0.010 C 
ENDBRANCH   1  24
TORSDOF 3
ENDMDL
MODEL 8
REMARK VINA RESULT:      -7.5      1.800      4.991
REMARK  3 active torsions:
REMARK  status: ('A' for Active; 'I' for Inactive)
REMARK    1  A    between atoms: C_2  and  C_3 
REMARK    2  A    between atoms: C_10  and  O_11 
REMARK    3  A    between atoms: C_10  and  C_12 
ROOT
HETATM    1  C   UNL     1      42.856 -14.582   3.217  1.00  0.00    -0.058 A 
HETATM    2  C   UNL     1      42.586 -15.832   3.799  1.00  0.00     0.020 A 
HETATM    3  C   UNL     1      42.862 -16.012   5.147  1.00  0.00     0.018 A 
HETATM    4  C   UNL     1      43.379 -14.962   5.906  1.00  0.00     0.045 A 
HETATM    5  N   UNL     1      43.561 -15.356   7.222  1.00  0.00    -0.323 N 
HETATM    6  C   UNL     1      43.184 -16.687   7.414  1.00  0.00     0.266 A 
HETATM    7  O   UNL     1      43.225 -17.260   8.493  1.00  0.00    -0.269 OA
HETATM    8  C   UNL     1      42.670 -17.232   6.027  1.00  0.00     0.198 A 
HETATM    9  C   UNL     1      43.652 -13.722   5.368  1.00  0.00     0.031 A 
HETATM   10  C   UNL     1      43.389 -13.539   4.007  1.00  0.00     0.009 A 
HETATM   11  H   UNL     1      43.921 -14.781   7.969  1.00  0.00     0.169 HD
ENDROOT
BRANCH   8  12
HETATM   12  O   UNL     1      41.295 -17.585   6.074  1.00  0.00    -0.371 OA
HETATM   13  H   UNL     1      40.837 -16.981   5.468  1.00  0.00     0.212 HD
ENDBRANCH   8  12
BRANCH   8  14
HETATM   14  C   UNL     1      43.566 -18.303   5.451  1.00  0.00     0.018 A 
HETATM   15  C   UNL     1      43.469 -18.914   4.148  1.00  0.00     0.002 A 
HETATM   16  C   UNL     1      44.524 -19.819   4.022  1.00  0.00     0.043 A 
HETATM   17  C   UNL     1      42.586 -18.774   3.055  1.00  0.00     0.014 A 
HETATM   18  C   UNL     1      44.742 -20.582   2.866  1.00  0.00     0.030 A 
HETATM   19  N   UNL     1      45.229 -19.786   5.199  1.00  0.00    -0.365 N 
HETATM   20  C   UNL     1      43.852 -20.418   1.802  1.00  0.00     0.002 A 
HETATM   21  C   UNL     1      42.786 -19.529   1.893  1.00  0.00     0.001 A 
HETATM   22  H   UNL     1      46.044 -20.350   5.393  1.00  0.00     0.165 HD
HETATM   23  C   UNL     1      44.673 -18.881   6.059  1.00  0.00     0.100 A 
ENDBRANCH   8  14
BRANCH   1  24
HETATM   24  C   UNL     1      42.618 -14.371   1.742  1.00  0.00     0.034 C 
HETATM   25  C   UNL     1      42.069 -15.625   1.078  1.00  0.00     0.010 C 
ENDBRANCH   1  24
TORSDOF 3
ENDMDL
MODEL 9
REMARK VINA RESULT:      -7.5      2.371      5.946
REMARK  3 active torsions:
REMARK  status: ('A' for Active; 'I' for Inactive)
REMARK    1  A    between atoms: C_2  and  C_3 
REMARK    2  A    between atoms: C_10  and  O_11 
REMARK    3  A    between atoms: C_10  and  C_12 
ROOT
HETATM    1  C   UNL     1      39.582 -14.158   2.004  1.00  0.00    -0.058 A 
HETATM    2  C   UNL     1      40.038 -14.734   3.200  1.00  0.00     0.020 A 
HETATM    3  C   UNL     1      41.280 -14.354   3.692  1.00  0.00     0.018 A 
HETATM    4  C   UNL     1      42.044 -13.404   3.013  1.00  0.00     0.045 A 
HETATM    5  N   UNL     1      43.231 -13.164   3.685  1.00  0.00    -0.323 N 
HETATM    6  C   UNL     1      43.331 -13.941   4.841  1.00  0.00     0.266 A 
HETATM    7  O   UNL     1      44.273 -13.893   5.619  1.00  0.00    -0.269 OA
HETATM    8  C   UNL     1      42.013 -14.800   4.942  1.00  0.00     0.198 A 
HETATM    9  C   UNL     1      41.624 -12.815   1.839  1.00  0.00     0.031 A 
HETATM   10  C   UNL     1      40.380 -13.205   1.332  1.00  0.00     0.009 A 
HETATM   11  H   UNL     1      43.954 -12.520   3.401  1.00  0.00     0.169 HD
ENDROOT
BRANCH   8  12
HETATM   12  O   UNL     1      41.252 -14.466   6.094  1.00  0.00    -0.371 OA
HETATM   13  H   UNL     1      41.841 -14.584   6.856  1.00  0.00     0.212 HD
ENDBRANCH   8  12
BRANCH   8  14
HETATM   14  C   UNL     1      42.262 -16.279   4.770  1.00  0.00     0.018 A 
HETATM   15  C   UNL     1      42.924 -16.931   3.666  1.00  0.00     0.002 A 
HETATM   16  C   UNL     1      42.971 -18.298   3.944  1.00  0.00     0.043 A 
HETATM   17  C   UNL     1      43.499 -16.483   2.457  1.00  0.00     0.014 A 
HETATM   18  C   UNL     1      43.563 -19.232   3.083  1.00  0.00     0.030 A 
HETATM   19  N   UNL     1      42.349 -18.487   5.153  1.00  0.00    -0.365 N 
HETATM   20  C   UNL     1      44.125 -18.757   1.896  1.00  0.00     0.002 A 
HETATM   21  C   UNL     1      44.093 -17.402   1.583  1.00  0.00     0.001 A 
HETATM   22  H   UNL     1      42.228 -19.385   5.598  1.00  0.00     0.165 HD
HETATM   23  C   UNL     1      41.927 -17.290   5.661  1.00  0.00     0.100 A 
ENDBRANCH   8  14
BRANCH   1  24
HETATM   24  C   UNL     1      38.261 -14.590   1.416  1.00  0.00     0.034 C 
HETATM   25  C   UNL     1      37.525 -13.424   0.772  1.00  0.00     0.010 C 
ENDBRANCH   1  24
TORSDOF 3
ENDMDL
MODEL 10
REMARK VINA RESULT:      -7.3      2.998      4.438
REMARK  3 active torsions:
REMARK  status: ('A' for Active; 'I' for Inactive)
REMARK    1  A    between atoms: C_2  and  C_3 
REMARK    2  A    between atoms: C_10  and  O_11 
REMARK    3  A    between atoms: C_10  and  C_12 
ROOT
HETATM    1  C   UNL     1      43.058 -17.884   3.034  1.00  0.00    -0.058 A 
HETATM    2  C   UNL     1      42.646 -16.568   2.765  1.00  0.00     0.020 A 
HETATM    3  C   UNL     1      41.744 -15.963   3.630  1.00  0.00     0.018 A 
HETATM    4  C   UNL     1      41.276 -16.649   4.751  1.00  0.00     0.045 A 
HETATM    5  N   UNL     1      40.404 -15.855   5.479  1.00  0.00    -0.323 N 
HETATM    6  C   UNL     1      40.237 -14.602   4.884  1.00  0.00     0.266 A 
HETATM    7  O   UNL     1      39.537 -13.713   5.348  1.00  0.00    -0.269 OA
HETATM    8  C   UNL     1      41.139 -14.573   3.592  1.00  0.00     0.198 A 
HETATM    9  C   UNL     1      41.663 -17.938   5.047  1.00  0.00     0.031 A 
HETATM   10  C   UNL     1      42.560 -18.558   4.171  1.00  0.00     0.009 A 
HETATM   11  H   UNL     1      39.932 -16.119   6.330  1.00  0.00     0.169 HD
ENDROOT
BRANCH   8  12
HETATM   12  O   UNL     1      42.165 -13.595   3.686  1.00  0.00    -0.371 OA
HETATM   13  H   UNL     1      42.366 -13.321   2.777  1.00  0.00     0.212 HD
ENDBRANCH   8  12
BRANCH   8  14
HETATM   14  C   UNL     1      40.333 -14.507   2.317  1.00  0.00     0.018 A 
HETATM   15  C   UNL     1      40.743 -13.943   1.053  1.00  0.00     0.002 A 
HETATM   16  C   UNL     1      39.704 -14.138   0.143  1.00  0.00     0.043 A 
HETATM   17  C   UNL     1      41.909 -13.293   0.595  1.00  0.00     0.014 A 
HETATM   18  C   UNL     1      39.772 -13.722  -1.194  1.00  0.00     0.030 A 
HETATM   19  N   UNL     1      38.689 -14.772   0.815  1.00  0.00    -0.365 N 
HETATM   20  C   UNL     1      40.941 -13.084  -1.618  1.00  0.00     0.002 A 
HETATM   21  C   UNL     1      41.996 -12.869  -0.737  1.00  0.00     0.001 A 
HETATM   22  H   UNL     1      37.804 -15.031   0.402  1.00  0.00     0.165 HD
HETATM   23  C   UNL     1      39.054 -15.006   2.112  1.00  0.00     0.100 A 
ENDBRANCH   8  14
BRANCH   1  24
HETATM   24  C   UNL     1      43.995 -18.588   2.084  1.00  0.00     0.034 C 
HETATM   25  C   UNL     1      43.720 -20.083   2.030  1.00  0.00     0.010 C 
ENDBRANCH   1  24
TORSDOF 3
ENDMDL
