MODEL 1
REMARK VINA RESULT:      -8.8      0.000      0.000
REMARK  6 active torsions:
REMARK  status: ('A' for Active; 'I' for Inactive)
REMARK    1  A    between atoms: O_2  and  C_3 
REMARK    2  A    between atoms: C_5  and  C_6 
REMARK    3  A    between atoms: C_12  and  C_13 
REMARK       I    between atoms: C_13  and  N_14 
REMARK    4  A    between atoms: N_14  and  C_15 
REMARK    5  A    between atoms: C_15  and  C_16 
REMARK    6  A    between atoms: C_23  and  C_24 
ROOT
HETATM    1  C   UNL     1      40.985 -17.051   4.346  1.00  0.00     0.118 C 
HETATM    2  N   UNL     1      40.218 -16.241   3.397  1.00  0.00    -0.365 N 
HETATM    3  C   UNL     1      40.391 -14.899   3.280  1.00  0.00     0.138 A 
HETATM    4  N   UNL     1      41.230 -14.222   4.134  1.00  0.00    -0.240 N 
HETATM    5  N   UNL     1      41.200 -12.889   3.986  1.00  0.00    -0.181 NA
HETATM    6  C   UNL     1      40.382 -12.718   2.945  1.00  0.00     0.160 A 
HETATM    7  C   UNL     1      39.853 -13.936   2.445  1.00  0.00     0.096 A 
HETATM    8  C   UNL     1      41.976 -14.832   5.217  1.00  0.00     0.221 C 
HETATM    9  C   UNL     1      41.373 -16.202   5.570  1.00  0.00     0.066 C 
HETATM   10  H   UNL     1      39.416 -16.717   2.987  1.00  0.00     0.161 HD
ENDROOT
BRANCH   7  11
HETATM   11  C   UNL     1      38.941 -14.057   1.324  1.00  0.00     0.257 C 
HETATM   12  N   UNL     1      39.218 -13.244   0.250  1.00  0.00    -0.352 N 
HETATM   13  H   UNL     1      39.862 -12.480   0.399  1.00  0.00     0.163 HD
HETATM   14  O   UNL     1      37.975 -14.814   1.355  1.00  0.00    -0.267 OA
BRANCH  12  15
HETATM   15  C   UNL     1      38.334 -13.181  -0.890  1.00  0.00     0.161 C 
BRANCH  15  16
HETATM   16  C   UNL     1      38.760 -14.131  -1.981  1.00  0.00    -0.041 A 
HETATM   17  C   UNL     1      40.074 -14.620  -2.033  1.00  0.00     0.009 A 
HETATM   18  C   UNL     1      40.451 -15.546  -3.007  1.00  0.00     0.001 A 
HETATM   19  C   UNL     1      39.516 -16.004  -3.932  1.00  0.00     0.000 A 
HETATM   20  C   UNL     1      38.204 -15.535  -3.885  1.00  0.00     0.001 A 
HETATM   21  C   UNL     1      37.827 -14.606  -2.914  1.00  0.00     0.009 A 
ENDBRANCH  15  16
ENDBRANCH  12  15
ENDBRANCH   7  11
BRANCH   1  22
HETATM   22  C   UNL     1      42.133 -17.792   3.680  1.00  0.00    -0.033 A 
HETATM   23  C   UNL     1      43.039 -18.522   4.472  1.00  0.00     0.046 A 
HETATM   24  C   UNL     1      44.116 -19.216   3.908  1.00  0.00     0.068 A 
HETATM   25  C   UNL     1      44.288 -19.204   2.526  1.00  0.00     0.037 A 
HETATM   26  C   UNL     1      43.389 -18.507   1.720  1.00  0.00     0.003 A 
HETATM   27  C   UNL     1      42.321 -17.813   2.290  1.00  0.00     0.009 A 
BRANCH  24  28
HETATM   28  O   UNL     1      44.915 -19.860   4.812  1.00  0.00    -0.356 OA
HETATM   29  C   UNL     1      44.779 -21.274   4.893  1.00  0.00     0.210 C 
ENDBRANCH  24  28
ENDBRANCH   1  22
BRANCH   8  30
HETATM   30  C   UNL     1      43.451 -14.864   4.883  1.00  0.00     0.409 C 
HETATM   31  F   UNL     1      43.714 -15.078   3.580  1.00  0.00    -0.169 F 
HETATM   32  F   UNL     1      44.074 -13.716   5.235  1.00  0.00    -0.169 F 
HETATM   33  F   UNL     1      44.064 -15.854   5.583  1.00  0.00    -0.169 F 
ENDBRANCH   8  30
TORSDOF 6
ENDMDL
MODEL 2
REMARK VINA RESULT:      -8.5      1.128      2.076
REMARK  6 active torsions:
REMARK  status: ('A' for Active; 'I' for Inactive)
REMARK    1  A    between atoms: O_2  and  C_3 
REMARK    2  A    between atoms: C_5  and  C_6 
REMARK    3  A    between atoms: C_12  and  C_13 
REMARK       I    between atoms: C_13  and  N_14 
REMARK    4  A    between atoms: N_14  and  C_15 
REMARK    5  A    between atoms: C_15  and  C_16 
REMARK    6  A    between atoms: C_23  and  C_24 
ROOT
HETATM    1  C   UNL     1      41.173 -17.298   5.219  1.00  0.00     0.118 C 
HETATM    2  N   UNL     1      40.474 -16.512   4.201  1.00  0.00    -0.365 N 
HETATM    3  C   UNL     1      40.702 -15.184   4.023  1.00  0.00     0.138 A 
HETATM    4  N   UNL     1      41.535 -14.495   4.872  1.00  0.00    -0.240 N 
HETATM    5  N   UNL     1      41.561 -13.171   4.656  1.00  0.00    -0.181 NA
HETATM    6  C   UNL     1      40.788 -13.025   3.576  1.00  0.00     0.160 A 
HETATM    7  C   UNL     1      40.232 -14.248   3.119  1.00  0.00     0.096 A 
HETATM    8  C   UNL     1      42.216 -15.074   6.012  1.00  0.00     0.221 C 
HETATM    9  C   UNL     1      41.549 -16.400   6.412  1.00  0.00     0.066 C 
HETATM   10  H   UNL     1      39.669 -16.979   3.785  1.00  0.00     0.161 HD
ENDROOT
BRANCH   7  11
HETATM   11  C   UNL     1      39.357 -14.395   1.971  1.00  0.00     0.257 C 
HETATM   12  N   UNL     1      39.440 -13.389   1.037  1.00  0.00    -0.352 N 
HETATM   13  H   UNL     1      39.904 -12.536   1.312  1.00  0.00     0.163 HD
HETATM   14  O   UNL     1      38.579 -15.339   1.868  1.00  0.00    -0.267 OA
BRANCH  12  15
HETATM   15  C   UNL     1      38.553 -13.350  -0.102  1.00  0.00     0.161 C 
BRANCH  15  16
HETATM   16  C   UNL     1      39.116 -14.108  -1.277  1.00  0.00    -0.041 A 
HETATM   17  C   UNL     1      38.377 -14.248  -2.461  1.00  0.00     0.009 A 
HETATM   18  C   UNL     1      38.924 -14.897  -3.569  1.00  0.00     0.001 A 
HETATM   19  C   UNL     1      40.220 -15.403  -3.511  1.00  0.00     0.000 A 
HETATM   20  C   UNL     1      40.970 -15.262  -2.344  1.00  0.00     0.001 A 
HETATM   21  C   UNL     1      40.423 -14.616  -1.234  1.00  0.00     0.009 A 
ENDBRANCH  15  16
ENDBRANCH  12  15
ENDBRANCH   7  11
BRANCH   1  22
HETATM   22  C   UNL     1      42.316 -18.114   4.637  1.00  0.00    -0.033 A 
HETATM   23  C   UNL     1      42.577 -18.056   3.255  1.00  0.00     0.046 A 
HETATM   24  C   UNL     1      43.613 -18.793   2.670  1.00  0.00     0.068 A 
HETATM   25  C   UNL     1      44.423 -19.592   3.474  1.00  0.00     0.037 A 
HETATM   26  C   UNL     1      44.196 -19.648   4.849  1.00  0.00     0.003 A 
HETATM   27  C   UNL     1      43.158 -18.914   5.425  1.00  0.00     0.009 A 
BRANCH  24  28
HETATM   28  O   UNL     1      43.726 -18.642   1.315  1.00  0.00    -0.356 OA
HETATM   29  C   UNL     1      43.318 -17.391   0.774  1.00  0.00     0.210 C 
ENDBRANCH  24  28
ENDBRANCH   1  22
BRANCH   8  30
HETATM   30  C   UNL     1      43.701 -15.177   5.738  1.00  0.00     0.409 C 
HETATM   31  F   UNL     1      44.393 -14.063   6.041  1.00  0.00    -0.169 F 
HETATM   32  F   UNL     1      44.270 -16.200   6.415  1.00  0.00    -0.169 F 
HETATM   33  F   UNL     1      43.912 -15.435   4.420  1.00  0.00    -0.169 F 
ENDBRANCH   8  30
TORSDOF 6
ENDMDL
MODEL 3
REMARK VINA RESULT:      -8.4      3.951      7.817
REMARK  6 active torsions:
REMARK  status: ('A' for Active; 'I' for Inactive)
REMARK    1  A    between atoms: O_2  and  C_3 
REMARK    2  A    between atoms: C_5  and  C_6 
REMARK    3  A    between atoms: C_12  and  C_13 
REMARK       I    between atoms: C_13  and  N_14 
REMARK    4  A    between atoms: N_14  and  C_15 
REMARK    5  A    between atoms: C_15  and  C_16 
REMARK    6  A    between atoms: C_23  and  C_24 
ROOT
HETATM    1  C   UNL     1      43.737 -15.443   2.418  1.00  0.00     0.118 C 
HETATM    2  N   UNL     1      43.905 -14.858   3.750  1.00  0.00    -0.365 N 
HETATM    3  C   UNL     1      42.863 -14.349   4.457  1.00  0.00     0.138 A 
HETATM    4  N   UNL     1      41.609 -14.268   3.901  1.00  0.00    -0.240 N 
HETATM    5  N   UNL     1      40.712 -13.626   4.665  1.00  0.00    -0.181 NA
HETATM    6  C   UNL     1      41.396 -13.369   5.782  1.00  0.00     0.160 A 
HETATM    7  C   UNL     1      42.744 -13.808   5.725  1.00  0.00     0.096 A 
HETATM    8  C   UNL     1      41.275 -14.679   2.552  1.00  0.00     0.221 C 
HETATM    9  C   UNL     1      42.549 -14.779   1.697  1.00  0.00     0.066 C 
HETATM   10  H   UNL     1      44.873 -14.676   4.012  1.00  0.00     0.161 HD
ENDROOT
BRANCH   7  11
HETATM   11  C   UNL     1      43.720 -13.664   6.789  1.00  0.00     0.257 C 
HETATM   12  N   UNL     1      43.492 -12.623   7.659  1.00  0.00    -0.352 N 
HETATM   13  H   UNL     1      42.829 -11.916   7.375  1.00  0.00     0.163 HD
HETATM   14  O   UNL     1      44.694 -14.406   6.878  1.00  0.00    -0.267 OA
BRANCH  12  15
HETATM   15  C   UNL     1      44.438 -12.296   8.699  1.00  0.00     0.161 C 
BRANCH  15  16
HETATM   16  C   UNL     1      43.845 -11.357   9.720  1.00  0.00    -0.041 A 
HETATM   17  C   UNL     1      44.518 -11.085  10.920  1.00  0.00     0.009 A 
HETATM   18  C   UNL     1      43.997 -10.170  11.836  1.00  0.00     0.001 A 
HETATM   19  C   UNL     1      42.805  -9.507  11.558  1.00  0.00     0.000 A 
HETATM   20  C   UNL     1      42.132  -9.758  10.364  1.00  0.00     0.001 A 
HETATM   21  C   UNL     1      42.649 -10.677   9.448  1.00  0.00     0.009 A 
ENDBRANCH  15  16
ENDBRANCH  12  15
ENDBRANCH   7  11
BRANCH   1  22
HETATM   22  C   UNL     1      43.709 -16.962   2.452  1.00  0.00    -0.033 A 
HETATM   23  C   UNL     1      43.817 -17.631   3.685  1.00  0.00     0.046 A 
HETATM   24  C   UNL     1      43.802 -19.028   3.768  1.00  0.00     0.068 A 
HETATM   25  C   UNL     1      43.657 -19.781   2.605  1.00  0.00     0.037 A 
HETATM   26  C   UNL     1      43.526 -19.139   1.374  1.00  0.00     0.003 A 
HETATM   27  C   UNL     1      43.547 -17.746   1.298  1.00  0.00     0.009 A 
BRANCH  24  28
HETATM   28  O   UNL     1      43.934 -19.526   5.036  1.00  0.00    -0.356 OA
HETATM   29  C   UNL     1      44.606 -20.773   5.167  1.00  0.00     0.210 C 
ENDBRANCH  24  28
ENDBRANCH   1  22
BRANCH   8  30
HETATM   30  C   UNL     1      40.439 -15.939   2.580  1.00  0.00     0.409 C 
HETATM   31  F   UNL     1      39.111 -15.716   2.610  1.00  0.00    -0.169 F 
HETATM   32  F   UNL     1      40.688 -16.736   1.515  1.00  0.00    -0.169 F 
HETATM   33  F   UNL     1      40.746 -16.676   3.680  1.00  0.00    -0.169 F 
ENDBRANCH   8  30
TORSDOF 6
ENDMDL
MODEL 4
REMARK VINA RESULT:      -8.3      1.624      2.443
REMARK  6 active torsions:
REMARK  status: ('A' for Active; 'I' for Inactive)
REMARK    1  A    between atoms: O_2  and  C_3 
REMARK    2  A    between atoms: C_5  and  C_6 
REMARK    3  A    between atoms: C_12  and  C_13 
REMARK       I    between atoms: C_13  and  N_14 
REMARK    4  A    between atoms: N_14  and  C_15 
REMARK    5  A    between atoms: C_15  and  C_16 
REMARK    6  A    between atoms: C_23  and  C_24 
ROOT
HETATM    1  C   UNL     1      41.131 -17.165   4.669  1.00  0.00     0.118 C 
HETATM    2  N   UNL     1      41.153 -16.833   3.243  1.00  0.00    -0.365 N 
HETATM    3  C   UNL     1      41.575 -15.626   2.784  1.00  0.00     0.138 A 
HETATM    4  N   UNL     1      41.904 -14.618   3.657  1.00  0.00    -0.240 N 
HETATM    5  N   UNL     1      42.175 -13.446   3.063  1.00  0.00    -0.181 NA
HETATM    6  C   UNL     1      42.102 -13.743   1.763  1.00  0.00     0.160 A 
HETATM    7  C   UNL     1      41.746 -15.094   1.518  1.00  0.00     0.096 A 
HETATM    8  C   UNL     1      41.824 -14.715   5.101  1.00  0.00     0.221 C 
HETATM    9  C   UNL     1      40.915 -15.889   5.504  1.00  0.00     0.066 C 
HETATM   10  H   UNL     1      40.643 -17.487   2.650  1.00  0.00     0.161 HD
ENDROOT
BRANCH   7  11
HETATM   11  C   UNL     1      41.593 -15.698   0.208  1.00  0.00     0.257 C 
HETATM   12  N   UNL     1      41.683 -14.828  -0.854  1.00  0.00    -0.352 N 
HETATM   13  H   UNL     1      41.611 -13.841  -0.654  1.00  0.00     0.163 HD
HETATM   14  O   UNL     1      41.369 -16.897   0.071  1.00  0.00    -0.267 OA
BRANCH  12  15
HETATM   15  C   UNL     1      41.444 -15.272  -2.208  1.00  0.00     0.161 C 
BRANCH  15  16
HETATM   16  C   UNL     1      40.010 -15.057  -2.622  1.00  0.00    -0.041 A 
HETATM   17  C   UNL     1      39.219 -14.085  -1.990  1.00  0.00     0.009 A 
HETATM   18  C   UNL     1      37.912 -13.845  -2.416  1.00  0.00     0.001 A 
HETATM   19  C   UNL     1      37.383 -14.564  -3.485  1.00  0.00     0.000 A 
HETATM   20  C   UNL     1      38.162 -15.525  -4.129  1.00  0.00     0.001 A 
HETATM   21  C   UNL     1      39.469 -15.769  -3.702  1.00  0.00     0.009 A 
ENDBRANCH  15  16
ENDBRANCH  12  15
ENDBRANCH   7  11
BRANCH   1  22
HETATM   22  C   UNL     1      42.319 -18.017   5.085  1.00  0.00    -0.033 A 
HETATM   23  C   UNL     1      43.084 -18.669   4.100  1.00  0.00     0.046 A 
HETATM   24  C   UNL     1      44.183 -19.470   4.431  1.00  0.00     0.068 A 
HETATM   25  C   UNL     1      44.546 -19.614   5.768  1.00  0.00     0.037 A 
HETATM   26  C   UNL     1      43.816 -18.959   6.760  1.00  0.00     0.003 A 
HETATM   27  C   UNL     1      42.718 -18.166   6.422  1.00  0.00     0.009 A 
BRANCH  24  28
HETATM   28  O   UNL     1      44.811 -20.048   3.362  1.00  0.00    -0.356 OA
HETATM   29  C   UNL     1      43.983 -20.461   2.281  1.00  0.00     0.210 C 
ENDBRANCH  24  28
ENDBRANCH   1  22
BRANCH   8  30
HETATM   30  C   UNL     1      43.212 -14.765   5.700  1.00  0.00     0.409 C 
HETATM   31  F   UNL     1      43.256 -15.288   6.940  1.00  0.00    -0.169 F 
HETATM   32  F   UNL     1      44.069 -15.477   4.933  1.00  0.00    -0.169 F 
HETATM   33  F   UNL     1      43.730 -13.510   5.776  1.00  0.00    -0.169 F 
ENDBRANCH   8  30
TORSDOF 6
ENDMDL
MODEL 5
REMARK VINA RESULT:      -8.2      2.264      3.008
REMARK  6 active torsions:
REMARK  status: ('A' for Active; 'I' for Inactive)
REMARK    1  A    between atoms: O_2  and  C_3 
REMARK    2  A    between atoms: C_5  and  C_6 
REMARK    3  A    between atoms: C_12  and  C_13 
REMARK       I    between atoms: C_13  and  N_14 
REMARK    4  A    between atoms: N_14  and  C_15 
REMARK    5  A    between atoms: C_15  and  C_16 
REMARK    6  A    between atoms: C_23  and  C_24 
ROOT
HETATM    1  C   UNL     1      41.195 -17.136   5.028  1.00  0.00     0.118 C 
HETATM    2  N   UNL     1      41.029 -16.435   3.753  1.00  0.00    -0.365 N 
HETATM    3  C   UNL     1      41.498 -15.177   3.548  1.00  0.00     0.138 A 
HETATM    4  N   UNL     1      42.065 -14.462   4.577  1.00  0.00    -0.240 N 
HETATM    5  N   UNL     1      42.362 -13.192   4.262  1.00  0.00    -0.181 NA
HETATM    6  C   UNL     1      42.055 -13.123   2.964  1.00  0.00     0.160 A 
HETATM    7  C   UNL     1      41.524 -14.334   2.451  1.00  0.00     0.096 A 
HETATM    8  C   UNL     1      42.202 -14.940   5.938  1.00  0.00     0.221 C 
HETATM    9  C   UNL     1      41.249 -16.121   6.185  1.00  0.00     0.066 C 
HETATM   10  H   UNL     1      40.366 -16.872   3.114  1.00  0.00     0.161 HD
ENDROOT
BRANCH   7  11
HETATM   11  C   UNL     1      41.105 -14.553   1.079  1.00  0.00     0.257 C 
HETATM   12  N   UNL     1      41.912 -13.986   0.120  1.00  0.00    -0.352 N 
HETATM   13  H   UNL     1      42.575 -13.288   0.424  1.00  0.00     0.163 HD
HETATM   14  O   UNL     1      40.083 -15.175   0.807  1.00  0.00    -0.267 OA
BRANCH  12  15
HETATM   15  C   UNL     1      41.558 -14.031  -1.279  1.00  0.00     0.161 C 
BRANCH  15  16
HETATM   16  C   UNL     1      41.935 -12.758  -1.993  1.00  0.00    -0.041 A 
HETATM   17  C   UNL     1      42.601 -11.726  -1.314  1.00  0.00     0.009 A 
HETATM   18  C   UNL     1      43.004 -10.573  -1.991  1.00  0.00     0.001 A 
HETATM   19  C   UNL     1      42.756 -10.444  -3.355  1.00  0.00     0.000 A 
HETATM   20  C   UNL     1      42.106 -11.466  -4.044  1.00  0.00     0.001 A 
HETATM   21  C   UNL     1      41.699 -12.618  -3.368  1.00  0.00     0.009 A 
ENDBRANCH  15  16
ENDBRANCH  12  15
ENDBRANCH   7  11
BRANCH   1  22
HETATM   22  C   UNL     1      42.337 -18.139   4.993  1.00  0.00    -0.033 A 
HETATM   23  C   UNL     1      42.874 -18.535   3.754  1.00  0.00     0.046 A 
HETATM   24  C   UNL     1      43.921 -19.461   3.668  1.00  0.00     0.068 A 
HETATM   25  C   UNL     1      44.462 -19.992   4.836  1.00  0.00     0.037 A 
HETATM   26  C   UNL     1      43.960 -19.596   6.076  1.00  0.00     0.003 A 
HETATM   27  C   UNL     1      42.913 -18.677   6.154  1.00  0.00     0.009 A 
BRANCH  24  28
HETATM   28  O   UNL     1      44.319 -19.755   2.393  1.00  0.00    -0.356 OA
HETATM   29  C   UNL     1      43.834 -20.971   1.836  1.00  0.00     0.210 C 
ENDBRANCH  24  28
ENDBRANCH   1  22
BRANCH   8  30
HETATM   30  C   UNL     1      43.654 -15.232   6.246  1.00  0.00     0.409 C 
HETATM   31  F   UNL     1      43.838 -16.017   7.325  1.00  0.00    -0.169 F 
HETATM   32  F   UNL     1      44.282 -15.827   5.205  1.00  0.00    -0.169 F 
HETATM   33  F   UNL     1      44.324 -14.072   6.476  1.00  0.00    -0.169 F 
ENDBRANCH   8  30
TORSDOF 6
ENDMDL
MODEL 6
REMARK VINA RESULT:      -8.1      2.057      2.725
REMARK  6 active torsions:
REMARK  status: ('A' for Active; 'I' for Inactive)
REMARK    1  A    between atoms: O_2  and  C_3 
REMARK    2  A    between atoms: C_5  and  C_6 
REMARK    3  A    between atoms: C_12  and  C_13 
REMARK       I    between atoms: C_13  and  N_14 
REMARK    4  A    between atoms: N_14  and  C_15 
REMARK    5  A    between atoms: C_15  and  C_16 
REMARK    6  A    between atoms: C_23  and  C_24 
ROOT
HETATM    1  C   UNL     1      40.822 -16.736   2.702  1.00  0.00     0.118 C 
HETATM    2  N   UNL     1      40.612 -16.302   1.319  1.00  0.00    -0.365 N 
HETATM    3  C   UNL     1      41.077 -15.115   0.850  1.00  0.00     0.138 A 
HETATM    4  N   UNL     1      41.681 -14.214   1.695  1.00  0.00    -0.240 N 
HETATM    5  N   UNL     1      41.968 -13.036   1.123  1.00  0.00    -0.181 NA
HETATM    6  C   UNL     1      41.617 -13.225  -0.152  1.00  0.00     0.160 A 
HETATM    7  C   UNL     1      41.066 -14.510  -0.394  1.00  0.00     0.096 A 
HETATM    8  C   UNL     1      41.864 -14.411   3.119  1.00  0.00     0.221 C 
HETATM    9  C   UNL     1      40.917 -15.510   3.629  1.00  0.00     0.066 C 
HETATM   10  H   UNL     1      39.927 -16.853   0.803  1.00  0.00     0.161 HD
ENDROOT
BRANCH   7  11
HETATM   11  C   UNL     1      40.599 -14.995  -1.679  1.00  0.00     0.257 C 
HETATM   12  N   UNL     1      39.515 -14.327  -2.201  1.00  0.00    -0.352 N 
HETATM   13  H   UNL     1      38.992 -13.730  -1.576  1.00  0.00     0.163 HD
HETATM   14  O   UNL     1      41.123 -15.954  -2.237  1.00  0.00    -0.267 OA
BRANCH  12  15
HETATM   15  C   UNL     1      38.879 -14.769  -3.419  1.00  0.00     0.161 C 
BRANCH  15  16
HETATM   16  C   UNL     1      37.632 -13.976  -3.718  1.00  0.00    -0.041 A 
HETATM   17  C   UNL     1      37.543 -12.620  -3.367  1.00  0.00     0.009 A 
HETATM   18  C   UNL     1      36.413 -11.872  -3.700  1.00  0.00     0.001 A 
HETATM   19  C   UNL     1      35.364 -12.466  -4.397  1.00  0.00     0.000 A 
HETATM   20  C   UNL     1      35.444 -13.809  -4.763  1.00  0.00     0.001 A 
HETATM   21  C   UNL     1      36.572 -14.560  -4.428  1.00  0.00     0.009 A 
ENDBRANCH  15  16
ENDBRANCH  12  15
ENDBRANCH   7  11
BRANCH   1  22
HETATM   22  C   UNL     1      41.960 -17.736   2.830  1.00  0.00    -0.033 A 
HETATM   23  C   UNL     1      42.378 -18.151   4.107  1.00  0.00     0.046 A 
HETATM   24  C   UNL     1      43.424 -19.065   4.278  1.00  0.00     0.068 A 
HETATM   25  C   UNL     1      44.059 -19.595   3.158  1.00  0.00     0.037 A 
HETATM   26  C   UNL     1      43.646 -19.215   1.881  1.00  0.00     0.003 A 
HETATM   27  C   UNL     1      42.605 -18.300   1.718  1.00  0.00     0.009 A 
BRANCH  24  28
HETATM   28  O   UNL     1      43.723 -19.353   5.582  1.00  0.00    -0.356 OA
HETATM   29  C   UNL     1      44.352 -20.604   5.833  1.00  0.00     0.210 C 
ENDBRANCH  24  28
ENDBRANCH   1  22
BRANCH   8  30
HETATM   30  C   UNL     1      43.325 -14.648   3.431  1.00  0.00     0.409 C 
HETATM   31  F   UNL     1      44.051 -13.520   3.547  1.00  0.00    -0.169 F 
HETATM   32  F   UNL     1      43.491 -15.352   4.575  1.00  0.00    -0.169 F 
HETATM   33  F   UNL     1      43.895 -15.392   2.447  1.00  0.00    -0.169 F 
ENDBRANCH   8  30
TORSDOF 6
ENDMDL
MODEL 7
REMARK VINA RESULT:      -8.0      3.946      7.616
REMARK  6 active torsions:
REMARK  status: ('A' for Active; 'I' for Inactive)
REMARK    1  A    between atoms: O_2  and  C_3 
REMARK    2  A    between atoms: C_5  and  C_6 
REMARK    3  A    between atoms: C_12  and  C_13 
REMARK       I    between atoms: C_13  and  N_14 
REMARK    4  A    between atoms: N_14  and  C_15 
REMARK    5  A    between atoms: C_15  and  C_16 
REMARK    6  A    between atoms: C_23  and  C_24 
ROOT
HETATM    1  C   UNL     1      43.094 -13.824   3.337  1.00  0.00     0.118 C 
HETATM    2  N   UNL     1      42.749 -12.763   4.286  1.00  0.00    -0.365 N 
HETATM    3  C   UNL     1      41.499 -12.238   4.367  1.00  0.00     0.138 A 
HETATM    4  N   UNL     1      40.520 -12.613   3.477  1.00  0.00    -0.240 N 
HETATM    5  N   UNL     1      39.380 -11.917   3.595  1.00  0.00    -0.181 NA
HETATM    6  C   UNL     1      39.610 -11.135   4.652  1.00  0.00     0.160 A 
HETATM    7  C   UNL     1      40.911 -11.296   5.193  1.00  0.00     0.096 A 
HETATM    8  C   UNL     1      40.708 -13.553   2.390  1.00  0.00     0.221 C 
HETATM    9  C   UNL     1      42.205 -13.718   2.084  1.00  0.00     0.066 C 
HETATM   10  H   UNL     1      43.551 -12.315   4.727  1.00  0.00     0.161 HD
ENDROOT
BRANCH   7  11
HETATM   11  C   UNL     1      41.438 -10.581   6.340  1.00  0.00     0.257 C 
HETATM   12  N   UNL     1      41.458 -11.292   7.517  1.00  0.00    -0.352 N 
HETATM   13  H   UNL     1      40.910 -12.139   7.559  1.00  0.00     0.163 HD
HETATM   14  O   UNL     1      41.809  -9.414   6.259  1.00  0.00    -0.267 OA
BRANCH  12  15
HETATM   15  C   UNL     1      41.856 -10.672   8.760  1.00  0.00     0.161 C 
BRANCH  15  16
HETATM   16  C   UNL     1      43.253 -11.071   9.161  1.00  0.00    -0.041 A 
HETATM   17  C   UNL     1      43.850 -10.531  10.311  1.00  0.00     0.009 A 
HETATM   18  C   UNL     1      45.120 -10.947  10.715  1.00  0.00     0.001 A 
HETATM   19  C   UNL     1      45.803 -11.914   9.982  1.00  0.00     0.000 A 
HETATM   20  C   UNL     1      45.218 -12.466   8.844  1.00  0.00     0.001 A 
HETATM   21  C   UNL     1      43.949 -12.049   8.436  1.00  0.00     0.009 A 
ENDBRANCH  15  16
ENDBRANCH  12  15
ENDBRANCH   7  11
BRANCH   1  22
HETATM   22  C   UNL     1      43.135 -15.196   3.990  1.00  0.00    -0.033 A 
HETATM   23  C   UNL     1      42.827 -15.323   5.357  1.00  0.00     0.046 A 
HETATM   24  C   UNL     1      42.856 -16.563   6.005  1.00  0.00     0.068 A 
HETATM   25  C   UNL     1      43.179 -17.707   5.280  1.00  0.00     0.037 A 
HETATM   26  C   UNL     1      43.466 -17.608   3.918  1.00  0.00     0.003 A 
HETATM   27  C   UNL     1      43.440 -16.367   3.279  1.00  0.00     0.009 A 
BRANCH  24  28
HETATM   28  O   UNL     1      42.549 -16.517   7.338  1.00  0.00    -0.356 OA
HETATM   29  C   UNL     1      43.388 -17.262   8.213  1.00  0.00     0.210 C 
ENDBRANCH  24  28
ENDBRANCH   1  22
BRANCH   8  30
HETATM   30  C   UNL     1      39.982 -14.847   2.687  1.00  0.00     0.409 C 
HETATM   31  F   UNL     1      40.553 -15.934   2.134  1.00  0.00    -0.169 F 
HETATM   32  F   UNL     1      39.883 -15.078   4.017  1.00  0.00    -0.169 F 
HETATM   33  F   UNL     1      38.707 -14.783   2.221  1.00  0.00    -0.169 F 
ENDBRANCH   8  30
TORSDOF 6
ENDMDL
MODEL 8
REMARK VINA RESULT:      -7.9      1.807      2.973
REMARK  6 active torsions:
REMARK  status: ('A' for Active; 'I' for Inactive)
REMARK    1  A    between atoms: O_2  and  C_3 
REMARK    2  A    between atoms: C_5  and  C_6 
REMARK    3  A    between atoms: C_12  and  C_13 
REMARK       I    between atoms: C_13  and  N_14 
REMARK    4  A    between atoms: N_14  and  C_15 
REMARK    5  A    between atoms: C_15  and  C_16 
REMARK    6  A    between atoms: C_23  and  C_24 
ROOT
HETATM    1  C   UNL     1      41.240 -17.456   5.361  1.00  0.00     0.118 C 
HETATM    2  N   UNL     1      40.570 -16.721   4.287  1.00  0.00    -0.365 N 
HETATM    3  C   UNL     1      40.784 -15.397   4.068  1.00  0.00     0.138 A 
HETATM    4  N   UNL     1      41.569 -14.661   4.924  1.00  0.00    -0.240 N 
HETATM    5  N   UNL     1      41.583 -13.347   4.659  1.00  0.00    -0.181 NA
HETATM    6  C   UNL     1      40.853 -13.255   3.545  1.00  0.00     0.160 A 
HETATM    7  C   UNL     1      40.336 -14.503   3.112  1.00  0.00     0.096 A 
HETATM    8  C   UNL     1      42.213 -15.185   6.112  1.00  0.00     0.221 C 
HETATM    9  C   UNL     1      41.552 -16.508   6.534  1.00  0.00     0.066 C 
HETATM   10  H   UNL     1      39.792 -17.218   3.857  1.00  0.00     0.161 HD
ENDROOT
BRANCH   7  11
HETATM   11  C   UNL     1      39.512 -14.708   1.936  1.00  0.00     0.257 C 
HETATM   12  N   UNL     1      39.729 -13.825   0.904  1.00  0.00    -0.352 N 
HETATM   13  H   UNL     1      40.251 -12.986   1.113  1.00  0.00     0.163 HD
HETATM   14  O   UNL     1      38.661 -15.592   1.889  1.00  0.00    -0.267 OA
BRANCH  12  15
HETATM   15  C   UNL     1      38.908 -13.844  -0.284  1.00  0.00     0.161 C 
BRANCH  15  16
HETATM   16  C   UNL     1      37.981 -12.657  -0.341  1.00  0.00    -0.041 A 
HETATM   17  C   UNL     1      38.128 -11.679  -1.337  1.00  0.00     0.009 A 
HETATM   18  C   UNL     1      37.231 -10.613  -1.425  1.00  0.00     0.001 A 
HETATM   19  C   UNL     1      36.170 -10.518  -0.529  1.00  0.00     0.000 A 
HETATM   20  C   UNL     1      36.005 -11.489   0.458  1.00  0.00     0.001 A 
HETATM   21  C   UNL     1      36.903 -12.554   0.551  1.00  0.00     0.009 A 
ENDBRANCH  15  16
ENDBRANCH  12  15
ENDBRANCH   7  11
BRANCH   1  22
HETATM   22  C   UNL     1      42.419 -18.273   4.857  1.00  0.00    -0.033 A 
HETATM   23  C   UNL     1      42.714 -18.289   3.482  1.00  0.00     0.046 A 
HETATM   24  C   UNL     1      43.785 -19.030   2.967  1.00  0.00     0.068 A 
HETATM   25  C   UNL     1      44.594 -19.756   3.837  1.00  0.00     0.037 A 
HETATM   26  C   UNL     1      44.334 -19.736   5.207  1.00  0.00     0.003 A 
HETATM   27  C   UNL     1      43.262 -18.999   5.712  1.00  0.00     0.009 A 
BRANCH  24  28
HETATM   28  O   UNL     1      43.929 -18.957   1.609  1.00  0.00    -0.356 OA
HETATM   29  C   UNL     1      43.634 -17.705   1.000  1.00  0.00     0.210 C 
ENDBRANCH  24  28
ENDBRANCH   1  22
BRANCH   8  30
HETATM   30  C   UNL     1      43.709 -15.272   5.902  1.00  0.00     0.409 C 
HETATM   31  F   UNL     1      44.366 -14.127   6.165  1.00  0.00    -0.169 F 
HETATM   32  F   UNL     1      44.270 -16.241   6.661  1.00  0.00    -0.169 F 
HETATM   33  F   UNL     1      43.978 -15.602   4.611  1.00  0.00    -0.169 F 
ENDBRANCH   8  30
TORSDOF 6
ENDMDL
MODEL 9
REMARK VINA RESULT:      -7.9      3.175      7.765
REMARK  6 active torsions:
REMARK  status: ('A' for Active; 'I' for Inactive)
REMARK    1  A    between atoms: O_2  and  C_3 
REMARK    2  A    between atoms: C_5  and  C_6 
REMARK    3  A    between atoms: C_12  and  C_13 
REMARK       I    between atoms: C_13  and  N_14 
REMARK    4  A    between atoms: N_14  and  C_15 
REMARK    5  A    between atoms: C_15  and  C_16 
REMARK    6  A    between atoms: C_23  and  C_24 
ROOT
HETATM    1  C   UNL     1      38.159 -13.820   1.440  1.00  0.00     0.118 C 
HETATM    2  N   UNL     1      39.150 -14.770   1.950  1.00  0.00    -0.365 N 
HETATM    3  C   UNL     1      40.190 -15.211   1.196  1.00  0.00     0.138 A 
HETATM    4  N   UNL     1      40.297 -14.857  -0.128  1.00  0.00    -0.240 N 
HETATM    5  N   UNL     1      41.298 -15.470  -0.778  1.00  0.00    -0.181 NA
HETATM    6  C   UNL     1      41.902 -16.169   0.186  1.00  0.00     0.160 A 
HETATM    7  C   UNL     1      41.269 -16.039   1.450  1.00  0.00     0.096 A 
HETATM    8  C   UNL     1      39.346 -14.030  -0.843  1.00  0.00     0.221 C 
HETATM    9  C   UNL     1      38.009 -13.982  -0.084  1.00  0.00     0.066 C 
HETATM   10  H   UNL     1      38.888 -15.226   2.824  1.00  0.00     0.161 HD
ENDROOT
BRANCH   7  11
HETATM   11  C   UNL     1      41.704 -16.680   2.676  1.00  0.00     0.257 C 
HETATM   12  N   UNL     1      42.935 -17.290   2.617  1.00  0.00    -0.352 N 
HETATM   13  H   UNL     1      43.330 -17.452   1.701  1.00  0.00     0.163 HD
HETATM   14  O   UNL     1      40.999 -16.698   3.681  1.00  0.00    -0.267 OA
BRANCH  12  15
HETATM   15  C   UNL     1      43.445 -18.058   3.728  1.00  0.00     0.161 C 
BRANCH  15  16
HETATM   16  C   UNL     1      43.815 -19.461   3.316  1.00  0.00    -0.041 A 
HETATM   17  C   UNL     1      44.533 -20.297   4.184  1.00  0.00     0.009 A 
HETATM   18  C   UNL     1      44.822 -21.615   3.826  1.00  0.00     0.001 A 
HETATM   19  C   UNL     1      44.385 -22.116   2.602  1.00  0.00     0.000 A 
HETATM   20  C   UNL     1      43.661 -21.300   1.735  1.00  0.00     0.001 A 
HETATM   21  C   UNL     1      43.374 -19.980   2.090  1.00  0.00     0.009 A 
ENDBRANCH  15  16
ENDBRANCH  12  15
ENDBRANCH   7  11
BRANCH   1  22
HETATM   22  C   UNL     1      38.416 -12.401   1.920  1.00  0.00    -0.033 A 
HETATM   23  C   UNL     1      39.545 -12.131   2.714  1.00  0.00     0.046 A 
HETATM   24  C   UNL     1      39.823 -10.842   3.186  1.00  0.00     0.068 A 
HETATM   25  C   UNL     1      38.973  -9.792   2.846  1.00  0.00     0.037 A 
HETATM   26  C   UNL     1      37.860 -10.033   2.041  1.00  0.00     0.003 A 
HETATM   27  C   UNL     1      37.587 -11.321   1.579  1.00  0.00     0.009 A 
BRANCH  24  28
HETATM   28  O   UNL     1      40.947 -10.747   3.959  1.00  0.00    -0.356 OA
HETATM   29  C   UNL     1      41.112  -9.546   4.704  1.00  0.00     0.210 C 
ENDBRANCH  24  28
ENDBRANCH   1  22
BRANCH   8  30
HETATM   30  C   UNL     1      39.949 -12.673  -1.135  1.00  0.00     0.409 C 
HETATM   31  F   UNL     1      39.045 -11.680  -1.227  1.00  0.00    -0.169 F 
HETATM   32  F   UNL     1      40.852 -12.308  -0.196  1.00  0.00    -0.169 F 
HETATM   33  F   UNL     1      40.626 -12.710  -2.313  1.00  0.00    -0.169 F 
ENDBRANCH   8  30
TORSDOF 6
ENDMDL
MODEL 10
REMARK VINA RESULT:      -7.9      2.860      6.858
REMARK  6 active torsions:
REMARK  status: ('A' for Active; 'I' for Inactive)
REMARK    1  A    between atoms: O_2  and  C_3 
REMARK    2  A    between atoms: C_5  and  C_6 
REMARK    3  A    between atoms: C_12  and  C_13 
REMARK       I    between atoms: C_13  and  N_14 
REMARK    4  A    between atoms: N_14  and  C_15 
REMARK    5  A    between atoms: C_15  and  C_16 
REMARK    6  A    between atoms: C_23  and  C_24 
ROOT
HETATM    1  C   UNL     1      42.410 -13.549   1.882  1.00  0.00     0.118 C 
HETATM    2  N   UNL     1      42.449 -14.462   3.026  1.00  0.00    -0.365 N 
HETATM    3  C   UNL     1      41.490 -14.463   3.988  1.00  0.00     0.138 A 
HETATM    4  N   UNL     1      40.486 -13.523   3.982  1.00  0.00    -0.240 N 
HETATM    5  N   UNL     1      39.692 -13.565   5.061  1.00  0.00    -0.181 NA
HETATM    6  C   UNL     1      40.151 -14.623   5.734  1.00  0.00     0.160 A 
HETATM    7  C   UNL     1      41.265 -15.241   5.111  1.00  0.00     0.096 A 
HETATM    8  C   UNL     1      40.354 -12.462   3.003  1.00  0.00     0.221 C 
HETATM    9  C   UNL     1      41.690 -12.245   2.272  1.00  0.00     0.066 C 
HETATM   10  H   UNL     1      43.338 -14.942   3.152  1.00  0.00     0.161 HD
ENDROOT
BRANCH   7  11
HETATM   11  C   UNL     1      41.968 -16.406   5.612  1.00  0.00     0.257 C 
HETATM   12  N   UNL     1      43.163 -16.685   4.989  1.00  0.00    -0.352 N 
HETATM   13  H   UNL     1      43.347 -16.225   4.109  1.00  0.00     0.163 HD
HETATM   14  O   UNL     1      41.504 -17.105   6.508  1.00  0.00    -0.267 OA
BRANCH  12  15
HETATM   15  C   UNL     1      43.916 -17.873   5.312  1.00  0.00     0.161 C 
BRANCH  15  16
HETATM   16  C   UNL     1      43.937 -18.851   4.164  1.00  0.00    -0.041 A 
HETATM   17  C   UNL     1      44.641 -20.060   4.265  1.00  0.00     0.009 A 
HETATM   18  C   UNL     1      44.609 -20.991   3.225  1.00  0.00     0.001 A 
HETATM   19  C   UNL     1      43.864 -20.730   2.078  1.00  0.00     0.000 A 
HETATM   20  C   UNL     1      43.150 -19.537   1.969  1.00  0.00     0.001 A 
HETATM   21  C   UNL     1      43.184 -18.603   3.007  1.00  0.00     0.009 A 
ENDBRANCH  15  16
ENDBRANCH  12  15
ENDBRANCH   7  11
BRANCH   1  22
HETATM   22  C   UNL     1      41.894 -14.221   0.620  1.00  0.00    -0.033 A 
HETATM   23  C   UNL     1      41.732 -13.463  -0.554  1.00  0.00     0.046 A 
HETATM   24  C   UNL     1      41.255 -14.034  -1.739  1.00  0.00     0.068 A 
HETATM   25  C   UNL     1      40.949 -15.393  -1.769  1.00  0.00     0.037 A 
HETATM   26  C   UNL     1      41.124 -16.169  -0.623  1.00  0.00     0.003 A 
HETATM   27  C   UNL     1      41.595 -15.591   0.556  1.00  0.00     0.009 A 
BRANCH  24  28
HETATM   28  O   UNL     1      41.137 -13.162  -2.786  1.00  0.00    -0.356 OA
HETATM   29  C   UNL     1      40.072 -12.220  -2.718  1.00  0.00     0.210 C 
ENDBRANCH  24  28
ENDBRANCH   1  22
BRANCH   8  30
HETATM   30  C   UNL     1      39.178 -12.734   2.092  1.00  0.00     0.409 C 
HETATM   31  F   UNL     1      38.011 -12.235   2.541  1.00  0.00    -0.169 F 
HETATM   32  F   UNL     1      39.376 -12.236   0.849  1.00  0.00    -0.169 F 
HETATM   33  F   UNL     1      39.009 -14.073   1.938  1.00  0.00    -0.169 F 
ENDBRANCH   8  30
TORSDOF 6
ENDMDL
