MODEL 1
REMARK VINA RESULT:      -8.4      0.000      0.000
REMARK  5 active torsions:
REMARK  status: ('A' for Active; 'I' for Inactive)
REMARK    1  A    between atoms: C_8  and  C_9 
REMARK    2  A    between atoms: C_9  and  C_10 
REMARK       I    between atoms: C_10  and  N_11 
REMARK    3  A    between atoms: N_11  and  N_12 
REMARK    4  A    between atoms: C_13  and  C_14 
REMARK    5  A    between atoms: C_15  and  O_16 
ROOT
HETATM    1  C   UNL     1      42.221 -15.562   5.367  1.00  0.00     0.241 C 
HETATM    2  N   UNL     1      43.454 -15.040   4.990  1.00  0.00    -0.247 N 
HETATM    3  O   UNL     1      41.476 -15.056   6.205  1.00  0.00    -0.271 OA
HETATM    4  H   UNL     1      44.046 -15.565   4.355  1.00  0.00     0.192 HD
ENDROOT
BRANCH   1   5
HETATM    5  C   UNL     1      41.827 -16.809   4.588  1.00  0.00     0.145 C 
BRANCH   5   6
HETATM    6  C   UNL     1      42.755 -17.953   4.858  1.00  0.00    -0.021 A 
HETATM    7  C   UNL     1      43.251 -18.908   3.913  1.00  0.00    -0.001 A 
HETATM    8  C   UNL     1      43.042 -19.129   2.534  1.00  0.00     0.014 A 
HETATM    9  C   UNL     1      44.144 -19.739   4.591  1.00  0.00     0.042 A 
HETATM   10  C   UNL     1      43.738 -20.159   1.889  1.00  0.00     0.001 A 
HETATM   11  C   UNL     1      44.630 -20.963   2.593  1.00  0.00     0.002 A 
HETATM   12  C   UNL     1      44.849 -20.771   3.960  1.00  0.00     0.030 A 
HETATM   13  N   UNL     1      44.160 -19.335   5.904  1.00  0.00    -0.365 N 
HETATM   14  H   UNL     1      44.717 -19.762   6.632  1.00  0.00     0.165 HD
HETATM   15  C   UNL     1      43.331 -18.260   6.076  1.00  0.00     0.097 A 
ENDBRANCH   5   6
ENDBRANCH   1   5
BRANCH   2  16
HETATM   16  N   UNL     1      43.987 -13.999   5.686  1.00  0.00    -0.184 NA
HETATM   17  C   UNL     1      44.604 -14.323   6.778  1.00  0.00     0.153 C 
BRANCH  17  18
HETATM   18  C   UNL     1      45.166 -13.287   7.665  1.00  0.00     0.017 A 
HETATM   19  C   UNL     1      46.382 -12.652   7.388  1.00  0.00     0.077 A 
HETATM   20  C   UNL     1      46.858 -11.649   8.230  1.00  0.00     0.039 A 
HETATM   21  C   UNL     1      46.126 -11.284   9.361  1.00  0.00     0.022 A 
HETATM   22  C   UNL     1      44.920 -11.927   9.640  1.00  0.00     0.012 A 
HETATM   23 BR   UNL     1      43.932 -11.435  11.177  1.00  0.00    -0.051 Br
HETATM   24  C   UNL     1      44.430 -12.925   8.799  1.00  0.00     0.034 A 
BRANCH  19  25
HETATM   25  O   UNL     1      47.156 -12.949   6.300  1.00  0.00    -0.360 OA
HETATM   26  H   UNL     1      47.270 -12.130   5.763  1.00  0.00     0.217 HD
ENDBRANCH  19  25
ENDBRANCH  17  18
ENDBRANCH   2  16
TORSDOF 5
ENDMDL
MODEL 2
REMARK VINA RESULT:      -8.3      5.647      7.450
REMARK  5 active torsions:
REMARK  status: ('A' for Active; 'I' for Inactive)
REMARK    1  A    between atoms: C_8  and  C_9 
REMARK    2  A    between atoms: C_9  and  C_10 
REMARK       I    between atoms: C_10  and  N_11 
REMARK    3  A    between atoms: N_11  and  N_12 
REMARK    4  A    between atoms: C_13  and  C_14 
REMARK    5  A    between atoms: C_15  and  O_16 
ROOT
HETATM    1  C   UNL     1      42.549 -17.555   1.180  1.00  0.00     0.241 C 
HETATM    2  N   UNL     1      42.471 -16.516   0.259  1.00  0.00    -0.247 N 
HETATM    3  O   UNL     1      41.575 -18.126   1.672  1.00  0.00    -0.271 OA
HETATM    4  H   UNL     1      43.321 -16.042  -0.031  1.00  0.00     0.192 HD
ENDROOT
BRANCH   1   5
HETATM    5  C   UNL     1      43.975 -17.987   1.490  1.00  0.00     0.145 C 
BRANCH   5   6
HETATM    6  C   UNL     1      44.088 -18.609   2.847  1.00  0.00    -0.021 A 
HETATM    7  C   UNL     1      44.265 -19.998   3.152  1.00  0.00    -0.001 A 
HETATM    8  C   UNL     1      44.346 -21.174   2.375  1.00  0.00     0.014 A 
HETATM    9  C   UNL     1      44.399 -20.106   4.537  1.00  0.00     0.042 A 
HETATM   10  C   UNL     1      44.570 -22.403   3.008  1.00  0.00     0.001 A 
HETATM   11  C   UNL     1      44.711 -22.474   4.392  1.00  0.00     0.002 A 
HETATM   12  C   UNL     1      44.625 -21.326   5.184  1.00  0.00     0.030 A 
HETATM   13  N   UNL     1      44.269 -18.841   5.059  1.00  0.00    -0.365 N 
HETATM   14  H   UNL     1      44.318 -18.617   6.043  1.00  0.00     0.165 HD
HETATM   15  C   UNL     1      44.085 -17.933   4.052  1.00  0.00     0.097 A 
ENDBRANCH   5   6
ENDBRANCH   1   5
BRANCH   2  16
HETATM   16  N   UNL     1      41.267 -15.947  -0.018  1.00  0.00    -0.184 NA
HETATM   17  C   UNL     1      41.081 -14.771   0.492  1.00  0.00     0.153 C 
BRANCH  17  18
HETATM   18  C   UNL     1      39.793 -14.071   0.331  1.00  0.00     0.017 A 
HETATM   19  C   UNL     1      38.636 -14.481   1.005  1.00  0.00     0.077 A 
HETATM   20  C   UNL     1      37.449 -13.767   0.857  1.00  0.00     0.039 A 
HETATM   21  C   UNL     1      37.409 -12.647   0.025  1.00  0.00     0.022 A 
HETATM   22  C   UNL     1      38.560 -12.248  -0.653  1.00  0.00     0.012 A 
HETATM   23 BR   UNL     1      38.502 -10.733  -1.785  1.00  0.00    -0.051 Br
HETATM   24  C   UNL     1      39.756 -12.950  -0.504  1.00  0.00     0.034 A 
BRANCH  19  25
HETATM   25  O   UNL     1      38.593 -15.563   1.839  1.00  0.00    -0.360 OA
HETATM   26  H   UNL     1      39.398 -16.111   1.686  1.00  0.00     0.217 HD
ENDBRANCH  19  25
ENDBRANCH  17  18
ENDBRANCH   2  16
TORSDOF 5
ENDMDL
MODEL 3
REMARK VINA RESULT:      -8.3      4.142      9.498
REMARK  5 active torsions:
REMARK  status: ('A' for Active; 'I' for Inactive)
REMARK    1  A    between atoms: C_8  and  C_9 
REMARK    2  A    between atoms: C_9  and  C_10 
REMARK       I    between atoms: C_10  and  N_11 
REMARK    3  A    between atoms: N_11  and  N_12 
REMARK    4  A    between atoms: C_13  and  C_14 
REMARK    5  A    between atoms: C_15  and  O_16 
ROOT
HETATM    1  C   UNL     1      44.384 -12.484   9.424  1.00  0.00     0.241 C 
HETATM    2  N   UNL     1      44.310 -13.055   8.158  1.00  0.00    -0.247 N 
HETATM    3  O   UNL     1      44.671 -13.099  10.450  1.00  0.00    -0.271 OA
HETATM    4  H   UNL     1      43.982 -12.496   7.376  1.00  0.00     0.192 HD
ENDROOT
BRANCH   1   5
HETATM    5  C   UNL     1      44.140 -10.982   9.427  1.00  0.00     0.145 C 
BRANCH   5   6
HETATM    6  C   UNL     1      42.894 -10.620  10.174  1.00  0.00    -0.021 A 
HETATM    7  C   UNL     1      42.797 -10.163  11.529  1.00  0.00    -0.001 A 
HETATM    8  C   UNL     1      43.731  -9.947  12.565  1.00  0.00     0.014 A 
HETATM    9  C   UNL     1      41.454  -9.872  11.774  1.00  0.00     0.042 A 
HETATM   10  C   UNL     1      43.292  -9.440  13.793  1.00  0.00     0.001 A 
HETATM   11  C   UNL     1      41.946  -9.149  14.001  1.00  0.00     0.002 A 
HETATM   12  C   UNL     1      41.000  -9.362  12.996  1.00  0.00     0.030 A 
HETATM   13  N   UNL     1      40.755 -10.177  10.630  1.00  0.00    -0.365 N 
HETATM   14  H   UNL     1      39.756 -10.070  10.521  1.00  0.00     0.165 HD
HETATM   15  C   UNL     1      41.611 -10.625   9.661  1.00  0.00     0.097 A 
ENDBRANCH   5   6
ENDBRANCH   1   5
BRANCH   2  16
HETATM   16  N   UNL     1      44.386 -14.407   8.020  1.00  0.00    -0.184 NA
HETATM   17  C   UNL     1      43.815 -14.887   6.961  1.00  0.00     0.153 C 
BRANCH  17  18
HETATM   18  C   UNL     1      43.759 -16.342   6.726  1.00  0.00     0.017 A 
HETATM   19  C   UNL     1      43.623 -17.259   7.775  1.00  0.00     0.077 A 
HETATM   20  C   UNL     1      43.532 -18.623   7.506  1.00  0.00     0.039 A 
HETATM   21  C   UNL     1      43.588 -19.078   6.188  1.00  0.00     0.022 A 
HETATM   22  C   UNL     1      43.734 -18.163   5.146  1.00  0.00     0.012 A 
HETATM   23 BR   UNL     1      43.815 -18.782   3.360  1.00  0.00    -0.051 Br
HETATM   24  C   UNL     1      43.816 -16.794   5.403  1.00  0.00     0.034 A 
BRANCH  19  25
HETATM   25  O   UNL     1      43.558 -16.894   9.091  1.00  0.00    -0.360 OA
HETATM   26  H   UNL     1      43.155 -17.634   9.602  1.00  0.00     0.217 HD
ENDBRANCH  19  25
ENDBRANCH  17  18
ENDBRANCH   2  16
TORSDOF 5
ENDMDL
MODEL 4
REMARK VINA RESULT:      -8.2      5.827      8.148
REMARK  5 active torsions:
REMARK  status: ('A' for Active; 'I' for Inactive)
REMARK    1  A    between atoms: C_8  and  C_9 
REMARK    2  A    between atoms: C_9  and  C_10 
REMARK       I    between atoms: C_10  and  N_11 
REMARK    3  A    between atoms: N_11  and  N_12 
REMARK    4  A    between atoms: C_13  and  C_14 
REMARK    5  A    between atoms: C_15  and  O_16 
ROOT
HETATM    1  C   UNL     1      42.504 -17.371   1.063  1.00  0.00     0.241 C 
HETATM    2  N   UNL     1      42.471 -16.249   0.241  1.00  0.00    -0.247 N 
HETATM    3  O   UNL     1      41.507 -17.954   1.487  1.00  0.00    -0.271 OA
HETATM    4  H   UNL     1      43.339 -15.777   0.006  1.00  0.00     0.192 HD
ENDROOT
BRANCH   1   5
HETATM    5  C   UNL     1      43.912 -17.874   1.348  1.00  0.00     0.145 C 
BRANCH   5   6
HETATM    6  C   UNL     1      44.018 -18.498   2.704  1.00  0.00    -0.021 A 
HETATM    7  C   UNL     1      44.228 -19.883   3.007  1.00  0.00    -0.001 A 
HETATM    8  C   UNL     1      44.358 -21.053   2.227  1.00  0.00     0.014 A 
HETATM    9  C   UNL     1      44.340 -19.993   4.394  1.00  0.00     0.042 A 
HETATM   10  C   UNL     1      44.604 -22.278   2.859  1.00  0.00     0.001 A 
HETATM   11  C   UNL     1      44.722 -22.351   4.245  1.00  0.00     0.002 A 
HETATM   12  C   UNL     1      44.589 -21.210   5.040  1.00  0.00     0.030 A 
HETATM   13  N   UNL     1      44.164 -18.735   4.918  1.00  0.00    -0.365 N 
HETATM   14  H   UNL     1      44.189 -18.514   5.905  1.00  0.00     0.165 HD
HETATM   15  C   UNL     1      43.973 -17.828   3.912  1.00  0.00     0.097 A 
ENDBRANCH   5   6
ENDBRANCH   1   5
BRANCH   2  16
HETATM   16  N   UNL     1      41.288 -15.620   0.003  1.00  0.00    -0.184 NA
HETATM   17  C   UNL     1      41.134 -15.171  -1.202  1.00  0.00     0.153 C 
BRANCH  17  18
HETATM   18  C   UNL     1      39.930 -14.406  -1.576  1.00  0.00     0.017 A 
HETATM   19  C   UNL     1      39.472 -14.340  -2.897  1.00  0.00     0.077 A 
HETATM   20  C   UNL     1      38.307 -13.640  -3.201  1.00  0.00     0.039 A 
HETATM   21  C   UNL     1      37.599 -12.991  -2.188  1.00  0.00     0.022 A 
HETATM   22  C   UNL     1      38.064 -13.050  -0.874  1.00  0.00     0.012 A 
HETATM   23 BR   UNL     1      37.107 -12.165   0.497  1.00  0.00    -0.051 Br
HETATM   24  C   UNL     1      39.224 -13.756  -0.557  1.00  0.00     0.034 A 
BRANCH  19  25
HETATM   25  O   UNL     1      40.105 -14.950  -3.945  1.00  0.00    -0.360 OA
HETATM   26  H   UNL     1      39.441 -15.129  -4.651  1.00  0.00     0.217 HD
ENDBRANCH  19  25
ENDBRANCH  17  18
ENDBRANCH   2  16
TORSDOF 5
ENDMDL
MODEL 5
REMARK VINA RESULT:      -8.0      5.508      7.439
REMARK  5 active torsions:
REMARK  status: ('A' for Active; 'I' for Inactive)
REMARK    1  A    between atoms: C_8  and  C_9 
REMARK    2  A    between atoms: C_9  and  C_10 
REMARK       I    between atoms: C_10  and  N_11 
REMARK    3  A    between atoms: N_11  and  N_12 
REMARK    4  A    between atoms: C_13  and  C_14 
REMARK    5  A    between atoms: C_15  and  O_16 
ROOT
HETATM    1  C   UNL     1      42.652 -15.923   2.892  1.00  0.00     0.241 C 
HETATM    2  N   UNL     1      41.724 -16.106   1.873  1.00  0.00    -0.247 N 
HETATM    3  O   UNL     1      43.652 -15.211   2.804  1.00  0.00    -0.271 OA
HETATM    4  H   UNL     1      40.973 -16.778   1.996  1.00  0.00     0.192 HD
ENDROOT
BRANCH   1   5
HETATM    5  C   UNL     1      42.286 -16.641   4.182  1.00  0.00     0.145 C 
BRANCH   5   6
HETATM    6  C   UNL     1      43.231 -17.763   4.485  1.00  0.00    -0.021 A 
HETATM    7  C   UNL     1      43.508 -18.907   3.668  1.00  0.00    -0.001 A 
HETATM    8  C   UNL     1      43.017 -19.375   2.429  1.00  0.00     0.014 A 
HETATM    9  C   UNL     1      44.507 -19.642   4.306  1.00  0.00     0.042 A 
HETATM   10  C   UNL     1      43.549 -20.546   1.876  1.00  0.00     0.001 A 
HETATM   11  C   UNL     1      44.554 -21.250   2.535  1.00  0.00     0.002 A 
HETATM   12  C   UNL     1      45.051 -20.813   3.765  1.00  0.00     0.030 A 
HETATM   13  N   UNL     1      44.799 -18.996   5.484  1.00  0.00    -0.365 N 
HETATM   14  H   UNL     1      45.487 -19.308   6.156  1.00  0.00     0.165 HD
HETATM   15  C   UNL     1      44.040 -17.864   5.601  1.00  0.00     0.097 A 
ENDBRANCH   5   6
ENDBRANCH   1   5
BRANCH   2  16
HETATM   16  N   UNL     1      41.983 -15.623   0.627  1.00  0.00    -0.184 NA
HETATM   17  C   UNL     1      41.340 -14.545   0.308  1.00  0.00     0.153 C 
BRANCH  17  18
HETATM   18  C   UNL     1      41.472 -13.956  -1.038  1.00  0.00     0.017 A 
HETATM   19  C   UNL     1      41.085 -14.647  -2.192  1.00  0.00     0.077 A 
HETATM   20  C   UNL     1      41.188 -14.039  -3.441  1.00  0.00     0.039 A 
HETATM   21  C   UNL     1      41.689 -12.740  -3.544  1.00  0.00     0.022 A 
HETATM   22  C   UNL     1      42.084 -12.058  -2.394  1.00  0.00     0.012 A 
HETATM   23 BR   UNL     1      42.769 -10.300  -2.536  1.00  0.00    -0.051 Br
HETATM   24  C   UNL     1      41.976 -12.655  -1.138  1.00  0.00     0.034 A 
BRANCH  19  25
HETATM   25  O   UNL     1      40.581 -15.919  -2.176  1.00  0.00    -0.360 OA
HETATM   26  H   UNL     1      41.241 -16.512  -1.748  1.00  0.00     0.217 HD
ENDBRANCH  19  25
ENDBRANCH  17  18
ENDBRANCH   2  16
TORSDOF 5
ENDMDL
MODEL 6
REMARK VINA RESULT:      -7.7      2.066      2.685
REMARK  5 active torsions:
REMARK  status: ('A' for Active; 'I' for Inactive)
REMARK    1  A    between atoms: C_8  and  C_9 
REMARK    2  A    between atoms: C_9  and  C_10 
REMARK       I    between atoms: C_10  and  N_11 
REMARK    3  A    between atoms: N_11  and  N_12 
REMARK    4  A    between atoms: C_13  and  C_14 
REMARK    5  A    between atoms: C_15  and  O_16 
ROOT
HETATM    1  C   UNL     1      43.820 -16.368   6.734  1.00  0.00     0.241 C 
HETATM    2  N   UNL     1      44.527 -15.180   6.883  1.00  0.00    -0.247 N 
HETATM    3  O   UNL     1      42.643 -16.525   7.060  1.00  0.00    -0.271 OA
HETATM    4  H   UNL     1      45.520 -15.159   6.669  1.00  0.00     0.192 HD
ENDROOT
BRANCH   1   5
HETATM    5  C   UNL     1      44.620 -17.470   6.055  1.00  0.00     0.145 C 
BRANCH   5   6
HETATM    6  C   UNL     1      44.077 -17.801   4.700  1.00  0.00    -0.021 A 
HETATM    7  C   UNL     1      44.189 -19.047   4.001  1.00  0.00    -0.001 A 
HETATM    8  C   UNL     1      44.819 -20.279   4.281  1.00  0.00     0.014 A 
HETATM    9  C   UNL     1      43.468 -18.924   2.813  1.00  0.00     0.042 A 
HETATM   10  C   UNL     1      44.693 -21.338   3.373  1.00  0.00     0.001 A 
HETATM   11  C   UNL     1      43.956 -21.185   2.202  1.00  0.00     0.002 A 
HETATM   12  C   UNL     1      43.331 -19.973   1.897  1.00  0.00     0.030 A 
HETATM   13  N   UNL     1      42.971 -17.643   2.769  1.00  0.00    -0.365 N 
HETATM   14  H   UNL     1      42.410 -17.270   2.015  1.00  0.00     0.165 HD
HETATM   15  C   UNL     1      43.328 -16.960   3.898  1.00  0.00     0.097 A 
ENDBRANCH   5   6
ENDBRANCH   1   5
BRANCH   2  16
HETATM   16  N   UNL     1      43.978 -14.150   7.583  1.00  0.00    -0.184 NA
HETATM   17  C   UNL     1      44.824 -13.397   8.212  1.00  0.00     0.153 C 
BRANCH  17  18
HETATM   18  C   UNL     1      44.360 -12.289   9.067  1.00  0.00     0.017 A 
HETATM   19  C   UNL     1      44.941 -12.018  10.312  1.00  0.00     0.077 A 
HETATM   20  C   UNL     1      44.501 -10.935  11.070  1.00  0.00     0.039 A 
HETATM   21  C   UNL     1      43.469 -10.125  10.594  1.00  0.00     0.022 A 
HETATM   22  C   UNL     1      42.885 -10.404   9.358  1.00  0.00     0.012 A 
HETATM   23 BR   UNL     1      41.482  -9.308   8.717  1.00  0.00    -0.051 Br
HETATM   24  C   UNL     1      43.325 -11.479   8.587  1.00  0.00     0.034 A 
BRANCH  19  25
HETATM   25  O   UNL     1      45.957 -12.760  10.847  1.00  0.00    -0.360 OA
HETATM   26  H   UNL     1      46.034 -13.600  10.337  1.00  0.00     0.217 HD
ENDBRANCH  19  25
ENDBRANCH  17  18
ENDBRANCH   2  16
TORSDOF 5
ENDMDL
MODEL 7
REMARK VINA RESULT:      -7.7      4.922      6.684
REMARK  5 active torsions:
REMARK  status: ('A' for Active; 'I' for Inactive)
REMARK    1  A    between atoms: C_8  and  C_9 
REMARK    2  A    between atoms: C_9  and  C_10 
REMARK       I    between atoms: C_10  and  N_11 
REMARK    3  A    between atoms: N_11  and  N_12 
REMARK    4  A    between atoms: C_13  and  C_14 
REMARK    5  A    between atoms: C_15  and  O_16 
ROOT
HETATM    1  C   UNL     1      42.929 -17.174   5.151  1.00  0.00     0.241 C 
HETATM    2  N   UNL     1      43.275 -16.424   4.033  1.00  0.00    -0.247 N 
HETATM    3  O   UNL     1      41.773 -17.417   5.497  1.00  0.00    -0.271 OA
HETATM    4  H   UNL     1      44.251 -16.196   3.867  1.00  0.00     0.192 HD
ENDROOT
BRANCH   1   5
HETATM    5  C   UNL     1      44.128 -17.743   5.896  1.00  0.00     0.145 C 
BRANCH   5   6
HETATM    6  C   UNL     1      44.110 -19.240   5.924  1.00  0.00    -0.021 A 
HETATM    7  C   UNL     1      44.291 -20.130   4.816  1.00  0.00    -0.001 A 
HETATM    8  C   UNL     1      44.491 -19.949   3.430  1.00  0.00     0.014 A 
HETATM    9  C   UNL     1      44.276 -21.431   5.320  1.00  0.00     0.042 A 
HETATM   10  C   UNL     1      44.680 -21.068   2.610  1.00  0.00     0.001 A 
HETATM   11  C   UNL     1      44.670 -22.352   3.148  1.00  0.00     0.002 A 
HETATM   12  C   UNL     1      44.465 -22.559   4.514  1.00  0.00     0.030 A 
HETATM   13  N   UNL     1      44.053 -21.340   6.674  1.00  0.00    -0.365 N 
HETATM   14  H   UNL     1      43.988 -22.131   7.300  1.00  0.00     0.165 HD
HETATM   15  C   UNL     1      43.954 -20.028   7.049  1.00  0.00     0.097 A 
ENDBRANCH   5   6
ENDBRANCH   1   5
BRANCH   2  16
HETATM   16  N   UNL     1      42.312 -15.754   3.344  1.00  0.00    -0.184 NA
HETATM   17  C   UNL     1      42.077 -16.199   2.150  1.00  0.00     0.153 C 
BRANCH  17  18
HETATM   18  C   UNL     1      41.109 -15.521   1.267  1.00  0.00     0.017 A 
HETATM   19  C   UNL     1      39.875 -15.056   1.736  1.00  0.00     0.077 A 
HETATM   20  C   UNL     1      39.007 -14.384   0.879  1.00  0.00     0.039 A 
HETATM   21  C   UNL     1      39.363 -14.183  -0.456  1.00  0.00     0.022 A 
HETATM   22  C   UNL     1      40.589 -14.657  -0.923  1.00  0.00     0.012 A 
HETATM   23 BR   UNL     1      41.067 -14.390  -2.734  1.00  0.00    -0.051 Br
HETATM   24  C   UNL     1      41.469 -15.323  -0.070  1.00  0.00     0.034 A 
BRANCH  19  25
HETATM   25  O   UNL     1      39.454 -15.209   3.029  1.00  0.00    -0.360 OA
HETATM   26  H   UNL     1      39.902 -15.997   3.414  1.00  0.00     0.217 HD
ENDBRANCH  19  25
ENDBRANCH  17  18
ENDBRANCH   2  16
TORSDOF 5
ENDMDL
MODEL 8
REMARK VINA RESULT:      -7.7      5.629      7.774
REMARK  5 active torsions:
REMARK  status: ('A' for Active; 'I' for Inactive)
REMARK    1  A    between atoms: C_8  and  C_9 
REMARK    2  A    between atoms: C_9  and  C_10 
REMARK       I    between atoms: C_10  and  N_11 
REMARK    3  A    between atoms: N_11  and  N_12 
REMARK    4  A    between atoms: C_13  and  C_14 
REMARK    5  A    between atoms: C_15  and  O_16 
ROOT
HETATM    1  C   UNL     1      43.117 -17.636   1.233  1.00  0.00     0.241 C 
HETATM    2  N   UNL     1      41.933 -17.018   0.844  1.00  0.00    -0.247 N 
HETATM    3  O   UNL     1      44.212 -17.076   1.282  1.00  0.00    -0.271 OA
HETATM    4  H   UNL     1      41.089 -17.574   0.747  1.00  0.00     0.192 HD
ENDROOT
BRANCH   1   5
HETATM    5  C   UNL     1      42.933 -19.082   1.669  1.00  0.00     0.145 C 
BRANCH   5   6
HETATM    6  C   UNL     1      43.669 -19.380   2.938  1.00  0.00    -0.021 A 
HETATM    7  C   UNL     1      43.400 -18.848   4.242  1.00  0.00    -0.001 A 
HETATM    8  C   UNL     1      42.472 -17.915   4.752  1.00  0.00     0.014 A 
HETATM    9  C   UNL     1      44.280 -19.464   5.132  1.00  0.00     0.042 A 
HETATM   10  C   UNL     1      42.452 -17.645   6.125  1.00  0.00     0.001 A 
HETATM   11  C   UNL     1      43.337 -18.285   6.988  1.00  0.00     0.002 A 
HETATM   12  C   UNL     1      44.272 -19.206   6.508  1.00  0.00     0.030 A 
HETATM   13  N   UNL     1      45.081 -20.306   4.397  1.00  0.00    -0.365 N 
HETATM   14  H   UNL     1      45.818 -20.881   4.782  1.00  0.00     0.165 HD
HETATM   15  C   UNL     1      44.720 -20.266   3.078  1.00  0.00     0.097 A 
ENDBRANCH   5   6
ENDBRANCH   1   5
BRANCH   2  16
HETATM   16  N   UNL     1      41.966 -15.765   0.314  1.00  0.00    -0.184 NA
HETATM   17  C   UNL     1      41.255 -15.599  -0.755  1.00  0.00     0.153 C 
BRANCH  17  18
HETATM   18  C   UNL     1      41.258 -14.311  -1.473  1.00  0.00     0.017 A 
HETATM   19  C   UNL     1      41.643 -14.209  -2.815  1.00  0.00     0.077 A 
HETATM   20  C   UNL     1      41.591 -12.980  -3.468  1.00  0.00     0.039 A 
HETATM   21  C   UNL     1      41.166 -11.843  -2.780  1.00  0.00     0.022 A 
HETATM   22  C   UNL     1      40.794 -11.945  -1.440  1.00  0.00     0.012 A 
HETATM   23 BR   UNL     1      40.224 -10.401  -0.506  1.00  0.00    -0.051 Br
HETATM   24  C   UNL     1      40.832 -13.173  -0.779  1.00  0.00     0.034 A 
BRANCH  19  25
HETATM   25  O   UNL     1      42.067 -15.275  -3.560  1.00  0.00    -0.360 OA
HETATM   26  H   UNL     1      42.927 -15.589  -3.197  1.00  0.00     0.217 HD
ENDBRANCH  19  25
ENDBRANCH  17  18
ENDBRANCH   2  16
TORSDOF 5
ENDMDL
MODEL 9
REMARK VINA RESULT:      -7.6      5.037      6.387
REMARK  5 active torsions:
REMARK  status: ('A' for Active; 'I' for Inactive)
REMARK    1  A    between atoms: C_8  and  C_9 
REMARK    2  A    between atoms: C_9  and  C_10 
REMARK       I    between atoms: C_10  and  N_11 
REMARK    3  A    between atoms: N_11  and  N_12 
REMARK    4  A    between atoms: C_13  and  C_14 
REMARK    5  A    between atoms: C_15  and  O_16 
ROOT
HETATM    1  C   UNL     1      41.709 -15.999   4.692  1.00  0.00     0.241 C 
HETATM    2  N   UNL     1      40.608 -15.702   3.897  1.00  0.00    -0.247 N 
HETATM    3  O   UNL     1      42.756 -15.351   4.705  1.00  0.00    -0.271 OA
HETATM    4  H   UNL     1      39.816 -16.338   3.883  1.00  0.00     0.192 HD
ENDROOT
BRANCH   1   5
HETATM    5  C   UNL     1      41.486 -17.184   5.621  1.00  0.00     0.145 C 
BRANCH   5   6
HETATM    6  C   UNL     1      42.615 -18.165   5.557  1.00  0.00    -0.021 A 
HETATM    7  C   UNL     1      43.131 -18.817   4.390  1.00  0.00    -0.001 A 
HETATM    8  C   UNL     1      42.781 -18.811   3.022  1.00  0.00     0.014 A 
HETATM    9  C   UNL     1      44.229 -19.580   4.791  1.00  0.00     0.042 A 
HETATM   10  C   UNL     1      43.544 -19.553   2.113  1.00  0.00     0.001 A 
HETATM   11  C   UNL     1      44.641 -20.295   2.545  1.00  0.00     0.002 A 
HETATM   12  C   UNL     1      45.003 -20.325   3.894  1.00  0.00     0.030 A 
HETATM   13  N   UNL     1      44.352 -19.433   6.152  1.00  0.00    -0.365 N 
HETATM   14  H   UNL     1      45.063 -19.878   6.717  1.00  0.00     0.165 HD
HETATM   15  C   UNL     1      43.389 -18.582   6.623  1.00  0.00     0.097 A 
ENDBRANCH   5   6
ENDBRANCH   1   5
BRANCH   2  16
HETATM   16  N   UNL     1      40.708 -14.747   2.933  1.00  0.00    -0.184 NA
HETATM   17  C   UNL     1      41.239 -15.139   1.820  1.00  0.00     0.153 C 
BRANCH  17  18
HETATM   18  C   UNL     1      41.474 -14.188   0.717  1.00  0.00     0.017 A 
HETATM   19  C   UNL     1      42.062 -12.936   0.929  1.00  0.00     0.077 A 
HETATM   20  C   UNL     1      42.304 -12.083  -0.146  1.00  0.00     0.039 A 
HETATM   21  C   UNL     1      41.950 -12.474  -1.438  1.00  0.00     0.022 A 
HETATM   22  C   UNL     1      41.355 -13.719  -1.645  1.00  0.00     0.012 A 
HETATM   23 BR   UNL     1      40.869 -14.245  -3.397  1.00  0.00    -0.051 Br
HETATM   24  C   UNL     1      41.117 -14.583  -0.577  1.00  0.00     0.034 A 
BRANCH  19  25
HETATM   25  O   UNL     1      42.441 -12.480   2.162  1.00  0.00    -0.360 OA
HETATM   26  H   UNL     1      41.632 -12.345   2.709  1.00  0.00     0.217 HD
ENDBRANCH  19  25
ENDBRANCH  17  18
ENDBRANCH   2  16
TORSDOF 5
ENDMDL
MODEL 10
REMARK VINA RESULT:      -7.6      6.259      8.558
REMARK  5 active torsions:
REMARK  status: ('A' for Active; 'I' for Inactive)
REMARK    1  A    between atoms: C_8  and  C_9 
REMARK    2  A    between atoms: C_9  and  C_10 
REMARK       I    between atoms: C_10  and  N_11 
REMARK    3  A    between atoms: N_11  and  N_12 
REMARK    4  A    between atoms: C_13  and  C_14 
REMARK    5  A    between atoms: C_15  and  O_16 
ROOT
HETATM    1  C   UNL     1      41.727 -15.447   0.366  1.00  0.00     0.241 C 
HETATM    2  N   UNL     1      42.076 -15.240   1.696  1.00  0.00    -0.247 N 
HETATM    3  O   UNL     1      41.467 -16.546  -0.124  1.00  0.00    -0.271 OA
HETATM    4  H   UNL     1      42.360 -14.313   1.999  1.00  0.00     0.192 HD
ENDROOT
BRANCH   1   5
HETATM    5  C   UNL     1      41.623 -14.162  -0.442  1.00  0.00     0.145 C 
BRANCH   5   6
HETATM    6  C   UNL     1      40.242 -13.952  -0.983  1.00  0.00    -0.021 A 
HETATM    7  C   UNL     1      39.664 -14.560  -2.144  1.00  0.00    -0.001 A 
HETATM    8  C   UNL     1      40.140 -15.454  -3.128  1.00  0.00     0.014 A 
HETATM    9  C   UNL     1      38.337 -14.135  -2.219  1.00  0.00     0.042 A 
HETATM   10  C   UNL     1      39.273 -15.895  -4.135  1.00  0.00     0.001 A 
HETATM   11  C   UNL     1      37.951 -15.460  -4.174  1.00  0.00     0.002 A 
HETATM   12  C   UNL     1      37.458 -14.568  -3.218  1.00  0.00     0.030 A 
HETATM   13  N   UNL     1      38.126 -13.271  -1.172  1.00  0.00    -0.365 N 
HETATM   14  H   UNL     1      37.251 -12.803  -0.979  1.00  0.00     0.165 HD
HETATM   15  C   UNL     1      39.263 -13.155  -0.420  1.00  0.00     0.097 A 
ENDBRANCH   5   6
ENDBRANCH   1   5
BRANCH   2  16
HETATM   16  N   UNL     1      42.325 -16.306   2.504  1.00  0.00    -0.184 NA
HETATM   17  C   UNL     1      43.492 -16.849   2.357  1.00  0.00     0.153 C 
BRANCH  17  18
HETATM   18  C   UNL     1      43.865 -18.057   3.118  1.00  0.00     0.017 A 
HETATM   19  C   UNL     1      44.028 -18.038   4.508  1.00  0.00     0.077 A 
HETATM   20  C   UNL     1      44.339 -19.210   5.193  1.00  0.00     0.039 A 
HETATM   21  C   UNL     1      44.502 -20.405   4.491  1.00  0.00     0.022 A 
HETATM   22  C   UNL     1      44.349 -20.419   3.105  1.00  0.00     0.012 A 
HETATM   23 BR   UNL     1      44.576 -22.039   2.154  1.00  0.00    -0.051 Br
HETATM   24  C   UNL     1      44.028 -19.253   2.410  1.00  0.00     0.034 A 
BRANCH  19  25
HETATM   25  O   UNL     1      43.882 -16.911   5.269  1.00  0.00    -0.360 OA
HETATM   26  H   UNL     1      44.608 -16.885   5.934  1.00  0.00     0.217 HD
ENDBRANCH  19  25
ENDBRANCH  17  18
ENDBRANCH   2  16
TORSDOF 5
ENDMDL
