MODEL 1
REMARK VINA RESULT:      -8.6      0.000      0.000
REMARK  7 active torsions:
REMARK  status: ('A' for Active; 'I' for Inactive)
REMARK    1  A    between atoms: O_2  and  C_3 
REMARK    2  A    between atoms: C_5  and  C_6 
REMARK    3  A    between atoms: C_6  and  N_7 
REMARK    4  A    between atoms: C_6  and  C_13 
REMARK    5  A    between atoms: C_13  and  N_14 
REMARK       I    between atoms: N_14  and  C_15 
REMARK       I    between atoms: C_15  and  N_16 
REMARK    6  A    between atoms: N_16  and  C_17 
REMARK    7  A    between atoms: C_18  and  O_19 
ROOT
HETATM    1  N   UNL     1      41.177 -17.316   2.148  1.00  0.00    -0.341 N 
HETATM    2  C   UNL     1      42.478 -17.716   2.213  1.00  0.00     0.316 C 
HETATM    3  N   UNL     1      42.839 -18.156   3.445  1.00  0.00    -0.332 N 
HETATM    4  O   UNL     1      43.225 -17.682   1.240  1.00  0.00    -0.247 OA
HETATM    5  H   UNL     1      40.684 -17.293   3.032  1.00  0.00     0.164 HD
HETATM    6  H   UNL     1      42.275 -17.876   4.235  1.00  0.00     0.165 HD
ENDROOT
BRANCH   1   7
HETATM    7  C   UNL     1      40.656 -16.450   1.094  1.00  0.00     0.162 C 
BRANCH   7   8
HETATM    8  C   UNL     1      41.403 -15.092   0.870  1.00  0.00     0.238 C 
BRANCH   8   9
HETATM    9  C   UNL     1      41.422 -14.661  -0.588  1.00  0.00    -0.023 A 
HETATM   10  C   UNL     1      40.888 -15.512  -1.571  1.00  0.00     0.046 A 
HETATM   11  C   UNL     1      40.916 -15.175  -2.929  1.00  0.00     0.068 A 
HETATM   12  C   UNL     1      41.474 -13.960  -3.320  1.00  0.00     0.037 A 
HETATM   13  C   UNL     1      42.000 -13.095  -2.360  1.00  0.00     0.003 A 
HETATM   14  C   UNL     1      41.978 -13.440  -1.008  1.00  0.00     0.009 A 
BRANCH  11  15
HETATM   15  O   UNL     1      40.373 -16.117  -3.757  1.00  0.00    -0.356 OA
HETATM   16  C   UNL     1      38.976 -16.020  -4.016  1.00  0.00     0.210 C 
ENDBRANCH  11  15
ENDBRANCH   8   9
BRANCH   8  17
HETATM   17  N   UNL     1      40.884 -14.018   1.826  1.00  0.00    -0.061 N 
HETATM   18  H   UNL     1      40.644 -13.222   1.202  1.00  0.00     0.280 HD
HETATM   19  C   UNL     1      41.829 -13.450   2.842  1.00  0.00     0.236 C 
HETATM   20  C   UNL     1      41.508 -14.195   4.119  1.00  0.00     0.029 C 
HETATM   21  C   UNL     1      40.029 -14.522   4.030  1.00  0.00     0.029 C 
HETATM   22  C   UNL     1      39.624 -14.362   2.573  1.00  0.00     0.236 C 
ENDBRANCH   8  17
ENDBRANCH   7   8
ENDBRANCH   1   7
BRANCH   3  23
HETATM   23  C   UNL     1      44.219 -18.497   3.766  1.00  0.00     0.149 C 
HETATM   24  C   UNL     1      44.615 -18.238   5.259  1.00  0.00     0.149 C 
HETATM   25  C   UNL     1      44.257 -19.524   6.027  1.00  0.00     0.073 C 
HETATM   26  C   UNL     1      44.414 -20.561   4.960  1.00  0.00    -0.047 A 
HETATM   27  C   UNL     1      44.410 -19.985   3.683  1.00  0.00    -0.026 A 
HETATM   28  C   UNL     1      44.517 -21.932   5.126  1.00  0.00     0.008 A 
HETATM   29  C   UNL     1      44.516 -20.771   2.546  1.00  0.00     0.010 A 
HETATM   30  C   UNL     1      44.633 -22.154   2.706  1.00  0.00     0.001 A 
HETATM   31  C   UNL     1      44.633 -22.730   3.986  1.00  0.00     0.001 A 
BRANCH  24  32
HETATM   32  O   UNL     1      43.976 -17.106   5.845  1.00  0.00    -0.393 OA
HETATM   33  H   UNL     1      44.228 -17.109   6.787  1.00  0.00     0.210 HD
ENDBRANCH  24  32
ENDBRANCH   3  23
TORSDOF 7
ENDMDL
MODEL 2
REMARK VINA RESULT:      -8.5      1.590      4.608
REMARK  7 active torsions:
REMARK  status: ('A' for Active; 'I' for Inactive)
REMARK    1  A    between atoms: O_2  and  C_3 
REMARK    2  A    between atoms: C_5  and  C_6 
REMARK    3  A    between atoms: C_6  and  N_7 
REMARK    4  A    between atoms: C_6  and  C_13 
REMARK    5  A    between atoms: C_13  and  N_14 
REMARK       I    between atoms: N_14  and  C_15 
REMARK       I    between atoms: C_15  and  N_16 
REMARK    6  A    between atoms: N_16  and  C_17 
REMARK    7  A    between atoms: C_18  and  O_19 
ROOT
HETATM    1  N   UNL     1      40.760 -17.349   2.902  1.00  0.00    -0.341 N 
HETATM    2  C   UNL     1      42.060 -17.721   2.732  1.00  0.00     0.316 C 
HETATM    3  N   UNL     1      42.644 -18.156   3.878  1.00  0.00    -0.332 N 
HETATM    4  O   UNL     1      42.621 -17.669   1.641  1.00  0.00    -0.247 OA
HETATM    5  H   UNL     1      40.432 -17.339   3.860  1.00  0.00     0.164 HD
HETATM    6  H   UNL     1      42.225 -17.889   4.756  1.00  0.00     0.165 HD
ENDROOT
BRANCH   1   7
HETATM    7  C   UNL     1      40.041 -16.494   1.962  1.00  0.00     0.162 C 
BRANCH   7   8
HETATM    8  C   UNL     1      40.440 -14.980   1.949  1.00  0.00     0.238 C 
BRANCH   8   9
HETATM    9  C   UNL     1      40.845 -14.463   3.321  1.00  0.00    -0.023 A 
HETATM   10  C   UNL     1      42.202 -14.222   3.599  1.00  0.00     0.046 A 
HETATM   11  C   UNL     1      42.627 -13.781   4.857  1.00  0.00     0.068 A 
HETATM   12  C   UNL     1      41.685 -13.560   5.858  1.00  0.00     0.037 A 
HETATM   13  C   UNL     1      40.331 -13.782   5.600  1.00  0.00     0.003 A 
HETATM   14  C   UNL     1      39.914 -14.230   4.347  1.00  0.00     0.009 A 
BRANCH  11  15
HETATM   15  O   UNL     1      43.978 -13.613   4.970  1.00  0.00    -0.356 OA
HETATM   16  C   UNL     1      44.564 -13.929   6.229  1.00  0.00     0.210 C 
ENDBRANCH  11  15
ENDBRANCH   8   9
BRANCH   8  17
HETATM   17  N   UNL     1      41.466 -14.694   0.853  1.00  0.00    -0.061 N 
HETATM   18  H   UNL     1      42.370 -14.987   1.273  1.00  0.00     0.280 HD
HETATM   19  C   UNL     1      41.675 -13.272   0.424  1.00  0.00     0.236 C 
HETATM   20  C   UNL     1      40.856 -13.130  -0.839  1.00  0.00     0.029 C 
HETATM   21  C   UNL     1      40.874 -14.505  -1.484  1.00  0.00     0.029 C 
HETATM   22  C   UNL     1      41.310 -15.492  -0.412  1.00  0.00     0.236 C 
ENDBRANCH   8  17
ENDBRANCH   7   8
ENDBRANCH   1   7
BRANCH   3  23
HETATM   23  C   UNL     1      44.066 -18.467   3.945  1.00  0.00     0.149 C 
HETATM   24  C   UNL     1      44.687 -18.327   5.376  1.00  0.00     0.149 C 
HETATM   25  C   UNL     1      44.490 -19.691   6.064  1.00  0.00     0.073 C 
HETATM   26  C   UNL     1      44.504 -20.621   4.891  1.00  0.00    -0.047 A 
HETATM   27  C   UNL     1      44.281 -19.932   3.691  1.00  0.00    -0.026 A 
HETATM   28  C   UNL     1      44.667 -21.996   4.907  1.00  0.00     0.008 A 
HETATM   29  C   UNL     1      44.226 -20.607   2.482  1.00  0.00     0.010 A 
HETATM   30  C   UNL     1      44.404 -21.992   2.488  1.00  0.00     0.001 A 
HETATM   31  C   UNL     1      44.622 -22.681   3.691  1.00  0.00     0.001 A 
BRANCH  24  32
HETATM   32  O   UNL     1      44.120 -17.280   6.160  1.00  0.00    -0.393 OA
HETATM   33  H   UNL     1      43.433 -17.697   6.714  1.00  0.00     0.210 HD
ENDBRANCH  24  32
ENDBRANCH   3  23
TORSDOF 7
ENDMDL
MODEL 3
REMARK VINA RESULT:      -8.4      2.313      8.477
REMARK  7 active torsions:
REMARK  status: ('A' for Active; 'I' for Inactive)
REMARK    1  A    between atoms: O_2  and  C_3 
REMARK    2  A    between atoms: C_5  and  C_6 
REMARK    3  A    between atoms: C_6  and  N_7 
REMARK    4  A    between atoms: C_6  and  C_13 
REMARK    5  A    between atoms: C_13  and  N_14 
REMARK       I    between atoms: N_14  and  C_15 
REMARK       I    between atoms: C_15  and  N_16 
REMARK    6  A    between atoms: N_16  and  C_17 
REMARK    7  A    between atoms: C_18  and  O_19 
ROOT
HETATM    1  N   UNL     1      42.048 -15.915   1.162  1.00  0.00    -0.341 N 
HETATM    2  C   UNL     1      41.923 -14.728   0.504  1.00  0.00     0.316 C 
HETATM    3  N   UNL     1      41.466 -14.869  -0.766  1.00  0.00    -0.332 N 
HETATM    4  O   UNL     1      42.193 -13.653   1.032  1.00  0.00    -0.247 OA
HETATM    5  H   UNL     1      41.894 -16.743   0.600  1.00  0.00     0.164 HD
HETATM    6  H   UNL     1      41.557 -15.773  -1.207  1.00  0.00     0.165 HD
ENDROOT
BRANCH   1   7
HETATM    7  C   UNL     1      42.871 -16.088   2.356  1.00  0.00     0.162 C 
BRANCH   7   8
HETATM    8  C   UNL     1      42.404 -17.180   3.376  1.00  0.00     0.238 C 
BRANCH   8   9
HETATM    9  C   UNL     1      43.059 -18.532   3.137  1.00  0.00    -0.023 A 
HETATM   10  C   UNL     1      43.760 -19.158   4.181  1.00  0.00     0.046 A 
HETATM   11  C   UNL     1      44.410 -20.384   3.999  1.00  0.00     0.068 A 
HETATM   12  C   UNL     1      44.351 -21.010   2.757  1.00  0.00     0.037 A 
HETATM   13  C   UNL     1      43.650 -20.412   1.709  1.00  0.00     0.003 A 
HETATM   14  C   UNL     1      43.012 -19.185   1.893  1.00  0.00     0.009 A 
BRANCH  11  15
HETATM   15  O   UNL     1      45.062 -20.849   5.106  1.00  0.00    -0.356 OA
HETATM   16  C   UNL     1      45.183 -22.262   5.237  1.00  0.00     0.210 C 
ENDBRANCH  11  15
ENDBRANCH   8   9
BRANCH   8  17
HETATM   17  N   UNL     1      42.531 -16.677   4.813  1.00  0.00    -0.061 N 
HETATM   18  H   UNL     1      43.286 -17.267   5.219  1.00  0.00     0.280 HD
HETATM   19  C   UNL     1      41.361 -16.848   5.736  1.00  0.00     0.236 C 
HETATM   20  C   UNL     1      40.675 -15.500   5.733  1.00  0.00     0.029 C 
HETATM   21  C   UNL     1      41.783 -14.487   5.511  1.00  0.00     0.029 C 
HETATM   22  C   UNL     1      42.982 -15.251   4.969  1.00  0.00     0.236 C 
ENDBRANCH   8  17
ENDBRANCH   7   8
ENDBRANCH   1   7
BRANCH   3  23
HETATM   23  C   UNL     1      41.394 -13.741  -1.686  1.00  0.00     0.149 C 
HETATM   24  C   UNL     1      41.461 -14.141  -3.199  1.00  0.00     0.149 C 
HETATM   25  C   UNL     1      40.010 -14.420  -3.634  1.00  0.00     0.073 C 
HETATM   26  C   UNL     1      39.246 -13.516  -2.716  1.00  0.00    -0.047 A 
HETATM   27  C   UNL     1      40.029 -13.118  -1.624  1.00  0.00    -0.026 A 
HETATM   28  C   UNL     1      37.927 -13.112  -2.837  1.00  0.00     0.008 A 
HETATM   29  C   UNL     1      39.507 -12.300  -0.635  1.00  0.00     0.010 A 
HETATM   30  C   UNL     1      38.182 -11.876  -0.756  1.00  0.00     0.001 A 
HETATM   31  C   UNL     1      37.397 -12.280  -1.848  1.00  0.00     0.001 A 
BRANCH  24  32
HETATM   32  O   UNL     1      42.294 -15.266  -3.470  1.00  0.00    -0.393 OA
HETATM   33  H   UNL     1      42.421 -15.284  -4.437  1.00  0.00     0.210 HD
ENDBRANCH  24  32
ENDBRANCH   3  23
TORSDOF 7
ENDMDL
MODEL 4
REMARK VINA RESULT:      -8.4      2.282      3.969
REMARK  7 active torsions:
REMARK  status: ('A' for Active; 'I' for Inactive)
REMARK    1  A    between atoms: O_2  and  C_3 
REMARK    2  A    between atoms: C_5  and  C_6 
REMARK    3  A    between atoms: C_6  and  N_7 
REMARK    4  A    between atoms: C_6  and  C_13 
REMARK    5  A    between atoms: C_13  and  N_14 
REMARK       I    between atoms: N_14  and  C_15 
REMARK       I    between atoms: C_15  and  N_16 
REMARK    6  A    between atoms: N_16  and  C_17 
REMARK    7  A    between atoms: C_18  and  O_19 
ROOT
HETATM    1  N   UNL     1      41.119 -16.718   3.532  1.00  0.00    -0.341 N 
HETATM    2  C   UNL     1      42.450 -16.998   3.433  1.00  0.00     0.316 C 
HETATM    3  N   UNL     1      42.820 -18.086   4.156  1.00  0.00    -0.332 N 
HETATM    4  O   UNL     1      43.212 -16.325   2.746  1.00  0.00    -0.247 OA
HETATM    5  H   UNL     1      40.606 -17.276   4.203  1.00  0.00     0.164 HD
HETATM    6  H   UNL     1      42.216 -18.387   4.906  1.00  0.00     0.165 HD
ENDROOT
BRANCH   1   7
HETATM    7  C   UNL     1      40.546 -15.417   3.199  1.00  0.00     0.162 C 
BRANCH   7   8
HETATM    8  C   UNL     1      40.077 -15.218   1.718  1.00  0.00     0.238 C 
BRANCH   8   9
HETATM    9  C   UNL     1      39.111 -14.054   1.555  1.00  0.00    -0.023 A 
HETATM   10  C   UNL     1      39.302 -12.883   2.309  1.00  0.00     0.046 A 
HETATM   11  C   UNL     1      38.420 -11.800   2.220  1.00  0.00     0.068 A 
HETATM   12  C   UNL     1      37.332 -11.875   1.354  1.00  0.00     0.037 A 
HETATM   13  C   UNL     1      37.130 -13.024   0.588  1.00  0.00     0.003 A 
HETATM   14  C   UNL     1      38.008 -14.104   0.687  1.00  0.00     0.009 A 
BRANCH  11  15
HETATM   15  O   UNL     1      38.734 -10.746   3.030  1.00  0.00    -0.356 OA
HETATM   16  C   UNL     1      38.640 -10.963   4.435  1.00  0.00     0.210 C 
ENDBRANCH  11  15
ENDBRANCH   8   9
BRANCH   8  17
HETATM   17  N   UNL     1      41.273 -15.167   0.768  1.00  0.00    -0.061 N 
HETATM   18  H   UNL     1      42.093 -15.317   1.389  1.00  0.00     0.280 HD
HETATM   19  C   UNL     1      41.557 -13.883   0.046  1.00  0.00     0.236 C 
HETATM   20  C   UNL     1      40.961 -14.081  -1.330  1.00  0.00     0.029 C 
HETATM   21  C   UNL     1      41.081 -15.569  -1.608  1.00  0.00     0.029 C 
HETATM   22  C   UNL     1      41.327 -16.252  -0.272  1.00  0.00     0.236 C 
ENDBRANCH   8  17
ENDBRANCH   7   8
ENDBRANCH   1   7
BRANCH   3  23
HETATM   23  C   UNL     1      44.218 -18.472   4.300  1.00  0.00     0.149 C 
HETATM   24  C   UNL     1      44.723 -18.517   5.782  1.00  0.00     0.149 C 
HETATM   25  C   UNL     1      44.413 -19.935   6.298  1.00  0.00     0.073 C 
HETATM   26  C   UNL     1      44.487 -20.734   5.034  1.00  0.00    -0.047 A 
HETATM   27  C   UNL     1      44.393 -19.911   3.903  1.00  0.00    -0.026 A 
HETATM   28  C   UNL     1      44.592 -22.109   4.911  1.00  0.00     0.008 A 
HETATM   29  C   UNL     1      44.411 -20.450   2.627  1.00  0.00     0.010 A 
HETATM   30  C   UNL     1      44.531 -21.835   2.494  1.00  0.00     0.001 A 
HETATM   31  C   UNL     1      44.620 -22.658   3.627  1.00  0.00     0.001 A 
BRANCH  24  32
HETATM   32  O   UNL     1      44.135 -17.532   6.629  1.00  0.00    -0.393 OA
HETATM   33  H   UNL     1      44.792 -16.815   6.709  1.00  0.00     0.210 HD
ENDBRANCH  24  32
ENDBRANCH   3  23
TORSDOF 7
ENDMDL
MODEL 5
REMARK VINA RESULT:      -8.3      5.308      9.392
REMARK  7 active torsions:
REMARK  status: ('A' for Active; 'I' for Inactive)
REMARK    1  A    between atoms: O_2  and  C_3 
REMARK    2  A    between atoms: C_5  and  C_6 
REMARK    3  A    between atoms: C_6  and  N_7 
REMARK    4  A    between atoms: C_6  and  C_13 
REMARK    5  A    between atoms: C_13  and  N_14 
REMARK       I    between atoms: N_14  and  C_15 
REMARK       I    between atoms: C_15  and  N_16 
REMARK    6  A    between atoms: N_16  and  C_17 
REMARK    7  A    between atoms: C_18  and  O_19 
ROOT
HETATM    1  N   UNL     1      39.822 -13.422   6.630  1.00  0.00    -0.341 N 
HETATM    2  C   UNL     1      40.301 -12.184   6.938  1.00  0.00     0.316 C 
HETATM    3  N   UNL     1      40.065 -11.827   8.226  1.00  0.00    -0.332 N 
HETATM    4  O   UNL     1      40.891 -11.486   6.118  1.00  0.00    -0.247 OA
HETATM    5  H   UNL     1      39.266 -13.865   7.351  1.00  0.00     0.164 HD
HETATM    6  H   UNL     1      39.334 -12.310   8.728  1.00  0.00     0.165 HD
ENDROOT
BRANCH   1   7
HETATM    7  C   UNL     1      39.586 -13.873   5.261  1.00  0.00     0.162 C 
BRANCH   7   8
HETATM    8  C   UNL     1      40.744 -14.678   4.581  1.00  0.00     0.238 C 
BRANCH   8   9
HETATM    9  C   UNL     1      41.682 -15.329   5.586  1.00  0.00    -0.023 A 
HETATM   10  C   UNL     1      42.928 -14.738   5.857  1.00  0.00     0.046 A 
HETATM   11  C   UNL     1      43.839 -15.319   6.746  1.00  0.00     0.068 A 
HETATM   12  C   UNL     1      43.501 -16.505   7.392  1.00  0.00     0.037 A 
HETATM   13  C   UNL     1      42.264 -17.103   7.147  1.00  0.00     0.003 A 
HETATM   14  C   UNL     1      41.363 -16.524   6.253  1.00  0.00     0.009 A 
BRANCH  11  15
HETATM   15  O   UNL     1      45.012 -14.631   6.884  1.00  0.00    -0.356 OA
HETATM   16  C   UNL     1      44.989 -13.479   7.721  1.00  0.00     0.210 C 
ENDBRANCH  11  15
ENDBRANCH   8   9
BRANCH   8  17
HETATM   17  N   UNL     1      40.196 -15.644   3.531  1.00  0.00    -0.061 N 
HETATM   18  H   UNL     1      39.534 -16.244   4.064  1.00  0.00     0.280 HD
HETATM   19  C   UNL     1      41.148 -16.598   2.873  1.00  0.00     0.236 C 
HETATM   20  C   UNL     1      41.478 -15.951   1.546  1.00  0.00     0.029 C 
HETATM   21  C   UNL     1      40.234 -15.170   1.161  1.00  0.00     0.029 C 
HETATM   22  C   UNL     1      39.397 -15.018   2.422  1.00  0.00     0.236 C 
ENDBRANCH   8  17
ENDBRANCH   7   8
ENDBRANCH   1   7
BRANCH   3  23
HETATM   23  C   UNL     1      40.369 -10.490   8.720  1.00  0.00     0.149 C 
HETATM   24  C   UNL     1      39.339  -9.941   9.765  1.00  0.00     0.149 C 
HETATM   25  C   UNL     1      39.829 -10.421  11.144  1.00  0.00     0.073 C 
HETATM   26  C   UNL     1      41.307 -10.504  10.922  1.00  0.00    -0.047 A 
HETATM   27  C   UNL     1      41.618 -10.527   9.556  1.00  0.00    -0.026 A 
HETATM   28  C   UNL     1      42.300 -10.591  11.883  1.00  0.00     0.008 A 
HETATM   29  C   UNL     1      42.931 -10.630   9.126  1.00  0.00     0.010 A 
HETATM   30  C   UNL     1      43.940 -10.704  10.089  1.00  0.00     0.001 A 
HETATM   31  C   UNL     1      43.626 -10.686  11.457  1.00  0.00     0.001 A 
BRANCH  24  32
HETATM   32  O   UNL     1      37.995 -10.357   9.534  1.00  0.00    -0.393 OA
HETATM   33  H   UNL     1      37.442  -9.560   9.640  1.00  0.00     0.210 HD
ENDBRANCH  24  32
ENDBRANCH   3  23
TORSDOF 7
ENDMDL
MODEL 6
REMARK VINA RESULT:      -8.3      2.168      8.790
REMARK  7 active torsions:
REMARK  status: ('A' for Active; 'I' for Inactive)
REMARK    1  A    between atoms: O_2  and  C_3 
REMARK    2  A    between atoms: C_5  and  C_6 
REMARK    3  A    between atoms: C_6  and  N_7 
REMARK    4  A    between atoms: C_6  and  C_13 
REMARK    5  A    between atoms: C_13  and  N_14 
REMARK       I    between atoms: N_14  and  C_15 
REMARK       I    between atoms: C_15  and  N_16 
REMARK    6  A    between atoms: N_16  and  C_17 
REMARK    7  A    between atoms: C_18  and  O_19 
ROOT
HETATM    1  N   UNL     1      41.035 -15.863   0.305  1.00  0.00    -0.341 N 
HETATM    2  C   UNL     1      41.085 -15.160  -0.861  1.00  0.00     0.316 C 
HETATM    3  N   UNL     1      40.005 -15.368  -1.655  1.00  0.00    -0.332 N 
HETATM    4  O   UNL     1      42.020 -14.414  -1.138  1.00  0.00    -0.247 OA
HETATM    5  H   UNL     1      40.270 -16.521   0.384  1.00  0.00     0.164 HD
HETATM    6  H   UNL     1      39.451 -16.197  -1.499  1.00  0.00     0.165 HD
ENDROOT
BRANCH   1   7
HETATM    7  C   UNL     1      42.209 -16.133   1.131  1.00  0.00     0.162 C 
BRANCH   7   8
HETATM    8  C   UNL     1      41.942 -16.744   2.548  1.00  0.00     0.238 C 
BRANCH   8   9
HETATM    9  C   UNL     1      42.792 -17.972   2.833  1.00  0.00    -0.023 A 
HETATM   10  C   UNL     1      43.515 -18.053   4.036  1.00  0.00     0.046 A 
HETATM   11  C   UNL     1      44.339 -19.146   4.326  1.00  0.00     0.068 A 
HETATM   12  C   UNL     1      44.438 -20.189   3.409  1.00  0.00     0.037 A 
HETATM   13  C   UNL     1      43.721 -20.135   2.214  1.00  0.00     0.003 A 
HETATM   14  C   UNL     1      42.908 -19.039   1.925  1.00  0.00     0.009 A 
BRANCH  11  15
HETATM   15  O   UNL     1      44.986 -19.063   5.527  1.00  0.00    -0.356 OA
HETATM   16  C   UNL     1      44.764 -17.886   6.299  1.00  0.00     0.210 C 
ENDBRANCH  11  15
ENDBRANCH   8   9
BRANCH   8  17
HETATM   17  N   UNL     1      42.026 -15.669   3.631  1.00  0.00    -0.061 N 
HETATM   18  H   UNL     1      42.660 -16.081   4.345  1.00  0.00     0.280 HD
HETATM   19  C   UNL     1      40.776 -15.310   4.378  1.00  0.00     0.236 C 
HETATM   20  C   UNL     1      40.280 -14.049   3.706  1.00  0.00     0.029 C 
HETATM   21  C   UNL     1      41.529 -13.340   3.213  1.00  0.00     0.029 C 
HETATM   22  C   UNL     1      42.651 -14.367   3.212  1.00  0.00     0.236 C 
ENDBRANCH   8  17
ENDBRANCH   7   8
ENDBRANCH   1   7
BRANCH   3  23
HETATM   23  C   UNL     1      39.927 -14.823  -3.005  1.00  0.00     0.149 C 
HETATM   24  C   UNL     1      39.064 -15.678  -3.994  1.00  0.00     0.149 C 
HETATM   25  C   UNL     1      37.617 -15.173  -3.848  1.00  0.00     0.073 C 
HETATM   26  C   UNL     1      37.838 -13.745  -3.455  1.00  0.00    -0.047 A 
HETATM   27  C   UNL     1      39.146 -13.540  -2.993  1.00  0.00    -0.026 A 
HETATM   28  C   UNL     1      36.916 -12.713  -3.475  1.00  0.00     0.008 A 
HETATM   29  C   UNL     1      39.557 -12.293  -2.551  1.00  0.00     0.010 A 
HETATM   30  C   UNL     1      38.637 -11.242  -2.581  1.00  0.00     0.001 A 
HETATM   31  C   UNL     1      37.326 -11.451  -3.039  1.00  0.00     0.001 A 
BRANCH  24  32
HETATM   32  O   UNL     1      39.133 -17.084  -3.765  1.00  0.00    -0.393 OA
HETATM   33  H   UNL     1      38.500 -17.274  -3.047  1.00  0.00     0.210 HD
ENDBRANCH  24  32
ENDBRANCH   3  23
TORSDOF 7
ENDMDL
MODEL 7
REMARK VINA RESULT:      -8.2      2.029      4.554
REMARK  7 active torsions:
REMARK  status: ('A' for Active; 'I' for Inactive)
REMARK    1  A    between atoms: O_2  and  C_3 
REMARK    2  A    between atoms: C_5  and  C_6 
REMARK    3  A    between atoms: C_6  and  N_7 
REMARK    4  A    between atoms: C_6  and  C_13 
REMARK    5  A    between atoms: C_13  and  N_14 
REMARK       I    between atoms: N_14  and  C_15 
REMARK       I    between atoms: C_15  and  N_16 
REMARK    6  A    between atoms: N_16  and  C_17 
REMARK    7  A    between atoms: C_18  and  O_19 
ROOT
HETATM    1  N   UNL     1      40.614 -17.158   2.906  1.00  0.00    -0.341 N 
HETATM    2  C   UNL     1      41.915 -17.493   2.678  1.00  0.00     0.316 C 
HETATM    3  N   UNL     1      42.534 -17.999   3.775  1.00  0.00    -0.332 N 
HETATM    4  O   UNL     1      42.447 -17.352   1.581  1.00  0.00    -0.247 OA
HETATM    5  H   UNL     1      40.310 -17.223   3.870  1.00  0.00     0.164 HD
HETATM    6  H   UNL     1      42.133 -17.805   4.680  1.00  0.00     0.165 HD
ENDROOT
BRANCH   1   7
HETATM    7  C   UNL     1      39.858 -16.249   2.049  1.00  0.00     0.162 C 
BRANCH   7   8
HETATM    8  C   UNL     1      40.198 -14.726   2.172  1.00  0.00     0.238 C 
BRANCH   8   9
HETATM    9  C   UNL     1      40.036 -14.196   3.589  1.00  0.00    -0.023 A 
HETATM   10  C   UNL     1      39.344 -12.992   3.805  1.00  0.00     0.046 A 
HETATM   11  C   UNL     1      39.200 -12.446   5.085  1.00  0.00     0.068 A 
HETATM   12  C   UNL     1      39.742 -13.117   6.178  1.00  0.00     0.037 A 
HETATM   13  C   UNL     1      40.423 -14.320   5.989  1.00  0.00     0.003 A 
HETATM   14  C   UNL     1      40.572 -14.855   4.709  1.00  0.00     0.009 A 
BRANCH  11  15
HETATM   15  O   UNL     1      38.518 -11.263   5.123  1.00  0.00    -0.356 OA
HETATM   16  C   UNL     1      38.854 -10.293   4.135  1.00  0.00     0.210 C 
ENDBRANCH  11  15
ENDBRANCH   8   9
BRANCH   8  17
HETATM   17  N   UNL     1      41.560 -14.417   1.550  1.00  0.00    -0.061 N 
HETATM   18  H   UNL     1      42.149 -15.230   1.819  1.00  0.00     0.280 HD
HETATM   19  C   UNL     1      42.309 -13.212   2.034  1.00  0.00     0.236 C 
HETATM   20  C   UNL     1      42.025 -12.146   0.999  1.00  0.00     0.029 C 
HETATM   21  C   UNL     1      41.841 -12.896  -0.308  1.00  0.00     0.029 C 
HETATM   22  C   UNL     1      41.591 -14.354   0.048  1.00  0.00     0.236 C 
ENDBRANCH   8  17
ENDBRANCH   7   8
ENDBRANCH   1   7
BRANCH   3  23
HETATM   23  C   UNL     1      43.962 -18.289   3.785  1.00  0.00     0.149 C 
HETATM   24  C   UNL     1      44.632 -18.170   5.196  1.00  0.00     0.149 C 
HETATM   25  C   UNL     1      44.480 -19.552   5.861  1.00  0.00     0.073 C 
HETATM   26  C   UNL     1      44.466 -20.456   4.668  1.00  0.00    -0.047 A 
HETATM   27  C   UNL     1      44.190 -19.745   3.491  1.00  0.00    -0.026 A 
HETATM   28  C   UNL     1      44.651 -21.828   4.648  1.00  0.00     0.008 A 
HETATM   29  C   UNL     1      44.102 -20.395   2.271  1.00  0.00     0.010 A 
HETATM   30  C   UNL     1      44.302 -21.777   2.240  1.00  0.00     0.001 A 
HETATM   31  C   UNL     1      44.573 -22.488   3.419  1.00  0.00     0.001 A 
BRANCH  24  32
HETATM   32  O   UNL     1      44.077 -17.150   6.022  1.00  0.00    -0.393 OA
HETATM   33  H   UNL     1      43.900 -17.566   6.887  1.00  0.00     0.210 HD
ENDBRANCH  24  32
ENDBRANCH   3  23
TORSDOF 7
ENDMDL
MODEL 8
REMARK VINA RESULT:      -8.1      4.370      8.532
REMARK  7 active torsions:
REMARK  status: ('A' for Active; 'I' for Inactive)
REMARK    1  A    between atoms: O_2  and  C_3 
REMARK    2  A    between atoms: C_5  and  C_6 
REMARK    3  A    between atoms: C_6  and  N_7 
REMARK    4  A    between atoms: C_6  and  C_13 
REMARK    5  A    between atoms: C_13  and  N_14 
REMARK       I    between atoms: N_14  and  C_15 
REMARK       I    between atoms: C_15  and  N_16 
REMARK    6  A    between atoms: N_16  and  C_17 
REMARK    7  A    between atoms: C_18  and  O_19 
ROOT
HETATM    1  N   UNL     1      40.842 -14.719   6.026  1.00  0.00    -0.341 N 
HETATM    2  C   UNL     1      41.389 -13.474   5.935  1.00  0.00     0.316 C 
HETATM    3  N   UNL     1      40.807 -12.575   6.769  1.00  0.00    -0.332 N 
HETATM    4  O   UNL     1      42.319 -13.219   5.176  1.00  0.00    -0.247 OA
HETATM    5  H   UNL     1      40.017 -14.791   6.609  1.00  0.00     0.164 HD
HETATM    6  H   UNL     1      39.884 -12.782   7.123  1.00  0.00     0.165 HD
ENDROOT
BRANCH   1   7
HETATM    7  C   UNL     1      40.995 -15.740   4.992  1.00  0.00     0.162 C 
BRANCH   7   8
HETATM    8  C   UNL     1      41.968 -16.923   5.317  1.00  0.00     0.238 C 
BRANCH   8   9
HETATM    9  C   UNL     1      42.728 -17.416   4.095  1.00  0.00    -0.023 A 
HETATM   10  C   UNL     1      43.080 -18.774   3.998  1.00  0.00     0.046 A 
HETATM   11  C   UNL     1      43.809 -19.268   2.911  1.00  0.00     0.068 A 
HETATM   12  C   UNL     1      44.186 -18.399   1.890  1.00  0.00     0.037 A 
HETATM   13  C   UNL     1      43.838 -17.050   1.960  1.00  0.00     0.003 A 
HETATM   14  C   UNL     1      43.118 -16.561   3.051  1.00  0.00     0.009 A 
BRANCH  11  15
HETATM   15  O   UNL     1      44.087 -20.604   2.977  1.00  0.00    -0.356 OA
HETATM   16  C   UNL     1      43.882 -21.364   1.789  1.00  0.00     0.210 C 
ENDBRANCH  11  15
ENDBRANCH   8   9
BRANCH   8  17
HETATM   17  N   UNL     1      42.866 -16.582   6.506  1.00  0.00    -0.061 N 
HETATM   18  H   UNL     1      42.518 -15.655   6.826  1.00  0.00     0.280 HD
HETATM   19  C   UNL     1      44.332 -16.387   6.261  1.00  0.00     0.236 C 
HETATM   20  C   UNL     1      44.962 -17.705   6.656  1.00  0.00     0.029 C 
HETATM   21  C   UNL     1      44.078 -18.256   7.760  1.00  0.00     0.029 C 
HETATM   22  C   UNL     1      42.759 -17.503   7.690  1.00  0.00     0.236 C 
ENDBRANCH   8  17
ENDBRANCH   7   8
ENDBRANCH   1   7
BRANCH   3  23
HETATM   23  C   UNL     1      41.146 -11.159   6.729  1.00  0.00     0.149 C 
HETATM   24  C   UNL     1      39.913 -10.207   6.564  1.00  0.00     0.149 C 
HETATM   25  C   UNL     1      39.407  -9.911   7.988  1.00  0.00     0.073 C 
HETATM   26  C   UNL     1      40.670 -10.028   8.783  1.00  0.00    -0.047 A 
HETATM   27  C   UNL     1      41.660 -10.718   8.070  1.00  0.00    -0.026 A 
HETATM   28  C   UNL     1      40.899  -9.580  10.073  1.00  0.00     0.008 A 
HETATM   29  C   UNL     1      42.902 -10.964   8.633  1.00  0.00     0.010 A 
HETATM   30  C   UNL     1      43.146 -10.502   9.928  1.00  0.00     0.001 A 
HETATM   31  C   UNL     1      42.151  -9.816  10.643  1.00  0.00     0.001 A 
BRANCH  24  32
HETATM   32  O   UNL     1      38.866 -10.741   5.757  1.00  0.00    -0.393 OA
HETATM   33  H   UNL     1      39.147 -11.642   5.509  1.00  0.00     0.210 HD
ENDBRANCH  24  32
ENDBRANCH   3  23
TORSDOF 7
ENDMDL
MODEL 9
REMARK VINA RESULT:      -7.9      2.454      7.441
REMARK  7 active torsions:
REMARK  status: ('A' for Active; 'I' for Inactive)
REMARK    1  A    between atoms: O_2  and  C_3 
REMARK    2  A    between atoms: C_5  and  C_6 
REMARK    3  A    between atoms: C_6  and  N_7 
REMARK    4  A    between atoms: C_6  and  C_13 
REMARK    5  A    between atoms: C_13  and  N_14 
REMARK       I    between atoms: N_14  and  C_15 
REMARK       I    between atoms: C_15  and  N_16 
REMARK    6  A    between atoms: N_16  and  C_17 
REMARK    7  A    between atoms: C_18  and  O_19 
ROOT
HETATM    1  N   UNL     1      40.715 -15.905   3.920  1.00  0.00    -0.341 N 
HETATM    2  C   UNL     1      40.536 -14.635   3.458  1.00  0.00     0.316 C 
HETATM    3  N   UNL     1      40.304 -14.583   2.122  1.00  0.00    -0.332 N 
HETATM    4  O   UNL     1      40.576 -13.656   4.197  1.00  0.00    -0.247 OA
HETATM    5  H   UNL     1      40.761 -16.624   3.209  1.00  0.00     0.164 HD
HETATM    6  H   UNL     1      40.581 -15.374   1.559  1.00  0.00     0.165 HD
ENDROOT
BRANCH   1   7
HETATM    7  C   UNL     1      41.360 -16.212   5.194  1.00  0.00     0.162 C 
BRANCH   7   8
HETATM    8  C   UNL     1      42.509 -17.276   5.158  1.00  0.00     0.238 C 
BRANCH   8   9
HETATM    9  C   UNL     1      42.990 -17.579   3.747  1.00  0.00    -0.023 A 
HETATM   10  C   UNL     1      42.935 -18.897   3.263  1.00  0.00     0.046 A 
HETATM   11  C   UNL     1      43.399 -19.231   1.986  1.00  0.00     0.068 A 
HETATM   12  C   UNL     1      43.917 -18.233   1.165  1.00  0.00     0.037 A 
HETATM   13  C   UNL     1      43.971 -16.916   1.621  1.00  0.00     0.003 A 
HETATM   14  C   UNL     1      43.515 -16.589   2.899  1.00  0.00     0.009 A 
BRANCH  11  15
HETATM   15  O   UNL     1      43.292 -20.557   1.674  1.00  0.00    -0.356 OA
HETATM   16  C   UNL     1      44.217 -21.443   2.299  1.00  0.00     0.210 C 
ENDBRANCH  11  15
ENDBRANCH   8   9
BRANCH   8  17
HETATM   17  N   UNL     1      43.630 -16.903   6.127  1.00  0.00    -0.061 N 
HETATM   18  H   UNL     1      44.120 -16.118   5.653  1.00  0.00     0.280 HD
HETATM   19  C   UNL     1      44.697 -17.918   6.409  1.00  0.00     0.236 C 
HETATM   20  C   UNL     1      44.289 -18.543   7.725  1.00  0.00     0.029 C 
HETATM   21  C   UNL     1      43.566 -17.443   8.482  1.00  0.00     0.029 C 
HETATM   22  C   UNL     1      43.189 -16.377   7.465  1.00  0.00     0.236 C 
ENDBRANCH   8  17
ENDBRANCH   7   8
ENDBRANCH   1   7
BRANCH   3  23
HETATM   23  C   UNL     1      40.225 -13.316   1.406  1.00  0.00     0.149 C 
HETATM   24  C   UNL     1      41.616 -12.720   1.000  1.00  0.00     0.149 C 
HETATM   25  C   UNL     1      41.958 -13.326  -0.374  1.00  0.00     0.073 C 
HETATM   26  C   UNL     1      40.594 -13.553  -0.947  1.00  0.00    -0.047 A 
HETATM   27  C   UNL     1      39.611 -13.533   0.052  1.00  0.00    -0.026 A 
HETATM   28  C   UNL     1      40.265 -13.800  -2.269  1.00  0.00     0.008 A 
HETATM   29  C   UNL     1      38.277 -13.750  -0.257  1.00  0.00     0.010 A 
HETATM   30  C   UNL     1      37.936 -13.985  -1.590  1.00  0.00     0.001 A 
HETATM   31  C   UNL     1      38.922 -14.011  -2.589  1.00  0.00     0.001 A 
BRANCH  24  32
HETATM   32  O   UNL     1      42.658 -12.977   1.938  1.00  0.00    -0.393 OA
HETATM   33  H   UNL     1      43.496 -12.831   1.460  1.00  0.00     0.210 HD
ENDBRANCH  24  32
ENDBRANCH   3  23
TORSDOF 7
ENDMDL
MODEL 10
REMARK VINA RESULT:      -7.9      2.991      4.651
REMARK  7 active torsions:
REMARK  status: ('A' for Active; 'I' for Inactive)
REMARK    1  A    between atoms: O_2  and  C_3 
REMARK    2  A    between atoms: C_5  and  C_6 
REMARK    3  A    between atoms: C_6  and  N_7 
REMARK    4  A    between atoms: C_6  and  C_13 
REMARK    5  A    between atoms: C_13  and  N_14 
REMARK       I    between atoms: N_14  and  C_15 
REMARK       I    between atoms: C_15  and  N_16 
REMARK    6  A    between atoms: N_16  and  C_17 
REMARK    7  A    between atoms: C_18  and  O_19 
ROOT
HETATM    1  N   UNL     1      38.807 -14.890   1.348  1.00  0.00    -0.341 N 
HETATM    2  C   UNL     1      40.002 -14.751   1.989  1.00  0.00     0.316 C 
HETATM    3  N   UNL     1      40.084 -15.486   3.127  1.00  0.00    -0.332 N 
HETATM    4  O   UNL     1      40.899 -14.034   1.556  1.00  0.00    -0.247 OA
HETATM    5  H   UNL     1      38.106 -15.426   1.845  1.00  0.00     0.164 HD
HETATM    6  H   UNL     1      39.225 -15.796   3.557  1.00  0.00     0.165 HD
ENDROOT
BRANCH   1   7
HETATM    7  C   UNL     1      38.313 -13.938   0.357  1.00  0.00     0.162 C 
BRANCH   7   8
HETATM    8  C   UNL     1      38.737 -14.192  -1.129  1.00  0.00     0.238 C 
BRANCH   8   9
HETATM    9  C   UNL     1      37.831 -13.493  -2.131  1.00  0.00    -0.023 A 
HETATM   10  C   UNL     1      37.386 -14.189  -3.268  1.00  0.00     0.046 A 
HETATM   11  C   UNL     1      36.581 -13.577  -4.236  1.00  0.00     0.068 A 
HETATM   12  C   UNL     1      36.197 -12.250  -4.065  1.00  0.00     0.037 A 
HETATM   13  C   UNL     1      36.617 -11.544  -2.937  1.00  0.00     0.003 A 
HETATM   14  C   UNL     1      37.427 -12.156  -1.980  1.00  0.00     0.009 A 
BRANCH  11  15
HETATM   15  O   UNL     1      36.251 -14.383  -5.289  1.00  0.00    -0.356 OA
HETATM   16  C   UNL     1      35.344 -13.850  -6.249  1.00  0.00     0.210 C 
ENDBRANCH  11  15
ENDBRANCH   8   9
BRANCH   8  17
HETATM   17  N   UNL     1      40.224 -13.900  -1.331  1.00  0.00    -0.061 N 
HETATM   18  H   UNL     1      40.566 -13.671  -0.377  1.00  0.00     0.280 HD
HETATM   19  C   UNL     1      40.611 -12.725  -2.179  1.00  0.00     0.236 C 
HETATM   20  C   UNL     1      40.939 -13.322  -3.530  1.00  0.00     0.029 C 
HETATM   21  C   UNL     1      41.476 -14.711  -3.233  1.00  0.00     0.029 C 
HETATM   22  C   UNL     1      41.057 -15.055  -1.812  1.00  0.00     0.236 C 
ENDBRANCH   8  17
ENDBRANCH   7   8
ENDBRANCH   1   7
BRANCH   3  23
HETATM   23  C   UNL     1      41.218 -15.373   4.034  1.00  0.00     0.149 C 
HETATM   24  C   UNL     1      40.856 -15.577   5.545  1.00  0.00     0.149 C 
HETATM   25  C   UNL     1      40.963 -17.090   5.811  1.00  0.00     0.073 C 
HETATM   26  C   UNL     1      42.003 -17.495   4.814  1.00  0.00    -0.047 A 
HETATM   27  C   UNL     1      42.162 -16.521   3.818  1.00  0.00    -0.026 A 
HETATM   28  C   UNL     1      42.728 -18.674   4.783  1.00  0.00     0.008 A 
HETATM   29  C   UNL     1      43.058 -16.707   2.777  1.00  0.00     0.010 A 
HETATM   30  C   UNL     1      43.804 -17.888   2.747  1.00  0.00     0.001 A 
HETATM   31  C   UNL     1      43.639 -18.864   3.742  1.00  0.00     0.001 A 
BRANCH  24  32
HETATM   32  O   UNL     1      39.566 -15.090   5.907  1.00  0.00    -0.393 OA
HETATM   33  H   UNL     1      39.104 -15.837   6.334  1.00  0.00     0.210 HD
ENDBRANCH  24  32
ENDBRANCH   3  23
TORSDOF 7
ENDMDL
