MODEL 1
REMARK VINA RESULT:      -7.8      0.000      0.000
REMARK  6 active torsions:
REMARK  status: ('A' for Active; 'I' for Inactive)
REMARK    1  A    between atoms: O_2  and  C_3 
REMARK    2  A    between atoms: C_4  and  O_5 
REMARK    3  A    between atoms: C_8  and  C_9 
REMARK    4  A    between atoms: C_13  and  C_14 
REMARK       I    between atoms: C_14  and  N_15 
REMARK    5  A    between atoms: N_15  and  C_16 
REMARK    6  A    between atoms: C_19  and  O_20 
ROOT
HETATM    1  C   UNL     1      42.114 -17.287   2.107  1.00  0.00     0.063 A 
HETATM    2  N   UNL     1      40.818 -17.048   2.489  1.00  0.00    -0.277 N 
HETATM    3  H   UNL     1      40.299 -17.515   3.224  1.00  0.00     0.189 HD
HETATM    4  N   UNL     1      40.189 -16.105   1.763  1.00  0.00    -0.169 NA
HETATM    5  C   UNL     1      41.116 -15.720   0.861  1.00  0.00     0.147 A 
HETATM    6  C   UNL     1      42.326 -16.434   1.042  1.00  0.00     0.071 A 
ENDROOT
BRANCH   5   7
HETATM    7  C   UNL     1      40.831 -14.695  -0.159  1.00  0.00     0.276 C 
HETATM    8  N   UNL     1      41.989 -14.208  -0.734  1.00  0.00    -0.320 N 
HETATM    9  H   UNL     1      42.835 -14.632  -0.363  1.00  0.00     0.169 HD
HETATM   10  O   UNL     1      39.687 -14.345  -0.422  1.00  0.00    -0.266 OA
BRANCH   8  11
HETATM   11  C   UNL     1      42.109 -13.223  -1.727  1.00  0.00     0.052 A 
HETATM   12  C   UNL     1      41.720 -13.373  -3.056  1.00  0.00     0.149 A 
HETATM   13  N   UNL     1      41.847 -12.407  -4.001  1.00  0.00    -0.235 NA
HETATM   14  C   UNL     1      42.383 -11.235  -3.605  1.00  0.00     0.163 A 
HETATM   15  C   UNL     1      42.798 -10.985  -2.309  1.00  0.00     0.060 A 
HETATM   16  C   UNL     1      42.660 -11.994  -1.359  1.00  0.00     0.035 A 
BRANCH  14  17
HETATM   17  O   UNL     1      42.544 -10.205  -4.510  1.00  0.00    -0.339 OA
HETATM   18  C   UNL     1      41.584 -10.237  -5.562  1.00  0.00     0.211 C 
ENDBRANCH  14  17
ENDBRANCH   8  11
ENDBRANCH   5   7
BRANCH   1  19
HETATM   19  C   UNL     1      42.970 -18.291   2.732  1.00  0.00    -0.005 A 
HETATM   20  C   UNL     1      43.335 -18.195   4.083  1.00  0.00     0.053 A 
HETATM   21  C   UNL     1      44.135 -19.177   4.681  1.00  0.00     0.102 A 
HETATM   22  C   UNL     1      44.561 -20.286   3.925  1.00  0.00     0.101 A 
HETATM   23  C   UNL     1      44.224 -20.367   2.571  1.00  0.00     0.040 A 
HETATM   24  C   UNL     1      43.436 -19.375   1.981  1.00  0.00     0.017 A 
BRANCH  21  25
HETATM   25  O   UNL     1      44.523 -19.161   5.998  1.00  0.00    -0.353 OA
HETATM   26  C   UNL     1      45.183 -17.997   6.473  1.00  0.00     0.210 C 
ENDBRANCH  21  25
BRANCH  22  27
HETATM   27  O   UNL     1      45.328 -21.216   4.580  1.00  0.00    -0.353 OA
HETATM   28  C   UNL     1      44.780 -22.522   4.708  1.00  0.00     0.210 C 
ENDBRANCH  22  27
ENDBRANCH   1  19
TORSDOF 6
ENDMDL
MODEL 2
REMARK VINA RESULT:      -7.6      0.840      1.846
REMARK  6 active torsions:
REMARK  status: ('A' for Active; 'I' for Inactive)
REMARK    1  A    between atoms: O_2  and  C_3 
REMARK    2  A    between atoms: C_4  and  O_5 
REMARK    3  A    between atoms: C_8  and  C_9 
REMARK    4  A    between atoms: C_13  and  C_14 
REMARK       I    between atoms: C_14  and  N_15 
REMARK    5  A    between atoms: N_15  and  C_16 
REMARK    6  A    between atoms: C_19  and  O_20 
ROOT
HETATM    1  C   UNL     1      41.834 -17.086   2.370  1.00  0.00     0.063 A 
HETATM    2  N   UNL     1      40.502 -16.908   2.644  1.00  0.00    -0.277 N 
HETATM    3  H   UNL     1      39.941 -17.417   3.318  1.00  0.00     0.189 HD
HETATM    4  N   UNL     1      39.900 -15.966   1.895  1.00  0.00    -0.169 NA
HETATM    5  C   UNL     1      40.885 -15.519   1.087  1.00  0.00     0.147 A 
HETATM    6  C   UNL     1      42.103 -16.193   1.351  1.00  0.00     0.071 A 
ENDROOT
BRANCH   5   7
HETATM    7  C   UNL     1      40.648 -14.472   0.077  1.00  0.00     0.276 C 
HETATM    8  N   UNL     1      41.759 -14.263  -0.716  1.00  0.00    -0.320 N 
HETATM    9  H   UNL     1      42.547 -14.859  -0.474  1.00  0.00     0.169 HD
HETATM   10  O   UNL     1      39.577 -13.881  -0.003  1.00  0.00    -0.266 OA
BRANCH   8  11
HETATM   11  C   UNL     1      41.907 -13.346  -1.768  1.00  0.00     0.052 A 
HETATM   12  C   UNL     1      41.419 -13.524  -3.061  1.00  0.00     0.149 A 
HETATM   13  N   UNL     1      41.574 -12.623  -4.065  1.00  0.00    -0.235 NA
HETATM   14  C   UNL     1      42.245 -11.491  -3.769  1.00  0.00     0.163 A 
HETATM   15  C   UNL     1      42.765 -11.218  -2.516  1.00  0.00     0.060 A 
HETATM   16  C   UNL     1      42.595 -12.160  -1.504  1.00  0.00     0.035 A 
BRANCH  14  17
HETATM   17  O   UNL     1      42.442 -10.529  -4.737  1.00  0.00    -0.339 OA
HETATM   18  C   UNL     1      42.122  -9.216  -4.288  1.00  0.00     0.211 C 
ENDBRANCH  14  17
ENDBRANCH   8  11
ENDBRANCH   5   7
BRANCH   1  19
HETATM   19  C   UNL     1      42.673 -18.077   3.036  1.00  0.00    -0.005 A 
HETATM   20  C   UNL     1      43.369 -19.050   2.304  1.00  0.00     0.053 A 
HETATM   21  C   UNL     1      44.193 -19.982   2.950  1.00  0.00     0.102 A 
HETATM   22  C   UNL     1      44.343 -19.928   4.349  1.00  0.00     0.101 A 
HETATM   23  C   UNL     1      43.626 -18.979   5.083  1.00  0.00     0.040 A 
HETATM   24  C   UNL     1      42.797 -18.063   4.430  1.00  0.00     0.017 A 
BRANCH  21  25
HETATM   25  O   UNL     1      44.915 -20.954   2.303  1.00  0.00    -0.353 OA
HETATM   26  C   UNL     1      44.189 -21.974   1.634  1.00  0.00     0.210 C 
ENDBRANCH  21  25
BRANCH  22  27
HETATM   27  O   UNL     1      45.177 -20.861   4.911  1.00  0.00    -0.353 OA
HETATM   28  C   UNL     1      44.557 -21.932   5.613  1.00  0.00     0.210 C 
ENDBRANCH  22  27
ENDBRANCH   1  19
TORSDOF 6
ENDMDL
MODEL 3
REMARK VINA RESULT:      -7.4      2.556      2.925
REMARK  6 active torsions:
REMARK  status: ('A' for Active; 'I' for Inactive)
REMARK    1  A    between atoms: O_2  and  C_3 
REMARK    2  A    between atoms: C_4  and  O_5 
REMARK    3  A    between atoms: C_8  and  C_9 
REMARK    4  A    between atoms: C_13  and  C_14 
REMARK       I    between atoms: C_14  and  N_15 
REMARK    5  A    between atoms: N_15  and  C_16 
REMARK    6  A    between atoms: C_19  and  O_20 
ROOT
HETATM    1  C   UNL     1      42.127 -17.348   2.042  1.00  0.00     0.063 A 
HETATM    2  N   UNL     1      40.871 -17.027   2.492  1.00  0.00    -0.277 N 
HETATM    3  H   UNL     1      40.387 -17.418   3.293  1.00  0.00     0.189 HD
HETATM    4  N   UNL     1      40.229 -16.112   1.743  1.00  0.00    -0.169 NA
HETATM    5  C   UNL     1      41.105 -15.832   0.754  1.00  0.00     0.147 A 
HETATM    6  C   UNL     1      42.296 -16.584   0.905  1.00  0.00     0.071 A 
ENDROOT
BRANCH   5   7
HETATM    7  C   UNL     1      40.789 -14.870  -0.317  1.00  0.00     0.276 C 
HETATM    8  N   UNL     1      39.426 -14.697  -0.464  1.00  0.00    -0.320 N 
HETATM    9  H   UNL     1      38.875 -15.256   0.182  1.00  0.00     0.169 HD
HETATM   10  O   UNL     1      41.665 -14.323  -0.975  1.00  0.00    -0.266 OA
BRANCH   8  11
HETATM   11  C   UNL     1      38.757 -13.874  -1.383  1.00  0.00     0.052 A 
HETATM   12  C   UNL     1      38.503 -12.515  -1.204  1.00  0.00     0.149 A 
HETATM   13  N   UNL     1      37.852 -11.736  -2.106  1.00  0.00    -0.235 NA
HETATM   14  C   UNL     1      37.435 -12.336  -3.239  1.00  0.00     0.163 A 
HETATM   15  C   UNL     1      37.640 -13.677  -3.513  1.00  0.00     0.060 A 
HETATM   16  C   UNL     1      38.309 -14.455  -2.570  1.00  0.00     0.035 A 
BRANCH  14  17
HETATM   17  O   UNL     1      36.766 -11.609  -4.203  1.00  0.00    -0.339 OA
HETATM   18  C   UNL     1      35.497 -12.164  -4.534  1.00  0.00     0.211 C 
ENDBRANCH  14  17
ENDBRANCH   8  11
ENDBRANCH   5   7
BRANCH   1  19
HETATM   19  C   UNL     1      42.985 -18.342   2.680  1.00  0.00    -0.005 A 
HETATM   20  C   UNL     1      43.358 -18.222   4.027  1.00  0.00     0.053 A 
HETATM   21  C   UNL     1      44.160 -19.195   4.639  1.00  0.00     0.102 A 
HETATM   22  C   UNL     1      44.581 -20.317   3.900  1.00  0.00     0.101 A 
HETATM   23  C   UNL     1      44.236 -20.422   2.550  1.00  0.00     0.040 A 
HETATM   24  C   UNL     1      43.446 -19.440   1.946  1.00  0.00     0.017 A 
BRANCH  21  25
HETATM   25  O   UNL     1      44.555 -19.155   5.953  1.00  0.00    -0.353 OA
HETATM   26  C   UNL     1      45.100 -17.937   6.438  1.00  0.00     0.210 C 
ENDBRANCH  21  25
BRANCH  22  27
HETATM   27  O   UNL     1      45.351 -21.236   4.568  1.00  0.00    -0.353 OA
HETATM   28  C   UNL     1      44.781 -22.524   4.766  1.00  0.00     0.210 C 
ENDBRANCH  22  27
ENDBRANCH   1  19
TORSDOF 6
ENDMDL
MODEL 4
REMARK VINA RESULT:      -7.3      2.786      3.532
REMARK  6 active torsions:
REMARK  status: ('A' for Active; 'I' for Inactive)
REMARK    1  A    between atoms: O_2  and  C_3 
REMARK    2  A    between atoms: C_4  and  O_5 
REMARK    3  A    between atoms: C_8  and  C_9 
REMARK    4  A    between atoms: C_13  and  C_14 
REMARK       I    between atoms: C_14  and  N_15 
REMARK    5  A    between atoms: N_15  and  C_16 
REMARK    6  A    between atoms: C_19  and  O_20 
ROOT
HETATM    1  C   UNL     1      41.726 -17.096   2.333  1.00  0.00     0.063 A 
HETATM    2  N   UNL     1      40.463 -16.785   2.770  1.00  0.00    -0.277 N 
HETATM    3  H   UNL     1      39.983 -17.165   3.579  1.00  0.00     0.189 HD
HETATM    4  N   UNL     1      39.809 -15.898   1.998  1.00  0.00    -0.169 NA
HETATM    5  C   UNL     1      40.684 -15.628   1.006  1.00  0.00     0.147 A 
HETATM    6  C   UNL     1      41.887 -16.356   1.178  1.00  0.00     0.071 A 
ENDROOT
BRANCH   5   7
HETATM    7  C   UNL     1      40.356 -14.696  -0.089  1.00  0.00     0.276 C 
HETATM    8  N   UNL     1      38.991 -14.570  -0.262  1.00  0.00    -0.320 N 
HETATM    9  H   UNL     1      38.446 -15.134   0.386  1.00  0.00     0.169 HD
HETATM   10  O   UNL     1      41.226 -14.133  -0.742  1.00  0.00    -0.266 OA
BRANCH   8  11
HETATM   11  C   UNL     1      38.312 -13.785  -1.207  1.00  0.00     0.052 A 
HETATM   12  C   UNL     1      37.766 -12.527  -0.960  1.00  0.00     0.149 A 
HETATM   13  N   UNL     1      37.111 -11.785  -1.889  1.00  0.00    -0.235 NA
HETATM   14  C   UNL     1      36.996 -12.318  -3.122  1.00  0.00     0.163 A 
HETATM   15  C   UNL     1      37.505 -13.557  -3.470  1.00  0.00     0.060 A 
HETATM   16  C   UNL     1      38.170 -14.300  -2.497  1.00  0.00     0.035 A 
BRANCH  14  17
HETATM   17  O   UNL     1      36.343 -11.622  -4.120  1.00  0.00    -0.339 OA
HETATM   18  C   UNL     1      36.385 -10.212  -3.931  1.00  0.00     0.211 C 
ENDBRANCH  14  17
ENDBRANCH   8  11
ENDBRANCH   5   7
BRANCH   1  19
HETATM   19  C   UNL     1      42.598 -18.060   2.996  1.00  0.00    -0.005 A 
HETATM   20  C   UNL     1      43.261 -19.060   2.270  1.00  0.00     0.053 A 
HETATM   21  C   UNL     1      44.118 -19.965   2.911  1.00  0.00     0.102 A 
HETATM   22  C   UNL     1      44.334 -19.857   4.298  1.00  0.00     0.101 A 
HETATM   23  C   UNL     1      43.650 -18.882   5.028  1.00  0.00     0.040 A 
HETATM   24  C   UNL     1      42.788 -17.992   4.381  1.00  0.00     0.017 A 
BRANCH  21  25
HETATM   25  O   UNL     1      44.811 -20.960   2.268  1.00  0.00    -0.353 OA
HETATM   26  C   UNL     1      44.056 -21.941   1.572  1.00  0.00     0.210 C 
ENDBRANCH  21  25
BRANCH  22  27
HETATM   27  O   UNL     1      45.196 -20.767   4.855  1.00  0.00    -0.353 OA
HETATM   28  C   UNL     1      44.610 -21.862   5.549  1.00  0.00     0.210 C 
ENDBRANCH  22  27
ENDBRANCH   1  19
TORSDOF 6
ENDMDL
MODEL 5
REMARK VINA RESULT:      -7.0      3.396      4.042
REMARK  6 active torsions:
REMARK  status: ('A' for Active; 'I' for Inactive)
REMARK    1  A    between atoms: O_2  and  C_3 
REMARK    2  A    between atoms: C_4  and  O_5 
REMARK    3  A    between atoms: C_8  and  C_9 
REMARK    4  A    between atoms: C_13  and  C_14 
REMARK       I    between atoms: C_14  and  N_15 
REMARK    5  A    between atoms: N_15  and  C_16 
REMARK    6  A    between atoms: C_19  and  O_20 
ROOT
HETATM    1  C   UNL     1      42.065 -16.119   0.776  1.00  0.00     0.063 A 
HETATM    2  N   UNL     1      42.138 -14.757   0.923  1.00  0.00    -0.277 N 
HETATM    3  H   UNL     1      42.550 -14.244   1.694  1.00  0.00     0.189 HD
HETATM    4  N   UNL     1      41.561 -14.057  -0.072  1.00  0.00    -0.169 NA
HETATM    5  C   UNL     1      41.081 -15.011  -0.899  1.00  0.00     0.147 A 
HETATM    6  C   UNL     1      41.372 -16.305  -0.404  1.00  0.00     0.071 A 
ENDROOT
BRANCH   5   7
HETATM    7  C   UNL     1      40.346 -14.673  -2.132  1.00  0.00     0.276 C 
HETATM    8  N   UNL     1      39.034 -14.330  -1.869  1.00  0.00    -0.320 N 
HETATM    9  H   UNL     1      38.796 -14.367  -0.881  1.00  0.00     0.169 HD
HETATM   10  O   UNL     1      40.879 -14.715  -3.235  1.00  0.00    -0.266 OA
BRANCH   8  11
HETATM   11  C   UNL     1      38.039 -13.962  -2.789  1.00  0.00     0.052 A 
HETATM   12  C   UNL     1      37.614 -12.657  -3.030  1.00  0.00     0.149 A 
HETATM   13  N   UNL     1      36.648 -12.323  -3.924  1.00  0.00    -0.235 NA
HETATM   14  C   UNL     1      36.080 -13.334  -4.611  1.00  0.00     0.163 A 
HETATM   15  C   UNL     1      36.432 -14.663  -4.448  1.00  0.00     0.060 A 
HETATM   16  C   UNL     1      37.425 -14.978  -3.522  1.00  0.00     0.035 A 
BRANCH  14  17
HETATM   17  O   UNL     1      35.090 -13.073  -5.537  1.00  0.00    -0.339 OA
HETATM   18  C   UNL     1      35.406 -13.559  -6.838  1.00  0.00     0.211 C 
ENDBRANCH  14  17
ENDBRANCH   8  11
ENDBRANCH   5   7
BRANCH   1  19
HETATM   19  C   UNL     1      42.592 -17.068   1.751  1.00  0.00    -0.005 A 
HETATM   20  C   UNL     1      42.152 -17.060   3.083  1.00  0.00     0.053 A 
HETATM   21  C   UNL     1      42.643 -17.992   4.007  1.00  0.00     0.102 A 
HETATM   22  C   UNL     1      43.574 -18.963   3.590  1.00  0.00     0.101 A 
HETATM   23  C   UNL     1      44.037 -18.952   2.272  1.00  0.00     0.040 A 
HETATM   24  C   UNL     1      43.550 -18.010   1.362  1.00  0.00     0.017 A 
BRANCH  21  25
HETATM   25  O   UNL     1      42.252 -18.057   5.321  1.00  0.00    -0.353 OA
HETATM   26  C   UNL     1      41.126 -17.283   5.709  1.00  0.00     0.210 C 
ENDBRANCH  21  25
BRANCH  22  27
HETATM   27  O   UNL     1      44.000 -19.852   4.545  1.00  0.00    -0.353 OA
HETATM   28  C   UNL     1      45.133 -20.647   4.217  1.00  0.00     0.210 C 
ENDBRANCH  22  27
ENDBRANCH   1  19
TORSDOF 6
ENDMDL
MODEL 6
REMARK VINA RESULT:      -6.9      5.383      6.893
REMARK  6 active torsions:
REMARK  status: ('A' for Active; 'I' for Inactive)
REMARK    1  A    between atoms: O_2  and  C_3 
REMARK    2  A    between atoms: C_4  and  O_5 
REMARK    3  A    between atoms: C_8  and  C_9 
REMARK    4  A    between atoms: C_13  and  C_14 
REMARK       I    between atoms: C_14  and  N_15 
REMARK    5  A    between atoms: N_15  and  C_16 
REMARK    6  A    between atoms: C_19  and  O_20 
ROOT
HETATM    1  C   UNL     1      41.406 -16.392   3.384  1.00  0.00     0.063 A 
HETATM    2  N   UNL     1      40.269 -16.209   2.638  1.00  0.00    -0.277 N 
HETATM    3  H   UNL     1      39.907 -16.815   1.911  1.00  0.00     0.189 HD
HETATM    4  N   UNL     1      39.604 -15.070   2.909  1.00  0.00    -0.169 NA
HETATM    5  C   UNL     1      40.349 -14.482   3.868  1.00  0.00     0.147 A 
HETATM    6  C   UNL     1      41.480 -15.273   4.188  1.00  0.00     0.071 A 
ENDROOT
BRANCH   5   7
HETATM    7  C   UNL     1      39.980 -13.178   4.450  1.00  0.00     0.276 C 
HETATM    8  N   UNL     1      40.599 -12.967   5.667  1.00  0.00    -0.320 N 
HETATM    9  H   UNL     1      41.198 -13.736   5.956  1.00  0.00     0.169 HD
HETATM   10  O   UNL     1      39.207 -12.413   3.886  1.00  0.00    -0.266 OA
BRANCH   8  11
HETATM   11  C   UNL     1      40.480 -11.852   6.511  1.00  0.00     0.052 A 
HETATM   12  C   UNL     1      39.524 -11.705   7.514  1.00  0.00     0.149 A 
HETATM   13  N   UNL     1      39.425 -10.617   8.320  1.00  0.00    -0.235 NA
HETATM   14  C   UNL     1      40.320  -9.629   8.121  1.00  0.00     0.163 A 
HETATM   15  C   UNL     1      41.310  -9.679   7.154  1.00  0.00     0.060 A 
HETATM   16  C   UNL     1      41.387 -10.806   6.338  1.00  0.00     0.035 A 
BRANCH  14  17
HETATM   17  O   UNL     1      40.283  -8.492   8.901  1.00  0.00    -0.339 OA
HETATM   18  C   UNL     1      41.063  -8.607  10.087  1.00  0.00     0.211 C 
ENDBRANCH  14  17
ENDBRANCH   8  11
ENDBRANCH   5   7
BRANCH   1  19
HETATM   19  C   UNL     1      42.298 -17.538   3.231  1.00  0.00    -0.005 A 
HETATM   20  C   UNL     1      42.972 -18.085   4.332  1.00  0.00     0.053 A 
HETATM   21  C   UNL     1      43.805 -19.202   4.181  1.00  0.00     0.102 A 
HETATM   22  C   UNL     1      43.952 -19.796   2.913  1.00  0.00     0.101 A 
HETATM   23  C   UNL     1      43.305 -19.233   1.810  1.00  0.00     0.040 A 
HETATM   24  C   UNL     1      42.487 -18.112   1.969  1.00  0.00     0.017 A 
BRANCH  21  25
HETATM   25  O   UNL     1      44.487 -19.802   5.211  1.00  0.00    -0.353 OA
HETATM   26  C   UNL     1      43.948 -19.671   6.518  1.00  0.00     0.210 C 
ENDBRANCH  21  25
BRANCH  22  27
HETATM   27  O   UNL     1      44.771 -20.894   2.843  1.00  0.00    -0.353 OA
HETATM   28  C   UNL     1      44.396 -21.914   1.925  1.00  0.00     0.210 C 
ENDBRANCH  22  27
ENDBRANCH   1  19
TORSDOF 6
ENDMDL
MODEL 7
REMARK VINA RESULT:      -6.8      3.136      4.106
REMARK  6 active torsions:
REMARK  status: ('A' for Active; 'I' for Inactive)
REMARK    1  A    between atoms: O_2  and  C_3 
REMARK    2  A    between atoms: C_4  and  O_5 
REMARK    3  A    between atoms: C_8  and  C_9 
REMARK    4  A    between atoms: C_13  and  C_14 
REMARK       I    between atoms: C_14  and  N_15 
REMARK    5  A    between atoms: N_15  and  C_16 
REMARK    6  A    between atoms: C_19  and  O_20 
ROOT
HETATM    1  C   UNL     1      42.828 -17.180   1.982  1.00  0.00     0.063 A 
HETATM    2  N   UNL     1      42.680 -17.190   0.618  1.00  0.00    -0.277 N 
HETATM    3  H   UNL     1      43.011 -17.895  -0.031  1.00  0.00     0.189 HD
HETATM    4  N   UNL     1      42.047 -16.112   0.119  1.00  0.00    -0.169 NA
HETATM    5  C   UNL     1      41.780 -15.362   1.210  1.00  0.00     0.147 A 
HETATM    6  C   UNL     1      42.253 -15.992   2.387  1.00  0.00     0.071 A 
ENDROOT
BRANCH   5   7
HETATM    7  C   UNL     1      41.095 -14.060   1.111  1.00  0.00     0.276 C 
HETATM    8  N   UNL     1      39.763 -14.154   1.464  1.00  0.00    -0.320 N 
HETATM    9  H   UNL     1      39.479 -15.094   1.731  1.00  0.00     0.169 HD
HETATM   10  O   UNL     1      41.679 -13.047   0.745  1.00  0.00    -0.266 OA
BRANCH   8  11
HETATM   11  C   UNL     1      38.802 -13.131   1.481  1.00  0.00     0.052 A 
HETATM   12  C   UNL     1      38.807 -12.041   2.350  1.00  0.00     0.149 A 
HETATM   13  N   UNL     1      37.866 -11.062   2.350  1.00  0.00    -0.235 NA
HETATM   14  C   UNL     1      36.875 -11.171   1.442  1.00  0.00     0.163 A 
HETATM   15  C   UNL     1      36.782 -12.211   0.534  1.00  0.00     0.060 A 
HETATM   16  C   UNL     1      37.759 -13.204   0.557  1.00  0.00     0.035 A 
BRANCH  14  17
HETATM   17  O   UNL     1      35.883 -10.214   1.381  1.00  0.00    -0.339 OA
HETATM   18  C   UNL     1      35.431  -9.966   0.054  1.00  0.00     0.211 C 
ENDBRANCH  14  17
ENDBRANCH   8  11
ENDBRANCH   5   7
BRANCH   1  19
HETATM   19  C   UNL     1      43.515 -18.230   2.729  1.00  0.00    -0.005 A 
HETATM   20  C   UNL     1      43.824 -18.071   4.087  1.00  0.00     0.053 A 
HETATM   21  C   UNL     1      44.459 -19.094   4.804  1.00  0.00     0.102 A 
HETATM   22  C   UNL     1      44.772 -20.306   4.158  1.00  0.00     0.101 A 
HETATM   23  C   UNL     1      44.492 -20.454   2.798  1.00  0.00     0.040 A 
HETATM   24  C   UNL     1      43.870 -19.423   2.090  1.00  0.00     0.017 A 
BRANCH  21  25
HETATM   25  O   UNL     1      44.782 -19.019   6.136  1.00  0.00    -0.353 OA
HETATM   26  C   UNL     1      43.718 -19.090   7.073  1.00  0.00     0.210 C 
ENDBRANCH  21  25
BRANCH  22  27
HETATM   27  O   UNL     1      45.379 -21.268   4.926  1.00  0.00    -0.353 OA
HETATM   28  C   UNL     1      44.800 -22.567   4.897  1.00  0.00     0.210 C 
ENDBRANCH  22  27
ENDBRANCH   1  19
TORSDOF 6
ENDMDL
MODEL 8
REMARK VINA RESULT:      -6.8      2.162      9.892
REMARK  6 active torsions:
REMARK  status: ('A' for Active; 'I' for Inactive)
REMARK    1  A    between atoms: O_2  and  C_3 
REMARK    2  A    between atoms: C_4  and  O_5 
REMARK    3  A    between atoms: C_8  and  C_9 
REMARK    4  A    between atoms: C_13  and  C_14 
REMARK       I    between atoms: C_14  and  N_15 
REMARK    5  A    between atoms: N_15  and  C_16 
REMARK    6  A    between atoms: C_19  and  O_20 
ROOT
HETATM    1  C   UNL     1      40.474 -14.561  -0.295  1.00  0.00     0.063 A 
HETATM    2  N   UNL     1      39.331 -14.680   0.454  1.00  0.00    -0.277 N 
HETATM    3  H   UNL     1      38.442 -14.218   0.296  1.00  0.00     0.189 HD
HETATM    4  N   UNL     1      39.449 -15.484   1.528  1.00  0.00    -0.169 NA
HETATM    5  C   UNL     1      40.734 -15.898   1.479  1.00  0.00     0.147 A 
HETATM    6  C   UNL     1      41.404 -15.343   0.361  1.00  0.00     0.071 A 
ENDROOT
BRANCH   5   7
HETATM    7  C   UNL     1      41.299 -16.799   2.500  1.00  0.00     0.276 C 
HETATM    8  N   UNL     1      42.409 -17.474   2.030  1.00  0.00    -0.320 N 
HETATM    9  H   UNL     1      42.647 -17.241   1.069  1.00  0.00     0.169 HD
HETATM   10  O   UNL     1      40.803 -16.906   3.615  1.00  0.00    -0.266 OA
BRANCH   8  11
HETATM   11  C   UNL     1      43.197 -18.416   2.710  1.00  0.00     0.052 A 
HETATM   12  C   UNL     1      43.715 -18.250   3.992  1.00  0.00     0.149 A 
HETATM   13  N   UNL     1      44.477 -19.174   4.632  1.00  0.00    -0.235 NA
HETATM   14  C   UNL     1      44.733 -20.317   3.966  1.00  0.00     0.163 A 
HETATM   15  C   UNL     1      44.262 -20.581   2.691  1.00  0.00     0.060 A 
HETATM   16  C   UNL     1      43.485 -19.614   2.056  1.00  0.00     0.035 A 
BRANCH  14  17
HETATM   17  O   UNL     1      45.500 -21.304   4.552  1.00  0.00    -0.339 OA
HETATM   18  C   UNL     1      44.747 -22.465   4.889  1.00  0.00     0.211 C 
ENDBRANCH  14  17
ENDBRANCH   8  11
ENDBRANCH   5   7
BRANCH   1  19
HETATM   19  C   UNL     1      40.581 -13.715  -1.479  1.00  0.00    -0.005 A 
HETATM   20  C   UNL     1      39.440 -13.186  -2.100  1.00  0.00     0.053 A 
HETATM   21  C   UNL     1      39.553 -12.353  -3.220  1.00  0.00     0.102 A 
HETATM   22  C   UNL     1      40.828 -12.023  -3.718  1.00  0.00     0.101 A 
HETATM   23  C   UNL     1      41.965 -12.574  -3.120  1.00  0.00     0.040 A 
HETATM   24  C   UNL     1      41.839 -13.415  -2.011  1.00  0.00     0.017 A 
BRANCH  21  25
HETATM   25  O   UNL     1      38.486 -11.787  -3.873  1.00  0.00    -0.353 OA
HETATM   26  C   UNL     1      37.245 -12.476  -3.822  1.00  0.00     0.210 C 
ENDBRANCH  21  25
BRANCH  22  27
HETATM   27  O   UNL     1      40.863 -11.191  -4.808  1.00  0.00    -0.353 OA
HETATM   28  C   UNL     1      42.120 -10.605  -5.125  1.00  0.00     0.210 C 
ENDBRANCH  22  27
ENDBRANCH   1  19
TORSDOF 6
ENDMDL
MODEL 9
REMARK VINA RESULT:      -6.7      4.330     10.781
REMARK  6 active torsions:
REMARK  status: ('A' for Active; 'I' for Inactive)
REMARK    1  A    between atoms: O_2  and  C_3 
REMARK    2  A    between atoms: C_4  and  O_5 
REMARK    3  A    between atoms: C_8  and  C_9 
REMARK    4  A    between atoms: C_13  and  C_14 
REMARK       I    between atoms: C_14  and  N_15 
REMARK    5  A    between atoms: N_15  and  C_16 
REMARK    6  A    between atoms: C_19  and  O_20 
ROOT
HETATM    1  C   UNL     1      38.675 -14.159  -2.938  1.00  0.00     0.063 A 
HETATM    2  N   UNL     1      39.574 -14.962  -3.592  1.00  0.00    -0.277 N 
HETATM    3  H   UNL     1      39.532 -15.274  -4.556  1.00  0.00     0.189 HD
HETATM    4  N   UNL     1      40.597 -15.390  -2.829  1.00  0.00    -0.169 NA
HETATM    5  C   UNL     1      40.344 -14.847  -1.619  1.00  0.00     0.147 A 
HETATM    6  C   UNL     1      39.156 -14.077  -1.647  1.00  0.00     0.071 A 
ENDROOT
BRANCH   5   7
HETATM    7  C   UNL     1      41.227 -15.081  -0.461  1.00  0.00     0.276 C 
HETATM    8  N   UNL     1      41.187 -16.397  -0.044  1.00  0.00    -0.320 N 
HETATM    9  H   UNL     1      40.562 -16.978  -0.597  1.00  0.00     0.169 HD
HETATM   10  O   UNL     1      41.891 -14.180   0.039  1.00  0.00    -0.266 OA
BRANCH   8  11
HETATM   11  C   UNL     1      41.881 -16.983   1.026  1.00  0.00     0.052 A 
HETATM   12  C   UNL     1      41.364 -17.181   2.304  1.00  0.00     0.149 A 
HETATM   13  N   UNL     1      42.053 -17.750   3.327  1.00  0.00    -0.235 NA
HETATM   14  C   UNL     1      43.317 -18.141   3.064  1.00  0.00     0.163 A 
HETATM   15  C   UNL     1      43.922 -17.991   1.829  1.00  0.00     0.060 A 
HETATM   16  C   UNL     1      43.193 -17.402   0.798  1.00  0.00     0.035 A 
BRANCH  14  17
HETATM   17  O   UNL     1      44.080 -18.727   4.053  1.00  0.00    -0.339 OA
HETATM   18  C   UNL     1      44.601 -19.997   3.673  1.00  0.00     0.211 C 
ENDBRANCH  14  17
ENDBRANCH   8  11
ENDBRANCH   5   7
BRANCH   1  19
HETATM   19  C   UNL     1      37.474 -13.613  -3.563  1.00  0.00    -0.005 A 
HETATM   20  C   UNL     1      36.808 -14.306  -4.585  1.00  0.00     0.053 A 
HETATM   21  C   UNL     1      35.640 -13.788  -5.160  1.00  0.00     0.102 A 
HETATM   22  C   UNL     1      35.115 -12.567  -4.693  1.00  0.00     0.101 A 
HETATM   23  C   UNL     1      35.795 -11.861  -3.697  1.00  0.00     0.040 A 
HETATM   24  C   UNL     1      36.966 -12.381  -3.139  1.00  0.00     0.017 A 
BRANCH  21  25
HETATM   25  O   UNL     1      34.925 -14.411  -6.153  1.00  0.00    -0.353 OA
HETATM   26  C   UNL     1      35.350 -14.209  -7.493  1.00  0.00     0.210 C 
ENDBRANCH  21  25
BRANCH  22  27
HETATM   27  O   UNL     1      33.961 -12.129  -5.293  1.00  0.00    -0.353 OA
HETATM   28  C   UNL     1      34.060 -10.950  -6.083  1.00  0.00     0.210 C 
ENDBRANCH  22  27
ENDBRANCH   1  19
TORSDOF 6
ENDMDL
MODEL 10
REMARK VINA RESULT:      -6.6      6.739      8.352
REMARK  6 active torsions:
REMARK  status: ('A' for Active; 'I' for Inactive)
REMARK    1  A    between atoms: O_2  and  C_3 
REMARK    2  A    between atoms: C_4  and  O_5 
REMARK    3  A    between atoms: C_8  and  C_9 
REMARK    4  A    between atoms: C_13  and  C_14 
REMARK       I    between atoms: C_14  and  N_15 
REMARK    5  A    between atoms: N_15  and  C_16 
REMARK    6  A    between atoms: C_19  and  O_20 
ROOT
HETATM    1  C   UNL     1      42.205 -15.118   4.821  1.00  0.00     0.063 A 
HETATM    2  N   UNL     1      42.684 -13.902   4.404  1.00  0.00    -0.277 N 
HETATM    3  H   UNL     1      43.492 -13.728   3.817  1.00  0.00     0.189 HD
HETATM    4  N   UNL     1      41.997 -12.843   4.872  1.00  0.00    -0.169 NA
HETATM    5  C   UNL     1      41.032 -13.398   5.637  1.00  0.00     0.147 A 
HETATM    6  C   UNL     1      41.131 -14.811   5.632  1.00  0.00     0.071 A 
ENDROOT
BRANCH   5   7
HETATM    7  C   UNL     1      40.048 -12.576   6.365  1.00  0.00     0.276 C 
HETATM    8  N   UNL     1      40.660 -11.697   7.237  1.00  0.00    -0.320 N 
HETATM    9  H   UNL     1      41.675 -11.762   7.233  1.00  0.00     0.169 HD
HETATM   10  O   UNL     1      38.842 -12.702   6.188  1.00  0.00    -0.266 OA
BRANCH   8  11
HETATM   11  C   UNL     1      40.048 -10.772   8.098  1.00  0.00     0.052 A 
HETATM   12  C   UNL     1      39.301  -9.669   7.690  1.00  0.00     0.149 A 
HETATM   13  N   UNL     1      38.718  -8.786   8.540  1.00  0.00    -0.235 NA
HETATM   14  C   UNL     1      38.885  -9.011   9.859  1.00  0.00     0.163 A 
HETATM   15  C   UNL     1      39.605 -10.078  10.367  1.00  0.00     0.060 A 
HETATM   16  C   UNL     1      40.195 -10.969   9.472  1.00  0.00     0.035 A 
BRANCH  14  17
HETATM   17  O   UNL     1      38.322  -8.156  10.785  1.00  0.00    -0.339 OA
HETATM   18  C   UNL     1      37.816  -8.834  11.930  1.00  0.00     0.211 C 
ENDBRANCH  14  17
ENDBRANCH   8  11
ENDBRANCH   5   7
BRANCH   1  19
HETATM   19  C   UNL     1      42.817 -16.394   4.464  1.00  0.00    -0.005 A 
HETATM   20  C   UNL     1      42.973 -17.415   5.413  1.00  0.00     0.053 A 
HETATM   21  C   UNL     1      43.538 -18.647   5.055  1.00  0.00     0.102 A 
HETATM   22  C   UNL     1      43.933 -18.872   3.723  1.00  0.00     0.101 A 
HETATM   23  C   UNL     1      43.807 -17.845   2.784  1.00  0.00     0.040 A 
HETATM   24  C   UNL     1      43.255 -16.616   3.154  1.00  0.00     0.017 A 
BRANCH  21  25
HETATM   25  O   UNL     1      43.711 -19.698   5.922  1.00  0.00    -0.353 OA
HETATM   26  C   UNL     1      43.840 -19.395   7.303  1.00  0.00     0.210 C 
ENDBRANCH  21  25
BRANCH  22  27
HETATM   27  O   UNL     1      44.464 -20.106   3.443  1.00  0.00    -0.353 OA
HETATM   28  C   UNL     1      44.004 -20.745   2.257  1.00  0.00     0.210 C 
ENDBRANCH  22  27
ENDBRANCH   1  19
TORSDOF 6
ENDMDL
