MODEL 1
REMARK VINA RESULT:      -7.6      0.000      0.000
REMARK  7 active torsions:
REMARK  status: ('A' for Active; 'I' for Inactive)
REMARK    1  A    between atoms: S_2  and  C_3 
REMARK    2  A    between atoms: C_3  and  C_4 
REMARK    3  A    between atoms: C_4  and  C_5 
REMARK    4  A    between atoms: C_5  and  N_6 
REMARK    5  A    between atoms: C_5  and  C_10 
REMARK       I    between atoms: N_6  and  C_7 
REMARK       I    between atoms: C_7  and  N_8 
REMARK       I    between atoms: C_10  and  N_11 
REMARK    6  A    between atoms: N_11  and  N_12 
REMARK       I    between atoms: N_12  and  C_13 
REMARK    7  A    between atoms: C_13  and  C_14 
ROOT
HETATM    1  C   UNL     1      44.435 -12.685   8.268  1.00  0.00     0.259 C 
HETATM    2  N   UNL     1      43.531 -13.225   7.379  1.00  0.00    -0.265 N 
HETATM    3  O   UNL     1      45.513 -13.228   8.522  1.00  0.00    -0.269 OA
HETATM    4  H   UNL     1      42.700 -12.728   7.047  1.00  0.00     0.190 HD
ENDROOT
BRANCH   2   5
HETATM    5  N   UNL     1      43.873 -14.412   6.726  1.00  0.00    -0.263 N 
HETATM    6  C   UNL     1      42.930 -15.076   5.958  1.00  0.00     0.278 C 
HETATM    7  O   UNL     1      41.789 -14.621   5.858  1.00  0.00    -0.265 OA
HETATM    8  H   UNL     1      44.852 -14.692   6.751  1.00  0.00     0.190 HD
BRANCH   6   9
HETATM    9  C   UNL     1      43.385 -16.305   5.319  1.00  0.00     0.097 A 
HETATM   10  S   UNL     1      44.125 -17.550   6.238  1.00  0.00    -0.082 SA
HETATM   11  C   UNL     1      44.299 -18.588   4.883  1.00  0.00     0.017 A 
HETATM   12  C   UNL     1      43.816 -17.990   3.717  1.00  0.00     0.004 A 
HETATM   13  C   UNL     1      44.850 -19.884   4.881  1.00  0.00     0.020 A 
HETATM   14  C   UNL     1      43.298 -16.670   3.988  1.00  0.00     0.068 A 
HETATM   15  C   UNL     1      43.899 -18.739   2.514  1.00  0.00     0.014 A 
HETATM   16 CL   UNL     1      42.639 -15.699   2.727  1.00  0.00    -0.082 Cl
HETATM   17  C   UNL     1      44.441 -20.027   2.506  1.00  0.00     0.001 A 
HETATM   18  C   UNL     1      44.912 -20.593   3.681  1.00  0.00     0.001 A 
ENDBRANCH   6   9
ENDBRANCH   2   5
BRANCH   1  19
HETATM   19  C   UNL     1      44.003 -11.352   8.900  1.00  0.00     0.180 C 
BRANCH  19  20
HETATM   20  C   UNL     1      44.586 -11.155  10.307  1.00  0.00     0.045 C 
BRANCH  20  21
HETATM   21  C   UNL     1      44.076 -12.087  11.409  1.00  0.00     0.076 C 
BRANCH  21  22
HETATM   22  S   UNL     1      42.875 -11.285  12.517  1.00  0.00    -0.173 SA
HETATM   23  C   UNL     1      43.318  -9.559  12.201  1.00  0.00     0.089 C 
ENDBRANCH  21  22
ENDBRANCH  20  21
ENDBRANCH  19  20
BRANCH  19  24
HETATM   24  N   UNL     1      42.541 -11.384   8.946  1.00  0.00    -0.330 N 
HETATM   25  C   UNL     1      41.769 -10.417   8.392  1.00  0.00     0.314 C 
HETATM   26  N   UNL     1      40.444 -10.646   8.564  1.00  0.00    -0.352 N 
HETATM   27  O   UNL     1      42.183  -9.435   7.795  1.00  0.00    -0.248 OA
HETATM   28  H   UNL     1      40.138 -11.608   8.534  1.00  0.00     0.160 HD
HETATM   29  H   UNL     1      39.860 -10.000   8.048  1.00  0.00     0.160 HD
HETATM   30  H   UNL     1      42.111 -12.040   9.588  1.00  0.00     0.165 HD
ENDBRANCH  19  24
ENDBRANCH   1  19
TORSDOF 7
ENDMDL
MODEL 2
REMARK VINA RESULT:      -7.5      6.383      9.161
REMARK  7 active torsions:
REMARK  status: ('A' for Active; 'I' for Inactive)
REMARK    1  A    between atoms: S_2  and  C_3 
REMARK    2  A    between atoms: C_3  and  C_4 
REMARK    3  A    between atoms: C_4  and  C_5 
REMARK    4  A    between atoms: C_5  and  N_6 
REMARK    5  A    between atoms: C_5  and  C_10 
REMARK       I    between atoms: N_6  and  C_7 
REMARK       I    between atoms: C_7  and  N_8 
REMARK       I    between atoms: C_10  and  N_11 
REMARK    6  A    between atoms: N_11  and  N_12 
REMARK       I    between atoms: N_12  and  C_13 
REMARK    7  A    between atoms: C_13  and  C_14 
ROOT
HETATM    1  C   UNL     1      41.145 -14.920  -0.702  1.00  0.00     0.259 C 
HETATM    2  N   UNL     1      41.851 -16.069  -0.415  1.00  0.00    -0.265 N 
HETATM    3  O   UNL     1      40.803 -14.121   0.174  1.00  0.00    -0.269 OA
HETATM    4  H   UNL     1      42.265 -16.670  -1.132  1.00  0.00     0.190 HD
ENDROOT
BRANCH   2   5
HETATM    5  N   UNL     1      42.213 -16.310   0.912  1.00  0.00    -0.263 N 
HETATM    6  C   UNL     1      41.566 -17.298   1.638  1.00  0.00     0.278 C 
HETATM    7  O   UNL     1      40.669 -17.958   1.112  1.00  0.00    -0.265 OA
HETATM    8  H   UNL     1      43.028 -15.815   1.269  1.00  0.00     0.190 HD
BRANCH   6   9
HETATM    9  C   UNL     1      42.017 -17.470   3.014  1.00  0.00     0.097 A 
HETATM   10  S   UNL     1      41.470 -16.420   4.254  1.00  0.00    -0.082 SA
HETATM   11  C   UNL     1      42.332 -17.252   5.481  1.00  0.00     0.017 A 
HETATM   12  C   UNL     1      43.060 -18.323   4.957  1.00  0.00     0.004 A 
HETATM   13  C   UNL     1      42.346 -16.946   6.856  1.00  0.00     0.020 A 
HETATM   14  C   UNL     1      42.871 -18.428   3.530  1.00  0.00     0.068 A 
HETATM   15  C   UNL     1      43.825 -19.102   5.864  1.00  0.00     0.014 A 
HETATM   16 CL   UNL     1      43.655 -19.662   2.619  1.00  0.00    -0.082 Cl
HETATM   17  C   UNL     1      43.841 -18.805   7.230  1.00  0.00     0.001 A 
HETATM   18  C   UNL     1      43.107 -17.736   7.720  1.00  0.00     0.001 A 
ENDBRANCH   6   9
ENDBRANCH   2   5
BRANCH   1  19
HETATM   19  C   UNL     1      40.835 -14.707  -2.192  1.00  0.00     0.180 C 
BRANCH  19  20
HETATM   20  C   UNL     1      41.241 -13.307  -2.680  1.00  0.00     0.045 C 
BRANCH  20  21
HETATM   21  C   UNL     1      42.701 -12.897  -2.479  1.00  0.00     0.076 C 
BRANCH  21  22
HETATM   22  S   UNL     1      42.887 -11.447  -1.393  1.00  0.00    -0.173 SA
HETATM   23  C   UNL     1      41.170 -10.874  -1.402  1.00  0.00     0.089 C 
ENDBRANCH  21  22
ENDBRANCH  20  21
ENDBRANCH  19  20
BRANCH  19  24
HETATM   24  N   UNL     1      39.393 -14.907  -2.337  1.00  0.00    -0.330 N 
HETATM   25  C   UNL     1      38.840 -15.486  -3.430  1.00  0.00     0.314 C 
HETATM   26  N   UNL     1      37.489 -15.559  -3.354  1.00  0.00    -0.352 N 
HETATM   27  O   UNL     1      39.456 -15.908  -4.396  1.00  0.00    -0.248 OA
HETATM   28  H   UNL     1      37.091 -15.732  -2.442  1.00  0.00     0.160 HD
HETATM   29  H   UNL     1      37.078 -16.101  -4.104  1.00  0.00     0.160 HD
HETATM   30  H   UNL     1      38.790 -14.412  -1.692  1.00  0.00     0.165 HD
ENDBRANCH  19  24
ENDBRANCH   1  19
TORSDOF 7
ENDMDL
MODEL 3
REMARK VINA RESULT:      -7.4      6.418      8.199
REMARK  7 active torsions:
REMARK  status: ('A' for Active; 'I' for Inactive)
REMARK    1  A    between atoms: S_2  and  C_3 
REMARK    2  A    between atoms: C_3  and  C_4 
REMARK    3  A    between atoms: C_4  and  C_5 
REMARK    4  A    between atoms: C_5  and  N_6 
REMARK    5  A    between atoms: C_5  and  C_10 
REMARK       I    between atoms: N_6  and  C_7 
REMARK       I    between atoms: C_7  and  N_8 
REMARK       I    between atoms: C_10  and  N_11 
REMARK    6  A    between atoms: N_11  and  N_12 
REMARK       I    between atoms: N_12  and  C_13 
REMARK    7  A    between atoms: C_13  and  C_14 
ROOT
HETATM    1  C   UNL     1      41.189 -15.748   0.168  1.00  0.00     0.259 C 
HETATM    2  N   UNL     1      42.274 -16.592   0.066  1.00  0.00    -0.265 N 
HETATM    3  O   UNL     1      40.403 -15.797   1.118  1.00  0.00    -0.269 OA
HETATM    4  H   UNL     1      43.012 -16.479  -0.634  1.00  0.00     0.190 HD
ENDROOT
BRANCH   2   5
HETATM    5  N   UNL     1      42.499 -17.508   1.096  1.00  0.00    -0.263 N 
HETATM    6  C   UNL     1      43.738 -17.563   1.715  1.00  0.00     0.278 C 
HETATM    7  O   UNL     1      44.639 -16.807   1.351  1.00  0.00    -0.265 OA
HETATM    8  H   UNL     1      41.696 -18.036   1.433  1.00  0.00     0.190 HD
BRANCH   6   9
HETATM    9  C   UNL     1      43.871 -18.553   2.777  1.00  0.00     0.097 A 
HETATM   10  S   UNL     1      44.473 -20.124   2.442  1.00  0.00    -0.082 SA
HETATM   11  C   UNL     1      44.388 -20.618   4.082  1.00  0.00     0.017 A 
HETATM   12  C   UNL     1      43.883 -19.601   4.896  1.00  0.00     0.004 A 
HETATM   13  C   UNL     1      44.764 -21.871   4.604  1.00  0.00     0.020 A 
HETATM   14  C   UNL     1      43.584 -18.419   4.123  1.00  0.00     0.068 A 
HETATM   15  C   UNL     1      43.757 -19.874   6.284  1.00  0.00     0.014 A 
HETATM   16 CL   UNL     1      42.943 -17.007   4.873  1.00  0.00    -0.082 Cl
HETATM   17  C   UNL     1      44.131 -21.115   6.808  1.00  0.00     0.001 A 
HETATM   18  C   UNL     1      44.630 -22.103   5.974  1.00  0.00     0.001 A 
ENDBRANCH   6   9
ENDBRANCH   2   5
BRANCH   1  19
HETATM   19  C   UNL     1      41.046 -14.737  -0.981  1.00  0.00     0.180 C 
BRANCH  19  20
HETATM   20  C   UNL     1      40.830 -13.302  -0.475  1.00  0.00     0.045 C 
BRANCH  20  21
HETATM   21  C   UNL     1      41.980 -12.659   0.304  1.00  0.00     0.076 C 
BRANCH  21  22
HETATM   22  S   UNL     1      41.613 -12.459   2.075  1.00  0.00    -0.173 SA
HETATM   23  C   UNL     1      42.779 -13.675   2.738  1.00  0.00     0.089 C 
ENDBRANCH  21  22
ENDBRANCH  20  21
ENDBRANCH  19  20
BRANCH  19  24
HETATM   24  N   UNL     1      39.900 -15.183  -1.772  1.00  0.00    -0.330 N 
HETATM   25  C   UNL     1      39.942 -15.301  -3.122  1.00  0.00     0.314 C 
HETATM   26  N   UNL     1      38.764 -15.721  -3.645  1.00  0.00    -0.352 N 
HETATM   27  O   UNL     1      40.912 -15.064  -3.824  1.00  0.00    -0.248 OA
HETATM   28  H   UNL     1      38.233 -16.387  -3.102  1.00  0.00     0.160 HD
HETATM   29  H   UNL     1      38.822 -15.931  -4.634  1.00  0.00     0.160 HD
HETATM   30  H   UNL     1      38.998 -15.206  -1.310  1.00  0.00     0.165 HD
ENDBRANCH  19  24
ENDBRANCH   1  19
TORSDOF 7
ENDMDL
MODEL 4
REMARK VINA RESULT:      -7.4      6.067      8.764
REMARK  7 active torsions:
REMARK  status: ('A' for Active; 'I' for Inactive)
REMARK    1  A    between atoms: S_2  and  C_3 
REMARK    2  A    between atoms: C_3  and  C_4 
REMARK    3  A    between atoms: C_4  and  C_5 
REMARK    4  A    between atoms: C_5  and  N_6 
REMARK    5  A    between atoms: C_5  and  C_10 
REMARK       I    between atoms: N_6  and  C_7 
REMARK       I    between atoms: C_7  and  N_8 
REMARK       I    between atoms: C_10  and  N_11 
REMARK    6  A    between atoms: N_11  and  N_12 
REMARK       I    between atoms: N_12  and  C_13 
REMARK    7  A    between atoms: C_13  and  C_14 
ROOT
HETATM    1  C   UNL     1      41.074 -14.606  -0.106  1.00  0.00     0.259 C 
HETATM    2  N   UNL     1      41.140 -15.961   0.141  1.00  0.00    -0.265 N 
HETATM    3  O   UNL     1      41.487 -13.768   0.699  1.00  0.00    -0.269 OA
HETATM    4  H   UNL     1      40.935 -16.674  -0.564  1.00  0.00     0.190 HD
ENDROOT
BRANCH   2   5
HETATM    5  N   UNL     1      41.728 -16.388   1.334  1.00  0.00    -0.263 N 
HETATM    6  C   UNL     1      40.937 -16.895   2.353  1.00  0.00     0.278 C 
HETATM    7  O   UNL     1      39.716 -16.962   2.206  1.00  0.00    -0.265 OA
HETATM    8  H   UNL     1      42.745 -16.412   1.369  1.00  0.00     0.190 HD
BRANCH   6   9
HETATM    9  C   UNL     1      41.646 -17.313   3.557  1.00  0.00     0.097 A 
HETATM   10  S   UNL     1      41.394 -16.505   5.048  1.00  0.00    -0.082 SA
HETATM   11  C   UNL     1      42.453 -17.544   5.908  1.00  0.00     0.017 A 
HETATM   12  C   UNL     1      43.023 -18.501   5.066  1.00  0.00     0.004 A 
HETATM   13  C   UNL     1      42.752 -17.491   7.283  1.00  0.00     0.020 A 
HETATM   14  C   UNL     1      42.551 -18.347   3.711  1.00  0.00     0.068 A 
HETATM   15  C   UNL     1      43.926 -19.431   5.647  1.00  0.00     0.014 A 
HETATM   16 CL   UNL     1      43.094 -19.395   2.457  1.00  0.00    -0.082 Cl
HETATM   17  C   UNL     1      44.224 -19.386   7.012  1.00  0.00     0.001 A 
HETATM   18  C   UNL     1      43.640 -18.423   7.822  1.00  0.00     0.001 A 
ENDBRANCH   6   9
ENDBRANCH   2   5
BRANCH   1  19
HETATM   19  C   UNL     1      40.461 -14.226  -1.464  1.00  0.00     0.180 C 
BRANCH  19  20
HETATM   20  C   UNL     1      39.378 -13.144  -1.336  1.00  0.00     0.045 C 
BRANCH  20  21
HETATM   21  C   UNL     1      37.947 -13.621  -1.079  1.00  0.00     0.076 C 
BRANCH  21  22
HETATM   22  S   UNL     1      37.614 -13.949   0.681  1.00  0.00    -0.173 SA
HETATM   23  C   UNL     1      38.232 -12.395   1.373  1.00  0.00     0.089 C 
ENDBRANCH  21  22
ENDBRANCH  20  21
ENDBRANCH  19  20
BRANCH  19  24
HETATM   24  N   UNL     1      39.897 -15.460  -2.011  1.00  0.00    -0.330 N 
HETATM   25  C   UNL     1      39.913 -15.749  -3.336  1.00  0.00     0.314 C 
HETATM   26  N   UNL     1      39.327 -16.938  -3.616  1.00  0.00    -0.352 N 
HETATM   27  O   UNL     1      40.392 -15.043  -4.209  1.00  0.00    -0.248 OA
HETATM   28  H   UNL     1      39.450 -17.680  -2.942  1.00  0.00     0.160 HD
HETATM   29  H   UNL     1      39.445 -17.220  -4.582  1.00  0.00     0.160 HD
HETATM   30  H   UNL     1      39.301 -16.008  -1.402  1.00  0.00     0.165 HD
ENDBRANCH  19  24
ENDBRANCH   1  19
TORSDOF 7
ENDMDL
MODEL 5
REMARK VINA RESULT:      -7.3      3.662      4.586
REMARK  7 active torsions:
REMARK  status: ('A' for Active; 'I' for Inactive)
REMARK    1  A    between atoms: S_2  and  C_3 
REMARK    2  A    between atoms: C_3  and  C_4 
REMARK    3  A    between atoms: C_4  and  C_5 
REMARK    4  A    between atoms: C_5  and  N_6 
REMARK    5  A    between atoms: C_5  and  C_10 
REMARK       I    between atoms: N_6  and  C_7 
REMARK       I    between atoms: C_7  and  N_8 
REMARK       I    between atoms: C_10  and  N_11 
REMARK    6  A    between atoms: N_11  and  N_12 
REMARK       I    between atoms: N_12  and  C_13 
REMARK    7  A    between atoms: C_13  and  C_14 
ROOT
HETATM    1  C   UNL     1      40.147 -13.245   5.871  1.00  0.00     0.259 C 
HETATM    2  N   UNL     1      41.381 -13.722   6.256  1.00  0.00    -0.265 N 
HETATM    3  O   UNL     1      39.405 -13.874   5.112  1.00  0.00    -0.269 OA
HETATM    4  H   UNL     1      41.950 -13.289   6.989  1.00  0.00     0.190 HD
ENDROOT
BRANCH   2   5
HETATM    5  N   UNL     1      41.780 -14.978   5.792  1.00  0.00    -0.263 N 
HETATM    6  C   UNL     1      42.753 -15.076   4.810  1.00  0.00     0.278 C 
HETATM    7  O   UNL     1      43.259 -14.054   4.344  1.00  0.00    -0.265 OA
HETATM    8  H   UNL     1      41.412 -15.793   6.279  1.00  0.00     0.190 HD
BRANCH   6   9
HETATM    9  C   UNL     1      43.098 -16.430   4.393  1.00  0.00     0.097 A 
HETATM   10  S   UNL     1      42.570 -17.045   2.882  1.00  0.00    -0.082 SA
HETATM   11  C   UNL     1      43.373 -18.545   3.095  1.00  0.00     0.017 A 
HETATM   12  C   UNL     1      44.032 -18.600   4.325  1.00  0.00     0.004 A 
HETATM   13  C   UNL     1      43.401 -19.621   2.187  1.00  0.00     0.020 A 
HETATM   14  C   UNL     1      43.857 -17.373   5.063  1.00  0.00     0.068 A 
HETATM   15  C   UNL     1      44.741 -19.791   4.636  1.00  0.00     0.014 A 
HETATM   16 CL   UNL     1      44.562 -17.164   6.620  1.00  0.00    -0.082 Cl
HETATM   17  C   UNL     1      44.775 -20.861   3.737  1.00  0.00     0.001 A 
HETATM   18  C   UNL     1      44.111 -20.775   2.523  1.00  0.00     0.001 A 
ENDBRANCH   6   9
ENDBRANCH   2   5
BRANCH   1  19
HETATM   19  C   UNL     1      39.765 -11.882   6.470  1.00  0.00     0.180 C 
BRANCH  19  20
HETATM   20  C   UNL     1      40.558 -10.724   5.844  1.00  0.00     0.045 C 
BRANCH  20  21
HETATM   21  C   UNL     1      40.321 -10.444   4.358  1.00  0.00     0.076 C 
BRANCH  21  22
HETATM   22  S   UNL     1      38.565 -10.183   3.956  1.00  0.00    -0.173 SA
HETATM   23  C   UNL     1      38.371 -11.481   2.710  1.00  0.00     0.089 C 
ENDBRANCH  21  22
ENDBRANCH  20  21
ENDBRANCH  19  20
BRANCH  19  24
HETATM   24  N   UNL     1      40.041 -11.980   7.903  1.00  0.00    -0.330 N 
HETATM   25  C   UNL     1      39.379 -11.243   8.829  1.00  0.00     0.314 C 
HETATM   26  N   UNL     1      39.804 -11.490  10.092  1.00  0.00    -0.352 N 
HETATM   27  O   UNL     1      38.494 -10.437   8.591  1.00  0.00    -0.248 OA
HETATM   28  H   UNL     1      40.071 -12.439  10.308  1.00  0.00     0.160 HD
HETATM   29  H   UNL     1      39.233 -11.040  10.797  1.00  0.00     0.160 HD
HETATM   30  H   UNL     1      40.887 -12.462   8.181  1.00  0.00     0.165 HD
ENDBRANCH  19  24
ENDBRANCH   1  19
TORSDOF 7
ENDMDL
MODEL 6
REMARK VINA RESULT:      -7.1      3.169      3.836
REMARK  7 active torsions:
REMARK  status: ('A' for Active; 'I' for Inactive)
REMARK    1  A    between atoms: S_2  and  C_3 
REMARK    2  A    between atoms: C_3  and  C_4 
REMARK    3  A    between atoms: C_4  and  C_5 
REMARK    4  A    between atoms: C_5  and  N_6 
REMARK    5  A    between atoms: C_5  and  C_10 
REMARK       I    between atoms: N_6  and  C_7 
REMARK       I    between atoms: C_7  and  N_8 
REMARK       I    between atoms: C_10  and  N_11 
REMARK    6  A    between atoms: N_11  and  N_12 
REMARK       I    between atoms: N_12  and  C_13 
REMARK    7  A    between atoms: C_13  and  C_14 
ROOT
HETATM    1  C   UNL     1      39.850 -13.316   5.585  1.00  0.00     0.259 C 
HETATM    2  N   UNL     1      40.527 -14.222   6.373  1.00  0.00    -0.265 N 
HETATM    3  O   UNL     1      39.724 -13.466   4.367  1.00  0.00    -0.269 OA
HETATM    4  H   UNL     1      40.525 -14.193   7.396  1.00  0.00     0.190 HD
ENDROOT
BRANCH   2   5
HETATM    5  N   UNL     1      41.059 -15.361   5.764  1.00  0.00    -0.263 N 
HETATM    6  C   UNL     1      42.408 -15.414   5.451  1.00  0.00     0.278 C 
HETATM    7  O   UNL     1      43.134 -14.453   5.706  1.00  0.00    -0.265 OA
HETATM    8  H   UNL     1      40.444 -16.168   5.670  1.00  0.00     0.190 HD
BRANCH   6   9
HETATM    9  C   UNL     1      42.863 -16.647   4.817  1.00  0.00     0.097 A 
HETATM   10  S   UNL     1      43.935 -17.708   5.633  1.00  0.00    -0.082 SA
HETATM   11  C   UNL     1      43.937 -18.852   4.355  1.00  0.00     0.017 A 
HETATM   12  C   UNL     1      43.140 -18.428   3.289  1.00  0.00     0.004 A 
HETATM   13  C   UNL     1      44.632 -20.077   4.323  1.00  0.00     0.020 A 
HETATM   14  C   UNL     1      42.533 -17.150   3.572  1.00  0.00     0.068 A 
HETATM   15  C   UNL     1      43.051 -19.281   2.158  1.00  0.00     0.014 A 
HETATM   16 CL   UNL     1      41.499 -16.385   2.427  1.00  0.00    -0.082 Cl
HETATM   17  C   UNL     1      43.736 -20.500   2.122  1.00  0.00     0.001 A 
HETATM   18  C   UNL     1      44.518 -20.893   3.196  1.00  0.00     0.001 A 
ENDBRANCH   6   9
ENDBRANCH   2   5
BRANCH   1  19
HETATM   19  C   UNL     1      39.252 -12.120   6.344  1.00  0.00     0.180 C 
BRANCH  19  20
HETATM   20  C   UNL     1      39.441 -10.795   5.590  1.00  0.00     0.045 C 
BRANCH  20  21
HETATM   21  C   UNL     1      40.880 -10.326   5.358  1.00  0.00     0.076 C 
BRANCH  21  22
HETATM   22  S   UNL     1      41.297  -8.825   6.300  1.00  0.00    -0.173 SA
HETATM   23  C   UNL     1      39.632  -8.135   6.471  1.00  0.00     0.089 C 
ENDBRANCH  21  22
ENDBRANCH  20  21
ENDBRANCH  19  20
BRANCH  19  24
HETATM   24  N   UNL     1      39.935 -12.081   7.637  1.00  0.00    -0.330 N 
HETATM   25  C   UNL     1      39.492 -11.333   8.677  1.00  0.00     0.314 C 
HETATM   26  N   UNL     1      40.285 -11.442   9.772  1.00  0.00    -0.352 N 
HETATM   27  O   UNL     1      38.496 -10.628   8.669  1.00  0.00    -0.248 OA
HETATM   28  H   UNL     1      40.701 -12.345   9.947  1.00  0.00     0.160 HD
HETATM   29  H   UNL     1      39.896 -10.989  10.589  1.00  0.00     0.160 HD
HETATM   30  H   UNL     1      40.872 -12.464   7.679  1.00  0.00     0.165 HD
ENDBRANCH  19  24
ENDBRANCH   1  19
TORSDOF 7
ENDMDL
MODEL 7
REMARK VINA RESULT:      -6.9      2.647      3.020
REMARK  7 active torsions:
REMARK  status: ('A' for Active; 'I' for Inactive)
REMARK    1  A    between atoms: S_2  and  C_3 
REMARK    2  A    between atoms: C_3  and  C_4 
REMARK    3  A    between atoms: C_4  and  C_5 
REMARK    4  A    between atoms: C_5  and  N_6 
REMARK    5  A    between atoms: C_5  and  C_10 
REMARK       I    between atoms: N_6  and  C_7 
REMARK       I    between atoms: C_7  and  N_8 
REMARK       I    between atoms: C_10  and  N_11 
REMARK    6  A    between atoms: N_11  and  N_12 
REMARK       I    between atoms: N_12  and  C_13 
REMARK    7  A    between atoms: C_13  and  C_14 
ROOT
HETATM    1  C   UNL     1      41.655 -12.551   5.575  1.00  0.00     0.259 C 
HETATM    2  N   UNL     1      42.227 -13.562   6.316  1.00  0.00    -0.265 N 
HETATM    3  O   UNL     1      41.572 -12.601   4.345  1.00  0.00    -0.269 OA
HETATM    4  H   UNL     1      42.181 -13.608   7.338  1.00  0.00     0.190 HD
ENDROOT
BRANCH   2   5
HETATM    5  N   UNL     1      42.697 -14.692   5.643  1.00  0.00    -0.263 N 
HETATM    6  C   UNL     1      41.966 -15.869   5.671  1.00  0.00     0.278 C 
HETATM    7  O   UNL     1      40.905 -15.917   6.295  1.00  0.00    -0.265 OA
HETATM    8  H   UNL     1      43.521 -14.574   5.056  1.00  0.00     0.190 HD
BRANCH   6   9
HETATM    9  C   UNL     1      42.543 -16.990   4.938  1.00  0.00     0.097 A 
HETATM   10  S   UNL     1      43.797 -17.935   5.626  1.00  0.00    -0.082 SA
HETATM   11  C   UNL     1      43.874 -18.997   4.281  1.00  0.00     0.017 A 
HETATM   12  C   UNL     1      42.961 -18.631   3.289  1.00  0.00     0.004 A 
HETATM   13  C   UNL     1      44.724 -20.111   4.135  1.00  0.00     0.020 A 
HETATM   14  C   UNL     1      42.207 -17.466   3.684  1.00  0.00     0.068 A 
HETATM   15  C   UNL     1      42.918 -19.426   2.113  1.00  0.00     0.014 A 
HETATM   16 CL   UNL     1      41.008 -16.791   2.647  1.00  0.00    -0.082 Cl
HETATM   17  C   UNL     1      43.757 -20.534   1.964  1.00  0.00     0.001 A 
HETATM   18  C   UNL     1      44.651 -20.872   2.967  1.00  0.00     0.001 A 
ENDBRANCH   6   9
ENDBRANCH   2   5
BRANCH   1  19
HETATM   19  C   UNL     1      41.116 -11.371   6.399  1.00  0.00     0.180 C 
BRANCH  19  20
HETATM   20  C   UNL     1      39.814 -11.718   7.137  1.00  0.00     0.045 C 
BRANCH  20  21
HETATM   21  C   UNL     1      39.475 -10.887   8.377  1.00  0.00     0.076 C 
BRANCH  21  22
HETATM   22  S   UNL     1      40.934 -10.509   9.398  1.00  0.00    -0.173 SA
HETATM   23  C   UNL     1      40.353 -11.186  10.973  1.00  0.00     0.089 C 
ENDBRANCH  21  22
ENDBRANCH  20  21
ENDBRANCH  19  20
BRANCH  19  24
HETATM   24  N   UNL     1      40.896 -10.281   5.448  1.00  0.00    -0.330 N 
HETATM   25  C   UNL     1      41.361  -9.024   5.653  1.00  0.00     0.314 C 
HETATM   26  N   UNL     1      41.031  -8.177   4.647  1.00  0.00    -0.352 N 
HETATM   27  O   UNL     1      42.008  -8.657   6.620  1.00  0.00    -0.248 OA
HETATM   28  H   UNL     1      41.019  -8.559   3.713  1.00  0.00     0.160 HD
HETATM   29  H   UNL     1      41.479  -7.272   4.729  1.00  0.00     0.160 HD
HETATM   30  H   UNL     1      40.204 -10.431   4.723  1.00  0.00     0.165 HD
ENDBRANCH  19  24
ENDBRANCH   1  19
TORSDOF 7
ENDMDL
MODEL 8
REMARK VINA RESULT:      -6.8      6.439      9.547
REMARK  7 active torsions:
REMARK  status: ('A' for Active; 'I' for Inactive)
REMARK    1  A    between atoms: S_2  and  C_3 
REMARK    2  A    between atoms: C_3  and  C_4 
REMARK    3  A    between atoms: C_4  and  C_5 
REMARK    4  A    between atoms: C_5  and  N_6 
REMARK    5  A    between atoms: C_5  and  C_10 
REMARK       I    between atoms: N_6  and  C_7 
REMARK       I    between atoms: C_7  and  N_8 
REMARK       I    between atoms: C_10  and  N_11 
REMARK    6  A    between atoms: N_11  and  N_12 
REMARK       I    between atoms: N_12  and  C_13 
REMARK    7  A    between atoms: C_13  and  C_14 
ROOT
HETATM    1  C   UNL     1      43.330 -17.730   1.756  1.00  0.00     0.259 C 
HETATM    2  N   UNL     1      42.206 -17.029   1.374  1.00  0.00    -0.265 N 
HETATM    3  O   UNL     1      44.458 -17.438   1.352  1.00  0.00    -0.269 OA
HETATM    4  H   UNL     1      41.286 -17.162   1.801  1.00  0.00     0.190 HD
ENDROOT
BRANCH   2   5
HETATM    5  N   UNL     1      42.368 -15.931   0.525  1.00  0.00    -0.263 N 
HETATM    6  C   UNL     1      41.311 -15.063   0.306  1.00  0.00     0.278 C 
HETATM    7  O   UNL     1      40.228 -15.265   0.857  1.00  0.00    -0.265 OA
HETATM    8  H   UNL     1      43.308 -15.747   0.177  1.00  0.00     0.190 HD
BRANCH   6   9
HETATM    9  C   UNL     1      41.582 -13.950  -0.596  1.00  0.00     0.097 A 
HETATM   10  S   UNL     1      42.003 -12.405   0.018  1.00  0.00    -0.082 SA
HETATM   11  C   UNL     1      42.205 -11.726  -1.544  1.00  0.00     0.017 A 
HETATM   12  C   UNL     1      41.935 -12.660  -2.545  1.00  0.00     0.004 A 
HETATM   13  C   UNL     1      42.591 -10.405  -1.843  1.00  0.00     0.020 A 
HETATM   14  C   UNL     1      41.570 -13.937  -1.979  1.00  0.00     0.068 A 
HETATM   15  C   UNL     1      42.062 -12.232  -3.893  1.00  0.00     0.014 A 
HETATM   16 CL   UNL     1      41.181 -15.277  -2.988  1.00  0.00    -0.082 Cl
HETATM   17  C   UNL     1      42.448 -10.923  -4.197  1.00  0.00     0.001 A 
HETATM   18  C   UNL     1      42.710 -10.019  -3.180  1.00  0.00     0.001 A 
ENDBRANCH   6   9
ENDBRANCH   2   5
BRANCH   1  19
HETATM   19  C   UNL     1      43.067 -18.888   2.732  1.00  0.00     0.180 C 
BRANCH  19  20
HETATM   20  C   UNL     1      43.159 -18.448   4.202  1.00  0.00     0.045 C 
BRANCH  20  21
HETATM   21  C   UNL     1      41.851 -18.052   4.892  1.00  0.00     0.076 C 
BRANCH  21  22
HETATM   22  S   UNL     1      41.919 -16.396   5.644  1.00  0.00    -0.173 SA
HETATM   23  C   UNL     1      41.095 -15.462   4.330  1.00  0.00     0.089 C 
ENDBRANCH  21  22
ENDBRANCH  20  21
ENDBRANCH  19  20
BRANCH  19  24
HETATM   24  N   UNL     1      44.076 -19.904   2.434  1.00  0.00    -0.330 N 
HETATM   25  C   UNL     1      43.760 -21.133   1.955  1.00  0.00     0.314 C 
HETATM   26  N   UNL     1      44.852 -21.913   1.762  1.00  0.00    -0.352 N 
HETATM   27  O   UNL     1      42.632 -21.530   1.713  1.00  0.00    -0.248 OA
HETATM   28  H   UNL     1      45.692 -21.453   1.442  1.00  0.00     0.160 HD
HETATM   29  H   UNL     1      44.639 -22.782   1.288  1.00  0.00     0.160 HD
HETATM   30  H   UNL     1      45.012 -19.748   2.791  1.00  0.00     0.165 HD
ENDBRANCH  19  24
ENDBRANCH   1  19
TORSDOF 7
ENDMDL
MODEL 9
REMARK VINA RESULT:      -6.8      5.966      8.816
REMARK  7 active torsions:
REMARK  status: ('A' for Active; 'I' for Inactive)
REMARK    1  A    between atoms: S_2  and  C_3 
REMARK    2  A    between atoms: C_3  and  C_4 
REMARK    3  A    between atoms: C_4  and  C_5 
REMARK    4  A    between atoms: C_5  and  N_6 
REMARK    5  A    between atoms: C_5  and  C_10 
REMARK       I    between atoms: N_6  and  C_7 
REMARK       I    between atoms: C_7  and  N_8 
REMARK       I    between atoms: C_10  and  N_11 
REMARK    6  A    between atoms: N_11  and  N_12 
REMARK       I    between atoms: N_12  and  C_13 
REMARK    7  A    between atoms: C_13  and  C_14 
ROOT
HETATM    1  C   UNL     1      41.157 -14.507   0.301  1.00  0.00     0.259 C 
HETATM    2  N   UNL     1      41.304 -15.852   0.565  1.00  0.00    -0.265 N 
HETATM    3  O   UNL     1      41.246 -13.649   1.183  1.00  0.00    -0.269 OA
HETATM    4  H   UNL     1      41.373 -16.566  -0.165  1.00  0.00     0.190 HD
ENDROOT
BRANCH   2   5
HETATM    5  N   UNL     1      41.596 -16.242   1.874  1.00  0.00    -0.263 N 
HETATM    6  C   UNL     1      42.857 -16.722   2.188  1.00  0.00     0.278 C 
HETATM    7  O   UNL     1      43.716 -16.810   1.310  1.00  0.00    -0.265 OA
HETATM    8  H   UNL     1      40.891 -16.053   2.584  1.00  0.00     0.190 HD
BRANCH   6   9
HETATM    9  C   UNL     1      43.061 -17.103   3.582  1.00  0.00     0.097 A 
HETATM   10  S   UNL     1      43.638 -18.665   3.989  1.00  0.00    -0.082 SA
HETATM   11  C   UNL     1      43.663 -18.330   5.671  1.00  0.00     0.017 A 
HETATM   12  C   UNL     1      43.214 -17.035   5.939  1.00  0.00     0.004 A 
HETATM   13  C   UNL     1      44.072 -19.204   6.697  1.00  0.00     0.020 A 
HETATM   14  C   UNL     1      42.864 -16.344   4.721  1.00  0.00     0.068 A 
HETATM   15  C   UNL     1      43.180 -16.622   7.297  1.00  0.00     0.014 A 
HETATM   16 CL   UNL     1      42.275 -14.726   4.756  1.00  0.00    -0.082 Cl
HETATM   17  C   UNL     1      43.588 -17.483   8.321  1.00  0.00     0.001 A 
HETATM   18  C   UNL     1      44.030 -18.762   8.021  1.00  0.00     0.001 A 
ENDBRANCH   6   9
ENDBRANCH   2   5
BRANCH   1  19
HETATM   19  C   UNL     1      40.890 -14.163  -1.173  1.00  0.00     0.180 C 
BRANCH  19  20
HETATM   20  C   UNL     1      40.051 -12.887  -1.334  1.00  0.00     0.045 C 
BRANCH  20  21
HETATM   21  C   UNL     1      40.625 -11.785  -2.228  1.00  0.00     0.076 C 
BRANCH  21  22
HETATM   22  S   UNL     1      42.374 -12.057  -2.654  1.00  0.00    -0.173 SA
HETATM   23  C   UNL     1      43.136 -11.114  -1.310  1.00  0.00     0.089 C 
ENDBRANCH  21  22
ENDBRANCH  20  21
ENDBRANCH  19  20
BRANCH  19  24
HETATM   24  N   UNL     1      40.189 -15.317  -1.736  1.00  0.00    -0.330 N 
HETATM   25  C   UNL     1      40.388 -15.747  -3.007  1.00  0.00     0.314 C 
HETATM   26  N   UNL     1      39.626 -16.824  -3.317  1.00  0.00    -0.352 N 
HETATM   27  O   UNL     1      41.158 -15.248  -3.811  1.00  0.00    -0.248 OA
HETATM   28  H   UNL     1      39.464 -17.497  -2.582  1.00  0.00     0.160 HD
HETATM   29  H   UNL     1      39.858 -17.228  -4.216  1.00  0.00     0.160 HD
HETATM   30  H   UNL     1      39.389 -15.669  -1.224  1.00  0.00     0.165 HD
ENDBRANCH  19  24
ENDBRANCH   1  19
TORSDOF 7
ENDMDL
MODEL 10
REMARK VINA RESULT:      -6.8      6.067      8.047
REMARK  7 active torsions:
REMARK  status: ('A' for Active; 'I' for Inactive)
REMARK    1  A    between atoms: S_2  and  C_3 
REMARK    2  A    between atoms: C_3  and  C_4 
REMARK    3  A    between atoms: C_4  and  C_5 
REMARK    4  A    between atoms: C_5  and  N_6 
REMARK    5  A    between atoms: C_5  and  C_10 
REMARK       I    between atoms: N_6  and  C_7 
REMARK       I    between atoms: C_7  and  N_8 
REMARK       I    between atoms: C_10  and  N_11 
REMARK    6  A    between atoms: N_11  and  N_12 
REMARK       I    between atoms: N_12  and  C_13 
REMARK    7  A    between atoms: C_13  and  C_14 
ROOT
HETATM    1  C   UNL     1      38.989 -14.629   0.816  1.00  0.00     0.259 C 
HETATM    2  N   UNL     1      40.224 -15.097   0.421  1.00  0.00    -0.265 N 
HETATM    3  O   UNL     1      38.432 -15.023   1.843  1.00  0.00    -0.269 OA
HETATM    4  H   UNL     1      40.764 -14.687  -0.345  1.00  0.00     0.190 HD
ENDROOT
BRANCH   2   5
HETATM    5  N   UNL     1      40.872 -16.026   1.238  1.00  0.00    -0.263 N 
HETATM    6  C   UNL     1      41.854 -15.606   2.120  1.00  0.00     0.278 C 
HETATM    7  O   UNL     1      42.158 -14.414   2.177  1.00  0.00    -0.265 OA
HETATM    8  H   UNL     1      40.514 -16.980   1.233  1.00  0.00     0.190 HD
BRANCH   6   9
HETATM    9  C   UNL     1      42.469 -16.653   2.929  1.00  0.00     0.097 A 
HETATM   10  S   UNL     1      42.193 -16.732   4.619  1.00  0.00    -0.082 SA
HETATM   11  C   UNL     1      43.134 -18.154   4.810  1.00  0.00     0.017 A 
HETATM   12  C   UNL     1      43.683 -18.569   3.594  1.00  0.00     0.004 A 
HETATM   13  C   UNL     1      43.362 -18.857   6.008  1.00  0.00     0.020 A 
HETATM   14  C   UNL     1      43.293 -17.686   2.521  1.00  0.00     0.068 A 
HETATM   15  C   UNL     1      44.490 -19.737   3.605  1.00  0.00     0.014 A 
HETATM   16 CL   UNL     1      43.831 -17.959   0.908  1.00  0.00    -0.082 Cl
HETATM   17  C   UNL     1      44.717 -20.442   4.790  1.00  0.00     0.001 A 
HETATM   18  C   UNL     1      44.157 -20.005   5.981  1.00  0.00     0.001 A 
ENDBRANCH   6   9
ENDBRANCH   2   5
BRANCH   1  19
HETATM   19  C   UNL     1      38.372 -13.571  -0.113  1.00  0.00     0.180 C 
BRANCH  19  20
HETATM   20  C   UNL     1      37.400 -12.638   0.626  1.00  0.00     0.045 C 
BRANCH  20  21
HETATM   21  C   UNL     1      37.753 -11.149   0.656  1.00  0.00     0.076 C 
BRANCH  21  22
HETATM   22  S   UNL     1      37.714 -10.445   2.334  1.00  0.00    -0.173 SA
HETATM   23  C   UNL     1      38.712 -11.695   3.181  1.00  0.00     0.089 C 
ENDBRANCH  21  22
ENDBRANCH  20  21
ENDBRANCH  19  20
BRANCH  19  24
HETATM   24  N   UNL     1      37.677 -14.313  -1.165  1.00  0.00    -0.330 N 
HETATM   25  C   UNL     1      38.255 -14.615  -2.353  1.00  0.00     0.314 C 
HETATM   26  N   UNL     1      37.424 -15.298  -3.178  1.00  0.00    -0.352 N 
HETATM   27  O   UNL     1      39.394 -14.324  -2.681  1.00  0.00    -0.248 OA
HETATM   28  H   UNL     1      36.793 -15.958  -2.748  1.00  0.00     0.160 HD
HETATM   29  H   UNL     1      37.885 -15.636  -4.014  1.00  0.00     0.160 HD
HETATM   30  H   UNL     1      36.674 -14.419  -1.072  1.00  0.00     0.165 HD
ENDBRANCH  19  24
ENDBRANCH   1  19
TORSDOF 7
ENDMDL
