MODEL 1
REMARK VINA RESULT:      -8.2      0.000      0.000
REMARK  6 active torsions:
REMARK  status: ('A' for Active; 'I' for Inactive)
REMARK    1  A    between atoms: C_4  and  C_5 
REMARK    2  A    between atoms: C_5  and  C_6 
REMARK    3  A    between atoms: C_6  and  C_7 
REMARK    4  A    between atoms: C_7  and  C_8 
REMARK       I    between atoms: C_8  and  N_9 
REMARK    5  A    between atoms: N_9  and  C_10 
REMARK    6  A    between atoms: C_12  and  C_13 
ROOT
HETATM    1  C   UNL     1      43.223 -17.063   7.735  1.00  0.00     0.222 C 
HETATM    2  N   UNL     1      43.171 -15.808   7.210  1.00  0.00    -0.327 N 
HETATM    3  O   UNL     1      43.568 -17.156   8.917  1.00  0.00    -0.273 OA
HETATM    4  H   UNL     1      43.431 -15.138   7.926  1.00  0.00     0.169 HD
ENDROOT
BRANCH   2   5
HETATM    5  C   UNL     1      42.888 -15.259   5.944  1.00  0.00     0.035 A 
HETATM    6  C   UNL     1      42.411 -15.955   4.831  1.00  0.00     0.042 A 
HETATM    7  C   UNL     1      42.197 -15.302   3.601  1.00  0.00    -0.021 A 
HETATM    8  C   UNL     1      42.461 -13.933   3.496  1.00  0.00     0.012 A 
HETATM    9  C   UNL     1      42.924 -13.225   4.600  1.00  0.00     0.003 A 
HETATM   10  C   UNL     1      43.134 -13.884   5.811  1.00  0.00     0.029 A 
BRANCH   7  11
HETATM   11  C   UNL     1      41.729 -16.036   2.438  1.00  0.00     0.010 A 
HETATM   12  C   UNL     1      42.230 -16.087   1.116  1.00  0.00     0.152 A 
HETATM   13  N   UNL     1      41.505 -16.875   0.317  1.00  0.00    -0.187 NA
HETATM   14  N   UNL     1      40.534 -17.330   1.124  1.00  0.00    -0.289 N 
HETATM   15  H   UNL     1      39.839 -17.958   0.732  1.00  0.00     0.188 HD
HETATM   16  C   UNL     1      40.622 -16.858   2.402  1.00  0.00     0.123 A 
ENDBRANCH   7  11
ENDBRANCH   2   5
BRANCH   1  17
HETATM   17  C   UNL     1      42.874 -18.286   6.916  1.00  0.00     0.103 C 
BRANCH  17  18
HETATM   18  C   UNL     1      44.080 -19.176   6.599  1.00  0.00     0.014 C 
BRANCH  18  19
HETATM   19  C   UNL     1      44.849 -18.731   5.349  1.00  0.00     0.039 C 
BRANCH  19  20
HETATM   20  C   UNL     1      44.446 -19.542   4.141  1.00  0.00    -0.058 A 
HETATM   21  C   UNL     1      44.808 -20.893   4.047  1.00  0.00     0.007 A 
HETATM   22  C   UNL     1      44.461 -21.643   2.922  1.00  0.00     0.001 A 
HETATM   23  C   UNL     1      43.749 -21.051   1.882  1.00  0.00     0.000 A 
HETATM   24  C   UNL     1      43.381 -19.709   1.966  1.00  0.00     0.001 A 
HETATM   25  C   UNL     1      43.730 -18.956   3.089  1.00  0.00     0.007 A 
ENDBRANCH  19  20
ENDBRANCH  18  19
ENDBRANCH  17  18
ENDBRANCH   1  17
TORSDOF 6
ENDMDL
MODEL 2
REMARK VINA RESULT:      -8.2      2.300      4.801
REMARK  6 active torsions:
REMARK  status: ('A' for Active; 'I' for Inactive)
REMARK    1  A    between atoms: C_4  and  C_5 
REMARK    2  A    between atoms: C_5  and  C_6 
REMARK    3  A    between atoms: C_6  and  C_7 
REMARK    4  A    between atoms: C_7  and  C_8 
REMARK       I    between atoms: C_8  and  N_9 
REMARK    5  A    between atoms: N_9  and  C_10 
REMARK    6  A    between atoms: C_12  and  C_13 
ROOT
HETATM    1  C   UNL     1      40.230 -15.959   2.243  1.00  0.00     0.222 C 
HETATM    2  N   UNL     1      40.445 -15.568   3.528  1.00  0.00    -0.327 N 
HETATM    3  O   UNL     1      39.069 -15.891   1.828  1.00  0.00    -0.273 OA
HETATM    4  H   UNL     1      39.565 -15.266   3.935  1.00  0.00     0.169 HD
ENDROOT
BRANCH   2   5
HETATM    5  C   UNL     1      41.555 -15.526   4.394  1.00  0.00     0.035 A 
HETATM    6  C   UNL     1      41.920 -16.510   5.315  1.00  0.00     0.042 A 
HETATM    7  C   UNL     1      43.038 -16.342   6.156  1.00  0.00    -0.021 A 
HETATM    8  C   UNL     1      43.797 -15.171   6.063  1.00  0.00     0.012 A 
HETATM    9  C   UNL     1      43.453 -14.188   5.140  1.00  0.00     0.003 A 
HETATM   10  C   UNL     1      42.342 -14.366   4.315  1.00  0.00     0.029 A 
BRANCH   7  11
HETATM   11  C   UNL     1      43.397 -17.355   7.133  1.00  0.00     0.010 A 
HETATM   12  C   UNL     1      43.635 -18.741   6.980  1.00  0.00     0.152 A 
HETATM   13  N   UNL     1      43.931 -19.346   8.134  1.00  0.00    -0.187 NA
HETATM   14  N   UNL     1      43.881 -18.350   9.032  1.00  0.00    -0.289 N 
HETATM   15  H   UNL     1      44.069 -18.571  10.005  1.00  0.00     0.188 HD
HETATM   16  C   UNL     1      43.566 -17.139   8.485  1.00  0.00     0.123 A 
ENDBRANCH   7  11
ENDBRANCH   2   5
BRANCH   1  17
HETATM   17  C   UNL     1      41.356 -16.451   1.360  1.00  0.00     0.103 C 
BRANCH  17  18
HETATM   18  C   UNL     1      41.849 -17.856   1.720  1.00  0.00     0.014 C 
BRANCH  18  19
HETATM   19  C   UNL     1      43.355 -17.916   2.003  1.00  0.00     0.039 C 
BRANCH  19  20
HETATM   20  C   UNL     1      43.776 -19.300   2.434  1.00  0.00    -0.058 A 
HETATM   21  C   UNL     1      43.539 -20.401   1.598  1.00  0.00     0.007 A 
HETATM   22  C   UNL     1      43.903 -21.687   2.000  1.00  0.00     0.001 A 
HETATM   23  C   UNL     1      44.508 -21.885   3.238  1.00  0.00     0.000 A 
HETATM   24  C   UNL     1      44.751 -20.798   4.077  1.00  0.00     0.001 A 
HETATM   25  C   UNL     1      44.384 -19.511   3.678  1.00  0.00     0.007 A 
ENDBRANCH  19  20
ENDBRANCH  18  19
ENDBRANCH  17  18
ENDBRANCH   1  17
TORSDOF 6
ENDMDL
MODEL 3
REMARK VINA RESULT:      -8.1      2.818      4.541
REMARK  6 active torsions:
REMARK  status: ('A' for Active; 'I' for Inactive)
REMARK    1  A    between atoms: C_4  and  C_5 
REMARK    2  A    between atoms: C_5  and  C_6 
REMARK    3  A    between atoms: C_6  and  C_7 
REMARK    4  A    between atoms: C_7  and  C_8 
REMARK       I    between atoms: C_8  and  N_9 
REMARK    5  A    between atoms: N_9  and  C_10 
REMARK    6  A    between atoms: C_12  and  C_13 
ROOT
HETATM    1  C   UNL     1      44.066 -21.077   2.479  1.00  0.00     0.222 C 
HETATM    2  N   UNL     1      43.310 -20.199   1.764  1.00  0.00    -0.327 N 
HETATM    3  O   UNL     1      43.897 -22.277   2.242  1.00  0.00    -0.273 OA
HETATM    4  H   UNL     1      42.717 -20.717   1.124  1.00  0.00     0.169 HD
ENDROOT
BRANCH   2   5
HETATM    5  C   UNL     1      43.145 -18.801   1.742  1.00  0.00     0.035 A 
HETATM    6  C   UNL     1      41.931 -18.114   1.665  1.00  0.00     0.042 A 
HETATM    7  C   UNL     1      41.892 -16.707   1.615  1.00  0.00    -0.021 A 
HETATM    8  C   UNL     1      43.090 -15.986   1.649  1.00  0.00     0.012 A 
HETATM    9  C   UNL     1      44.306 -16.656   1.739  1.00  0.00     0.003 A 
HETATM   10  C   UNL     1      44.330 -18.050   1.785  1.00  0.00     0.029 A 
BRANCH   7  11
HETATM   11  C   UNL     1      40.629 -15.998   1.505  1.00  0.00     0.010 A 
HETATM   12  C   UNL     1      40.273 -14.860   0.743  1.00  0.00     0.152 A 
HETATM   13  N   UNL     1      39.002 -14.493   0.924  1.00  0.00    -0.187 NA
HETATM   14  N   UNL     1      38.538 -15.393   1.805  1.00  0.00    -0.289 N 
HETATM   15  H   UNL     1      37.573 -15.316   2.109  1.00  0.00     0.188 HD
HETATM   16  C   UNL     1      39.472 -16.315   2.184  1.00  0.00     0.123 A 
ENDBRANCH   7  11
ENDBRANCH   2   5
BRANCH   1  17
HETATM   17  C   UNL     1      45.067 -20.610   3.512  1.00  0.00     0.103 C 
BRANCH  17  18
HETATM   18  C   UNL     1      44.440 -20.286   4.872  1.00  0.00     0.014 C 
BRANCH  18  19
HETATM   19  C   UNL     1      44.810 -18.892   5.393  1.00  0.00     0.039 C 
BRANCH  19  20
HETATM   20  C   UNL     1      43.625 -17.959   5.348  1.00  0.00    -0.058 A 
HETATM   21  C   UNL     1      43.817 -16.571   5.413  1.00  0.00     0.007 A 
HETATM   22  C   UNL     1      42.725 -15.703   5.397  1.00  0.00     0.001 A 
HETATM   23  C   UNL     1      41.431 -16.212   5.314  1.00  0.00     0.000 A 
HETATM   24  C   UNL     1      41.228 -17.590   5.247  1.00  0.00     0.001 A 
HETATM   25  C   UNL     1      42.319 -18.460   5.266  1.00  0.00     0.007 A 
ENDBRANCH  19  20
ENDBRANCH  18  19
ENDBRANCH  17  18
ENDBRANCH   1  17
TORSDOF 6
ENDMDL
MODEL 4
REMARK VINA RESULT:      -8.1      2.219      4.714
REMARK  6 active torsions:
REMARK  status: ('A' for Active; 'I' for Inactive)
REMARK    1  A    between atoms: C_4  and  C_5 
REMARK    2  A    between atoms: C_5  and  C_6 
REMARK    3  A    between atoms: C_6  and  C_7 
REMARK    4  A    between atoms: C_7  and  C_8 
REMARK       I    between atoms: C_8  and  N_9 
REMARK    5  A    between atoms: N_9  and  C_10 
REMARK    6  A    between atoms: C_12  and  C_13 
ROOT
HETATM    1  C   UNL     1      44.366 -14.365   7.321  1.00  0.00     0.222 C 
HETATM    2  N   UNL     1      43.661 -15.521   7.468  1.00  0.00    -0.327 N 
HETATM    3  O   UNL     1      44.735 -13.804   8.357  1.00  0.00    -0.273 OA
HETATM    4  H   UNL     1      43.568 -15.728   8.458  1.00  0.00     0.169 HD
ENDROOT
BRANCH   2   5
HETATM    5  C   UNL     1      43.028 -16.429   6.599  1.00  0.00     0.035 A 
HETATM    6  C   UNL     1      43.662 -17.354   5.768  1.00  0.00     0.042 A 
HETATM    7  C   UNL     1      42.921 -18.192   4.911  1.00  0.00    -0.021 A 
HETATM    8  C   UNL     1      41.526 -18.098   4.898  1.00  0.00     0.012 A 
HETATM    9  C   UNL     1      40.879 -17.190   5.731  1.00  0.00     0.003 A 
HETATM   10  C   UNL     1      41.626 -16.364   6.572  1.00  0.00     0.029 A 
BRANCH   7  11
HETATM   11  C   UNL     1      43.586 -19.134   4.027  1.00  0.00     0.010 A 
HETATM   12  C   UNL     1      43.405 -19.389   2.647  1.00  0.00     0.152 A 
HETATM   13  N   UNL     1      44.207 -20.355   2.190  1.00  0.00    -0.187 NA
HETATM   14  N   UNL     1      44.904 -20.723   3.276  1.00  0.00    -0.289 N 
HETATM   15  H   UNL     1      45.591 -21.465   3.178  1.00  0.00     0.188 HD
HETATM   16  C   UNL     1      44.571 -20.023   4.401  1.00  0.00     0.123 A 
ENDBRANCH   7  11
ENDBRANCH   2   5
BRANCH   1  17
HETATM   17  C   UNL     1      44.687 -13.794   5.957  1.00  0.00     0.103 C 
BRANCH  17  18
HETATM   18  C   UNL     1      43.450 -13.572   5.080  1.00  0.00     0.014 C 
BRANCH  18  19
HETATM   19  C   UNL     1      43.661 -13.990   3.620  1.00  0.00     0.039 C 
BRANCH  19  20
HETATM   20  C   UNL     1      42.434 -14.672   3.064  1.00  0.00    -0.058 A 
HETATM   21  C   UNL     1      41.155 -14.254   3.458  1.00  0.00     0.007 A 
HETATM   22  C   UNL     1      40.018 -14.896   2.968  1.00  0.00     0.001 A 
HETATM   23  C   UNL     1      40.146 -15.960   2.079  1.00  0.00     0.000 A 
HETATM   24  C   UNL     1      41.413 -16.383   1.678  1.00  0.00     0.001 A 
HETATM   25  C   UNL     1      42.553 -15.744   2.170  1.00  0.00     0.007 A 
ENDBRANCH  19  20
ENDBRANCH  18  19
ENDBRANCH  17  18
ENDBRANCH   1  17
TORSDOF 6
ENDMDL
MODEL 5
REMARK VINA RESULT:      -8.0      2.633      4.959
REMARK  6 active torsions:
REMARK  status: ('A' for Active; 'I' for Inactive)
REMARK    1  A    between atoms: C_4  and  C_5 
REMARK    2  A    between atoms: C_5  and  C_6 
REMARK    3  A    between atoms: C_6  and  C_7 
REMARK    4  A    between atoms: C_7  and  C_8 
REMARK       I    between atoms: C_8  and  N_9 
REMARK    5  A    between atoms: N_9  and  C_10 
REMARK    6  A    between atoms: C_12  and  C_13 
ROOT
HETATM    1  C   UNL     1      41.432 -15.178   5.000  1.00  0.00     0.222 C 
HETATM    2  N   UNL     1      41.449 -16.386   4.371  1.00  0.00    -0.327 N 
HETATM    3  O   UNL     1      40.417 -14.904   5.649  1.00  0.00    -0.273 OA
HETATM    4  H   UNL     1      40.580 -16.873   4.567  1.00  0.00     0.169 HD
ENDROOT
BRANCH   2   5
HETATM    5  C   UNL     1      42.342 -17.062   3.518  1.00  0.00     0.035 A 
HETATM    6  C   UNL     1      42.708 -18.406   3.605  1.00  0.00     0.042 A 
HETATM    7  C   UNL     1      43.642 -18.967   2.711  1.00  0.00    -0.021 A 
HETATM    8  C   UNL     1      44.207 -18.162   1.717  1.00  0.00     0.012 A 
HETATM    9  C   UNL     1      43.843 -16.824   1.610  1.00  0.00     0.003 A 
HETATM   10  C   UNL     1      42.918 -16.281   2.503  1.00  0.00     0.029 A 
BRANCH   7  11
HETATM   11  C   UNL     1      44.041 -20.359   2.823  1.00  0.00     0.010 A 
HETATM   12  C   UNL     1      43.932 -21.427   1.902  1.00  0.00     0.152 A 
HETATM   13  N   UNL     1      44.406 -22.578   2.386  1.00  0.00    -0.187 NA
HETATM   14  N   UNL     1      44.820 -22.253   3.620  1.00  0.00    -0.289 N 
HETATM   15  H   UNL     1      45.224 -22.982   4.200  1.00  0.00     0.188 HD
HETATM   16  C   UNL     1      44.625 -20.937   3.931  1.00  0.00     0.123 A 
ENDBRANCH   7  11
ENDBRANCH   2   5
BRANCH   1  17
HETATM   17  C   UNL     1      42.597 -14.217   4.913  1.00  0.00     0.103 C 
BRANCH  17  18
HETATM   18  C   UNL     1      43.234 -13.903   6.270  1.00  0.00     0.014 C 
BRANCH  18  19
HETATM   19  C   UNL     1      44.574 -14.618   6.489  1.00  0.00     0.039 C 
BRANCH  19  20
HETATM   20  C   UNL     1      44.368 -16.079   6.812  1.00  0.00    -0.058 A 
HETATM   21  C   UNL     1      45.128 -17.059   6.157  1.00  0.00     0.007 A 
HETATM   22  C   UNL     1      44.927 -18.412   6.431  1.00  0.00     0.001 A 
HETATM   23  C   UNL     1      43.966 -18.799   7.362  1.00  0.00     0.000 A 
HETATM   24  C   UNL     1      43.205 -17.833   8.021  1.00  0.00     0.001 A 
HETATM   25  C   UNL     1      43.404 -16.479   7.745  1.00  0.00     0.007 A 
ENDBRANCH  19  20
ENDBRANCH  18  19
ENDBRANCH  17  18
ENDBRANCH   1  17
TORSDOF 6
ENDMDL
MODEL 6
REMARK VINA RESULT:      -8.0      2.706      4.854
REMARK  6 active torsions:
REMARK  status: ('A' for Active; 'I' for Inactive)
REMARK    1  A    between atoms: C_4  and  C_5 
REMARK    2  A    between atoms: C_5  and  C_6 
REMARK    3  A    between atoms: C_6  and  C_7 
REMARK    4  A    between atoms: C_7  and  C_8 
REMARK       I    between atoms: C_8  and  N_9 
REMARK    5  A    between atoms: N_9  and  C_10 
REMARK    6  A    between atoms: C_12  and  C_13 
ROOT
HETATM    1  C   UNL     1      41.336 -15.691   5.820  1.00  0.00     0.222 C 
HETATM    2  N   UNL     1      41.730 -16.986   5.967  1.00  0.00    -0.327 N 
HETATM    3  O   UNL     1      40.138 -15.451   6.000  1.00  0.00    -0.273 OA
HETATM    4  H   UNL     1      40.925 -17.551   6.219  1.00  0.00     0.169 HD
ENDROOT
BRANCH   2   5
HETATM    5  C   UNL     1      42.938 -17.692   5.815  1.00  0.00     0.035 A 
HETATM    6  C   UNL     1      43.100 -18.924   5.178  1.00  0.00     0.042 A 
HETATM    7  C   UNL     1      44.359 -19.554   5.118  1.00  0.00    -0.021 A 
HETATM    8  C   UNL     1      45.466 -18.930   5.701  1.00  0.00     0.012 A 
HETATM    9  C   UNL     1      45.323 -17.696   6.327  1.00  0.00     0.003 A 
HETATM   10  C   UNL     1      44.070 -17.085   6.382  1.00  0.00     0.029 A 
BRANCH   7  11
HETATM   11  C   UNL     1      44.517 -20.849   4.480  1.00  0.00     0.010 A 
HETATM   12  C   UNL     1      44.413 -21.227   3.120  1.00  0.00     0.152 A 
HETATM   13  N   UNL     1      44.614 -22.534   2.930  1.00  0.00    -0.187 NA
HETATM   14  N   UNL     1      44.845 -22.999   4.167  1.00  0.00    -0.289 N 
HETATM   15  H   UNL     1      45.023 -23.992   4.282  1.00  0.00     0.188 HD
HETATM   16  C   UNL     1      44.798 -22.032   5.130  1.00  0.00     0.123 A 
ENDBRANCH   7  11
ENDBRANCH   2   5
BRANCH   1  17
HETATM   17  C   UNL     1      42.315 -14.596   5.459  1.00  0.00     0.103 C 
BRANCH  17  18
HETATM   18  C   UNL     1      42.205 -14.132   4.003  1.00  0.00     0.014 C 
BRANCH  18  19
HETATM   19  C   UNL     1      43.361 -14.623   3.122  1.00  0.00     0.039 C 
BRANCH  19  20
HETATM   20  C   UNL     1      43.069 -15.988   2.546  1.00  0.00    -0.058 A 
HETATM   21  C   UNL     1      44.121 -16.837   2.175  1.00  0.00     0.007 A 
HETATM   22  C   UNL     1      43.859 -18.089   1.618  1.00  0.00     0.001 A 
HETATM   23  C   UNL     1      42.544 -18.505   1.427  1.00  0.00     0.000 A 
HETATM   24  C   UNL     1      41.489 -17.670   1.794  1.00  0.00     0.001 A 
HETATM   25  C   UNL     1      41.750 -16.415   2.348  1.00  0.00     0.007 A 
ENDBRANCH  19  20
ENDBRANCH  18  19
ENDBRANCH  17  18
ENDBRANCH   1  17
TORSDOF 6
ENDMDL
MODEL 7
REMARK VINA RESULT:      -8.0      2.393      4.997
REMARK  6 active torsions:
REMARK  status: ('A' for Active; 'I' for Inactive)
REMARK    1  A    between atoms: C_4  and  C_5 
REMARK    2  A    between atoms: C_5  and  C_6 
REMARK    3  A    between atoms: C_6  and  C_7 
REMARK    4  A    between atoms: C_7  and  C_8 
REMARK       I    between atoms: C_8  and  N_9 
REMARK    5  A    between atoms: N_9  and  C_10 
REMARK    6  A    between atoms: C_12  and  C_13 
ROOT
HETATM    1  C   UNL     1      40.939 -16.451   2.684  1.00  0.00     0.222 C 
HETATM    2  N   UNL     1      40.927 -16.494   4.044  1.00  0.00    -0.327 N 
HETATM    3  O   UNL     1      39.841 -16.473   2.118  1.00  0.00    -0.273 OA
HETATM    4  H   UNL     1      39.965 -16.530   4.367  1.00  0.00     0.169 HD
ENDROOT
BRANCH   2   5
HETATM    5  C   UNL     1      41.905 -16.537   5.057  1.00  0.00     0.035 A 
HETATM    6  C   UNL     1      42.690 -15.468   5.492  1.00  0.00     0.042 A 
HETATM    7  C   UNL     1      43.665 -15.640   6.494  1.00  0.00    -0.021 A 
HETATM    8  C   UNL     1      43.844 -16.904   7.066  1.00  0.00     0.012 A 
HETATM    9  C   UNL     1      43.060 -17.976   6.652  1.00  0.00     0.003 A 
HETATM   10  C   UNL     1      42.100 -17.791   5.657  1.00  0.00     0.029 A 
BRANCH   7  11
HETATM   11  C   UNL     1      44.500 -14.532   6.923  1.00  0.00     0.010 A 
HETATM   12  C   UNL     1      45.618 -13.925   6.304  1.00  0.00     0.152 A 
HETATM   13  N   UNL     1      46.133 -12.928   7.029  1.00  0.00    -0.187 NA
HETATM   14  N   UNL     1      45.348 -12.893   8.117  1.00  0.00    -0.289 N 
HETATM   15  H   UNL     1      45.550 -12.204   8.834  1.00  0.00     0.188 HD
HETATM   16  C   UNL     1      44.356 -13.832   8.103  1.00  0.00     0.123 A 
ENDBRANCH   7  11
ENDBRANCH   2   5
BRANCH   1  17
HETATM   17  C   UNL     1      42.230 -16.375   1.899  1.00  0.00     0.103 C 
BRANCH  17  18
HETATM   18  C   UNL     1      42.861 -17.744   1.625  1.00  0.00     0.014 C 
BRANCH  18  19
HETATM   19  C   UNL     1      44.013 -18.081   2.579  1.00  0.00     0.039 C 
BRANCH  19  20
HETATM   20  C   UNL     1      44.132 -19.572   2.787  1.00  0.00    -0.058 A 
HETATM   21  C   UNL     1      44.694 -20.076   3.969  1.00  0.00     0.007 A 
HETATM   22  C   UNL     1      44.830 -21.452   4.158  1.00  0.00     0.001 A 
HETATM   23  C   UNL     1      44.406 -22.337   3.169  1.00  0.00     0.000 A 
HETATM   24  C   UNL     1      43.845 -21.847   1.991  1.00  0.00     0.001 A 
HETATM   25  C   UNL     1      43.710 -20.470   1.799  1.00  0.00     0.007 A 
ENDBRANCH  19  20
ENDBRANCH  18  19
ENDBRANCH  17  18
ENDBRANCH   1  17
TORSDOF 6
ENDMDL
MODEL 8
REMARK VINA RESULT:      -8.0      2.679      4.110
REMARK  6 active torsions:
REMARK  status: ('A' for Active; 'I' for Inactive)
REMARK    1  A    between atoms: C_4  and  C_5 
REMARK    2  A    between atoms: C_5  and  C_6 
REMARK    3  A    between atoms: C_6  and  C_7 
REMARK    4  A    between atoms: C_7  and  C_8 
REMARK       I    between atoms: C_8  and  N_9 
REMARK    5  A    between atoms: N_9  and  C_10 
REMARK    6  A    between atoms: C_12  and  C_13 
ROOT
HETATM    1  C   UNL     1      41.630 -16.923   3.790  1.00  0.00     0.222 C 
HETATM    2  N   UNL     1      40.506 -16.567   3.110  1.00  0.00    -0.327 N 
HETATM    3  O   UNL     1      41.493 -17.752   4.695  1.00  0.00    -0.273 OA
HETATM    4  H   UNL     1      39.715 -17.081   3.485  1.00  0.00     0.169 HD
ENDROOT
BRANCH   2   5
HETATM    5  C   UNL     1      40.201 -15.658   2.078  1.00  0.00     0.035 A 
HETATM    6  C   UNL     1      40.743 -15.659   0.792  1.00  0.00     0.042 A 
HETATM    7  C   UNL     1      40.386 -14.673  -0.149  1.00  0.00    -0.021 A 
HETATM    8  C   UNL     1      39.468 -13.681   0.210  1.00  0.00     0.012 A 
HETATM    9  C   UNL     1      38.910 -13.676   1.485  1.00  0.00     0.003 A 
HETATM   10  C   UNL     1      39.275 -14.657   2.408  1.00  0.00     0.029 A 
BRANCH   7  11
HETATM   11  C   UNL     1      40.974 -14.660  -1.478  1.00  0.00     0.010 A 
HETATM   12  C   UNL     1      40.891 -15.599  -2.532  1.00  0.00     0.152 A 
HETATM   13  N   UNL     1      41.593 -15.233  -3.608  1.00  0.00    -0.187 NA
HETATM   14  N   UNL     1      42.131 -14.058  -3.246  1.00  0.00    -0.289 N 
HETATM   15  H   UNL     1      42.725 -13.575  -3.913  1.00  0.00     0.188 HD
HETATM   16  C   UNL     1      41.791 -13.670  -1.981  1.00  0.00     0.123 A 
ENDBRANCH   7  11
ENDBRANCH   2   5
BRANCH   1  17
HETATM   17  C   UNL     1      42.984 -16.339   3.455  1.00  0.00     0.103 C 
BRANCH  17  18
HETATM   18  C   UNL     1      43.802 -17.201   2.489  1.00  0.00     0.014 C 
BRANCH  18  19
HETATM   19  C   UNL     1      43.041 -18.434   1.985  1.00  0.00     0.039 C 
BRANCH  19  20
HETATM   20  C   UNL     1      43.653 -19.709   2.514  1.00  0.00    -0.058 A 
HETATM   21  C   UNL     1      43.604 -20.884   1.751  1.00  0.00     0.007 A 
HETATM   22  C   UNL     1      44.145 -22.072   2.243  1.00  0.00     0.001 A 
HETATM   23  C   UNL     1      44.742 -22.097   3.501  1.00  0.00     0.000 A 
HETATM   24  C   UNL     1      44.799 -20.934   4.269  1.00  0.00     0.001 A 
HETATM   25  C   UNL     1      44.254 -19.745   3.778  1.00  0.00     0.007 A 
ENDBRANCH  19  20
ENDBRANCH  18  19
ENDBRANCH  17  18
ENDBRANCH   1  17
TORSDOF 6
ENDMDL
MODEL 9
REMARK VINA RESULT:      -7.8      1.601      1.886
REMARK  6 active torsions:
REMARK  status: ('A' for Active; 'I' for Inactive)
REMARK    1  A    between atoms: C_4  and  C_5 
REMARK    2  A    between atoms: C_5  and  C_6 
REMARK    3  A    between atoms: C_6  and  C_7 
REMARK    4  A    between atoms: C_7  and  C_8 
REMARK       I    between atoms: C_8  and  N_9 
REMARK    5  A    between atoms: N_9  and  C_10 
REMARK    6  A    between atoms: C_12  and  C_13 
ROOT
HETATM    1  C   UNL     1      44.273 -14.433   6.948  1.00  0.00     0.222 C 
HETATM    2  N   UNL     1      43.504 -13.770   6.042  1.00  0.00    -0.327 N 
HETATM    3  O   UNL     1      45.256 -13.828   7.391  1.00  0.00    -0.273 OA
HETATM    4  H   UNL     1      43.892 -12.844   5.891  1.00  0.00     0.169 HD
ENDROOT
BRANCH   2   5
HETATM    5  C   UNL     1      42.365 -14.079   5.273  1.00  0.00     0.035 A 
HETATM    6  C   UNL     1      42.337 -14.867   4.121  1.00  0.00     0.042 A 
HETATM    7  C   UNL     1      41.137 -15.080   3.413  1.00  0.00    -0.021 A 
HETATM    8  C   UNL     1      39.954 -14.496   3.877  1.00  0.00     0.012 A 
HETATM    9  C   UNL     1      39.965 -13.719   5.031  1.00  0.00     0.003 A 
HETATM   10  C   UNL     1      41.160 -13.514   5.721  1.00  0.00     0.029 A 
BRANCH   7  11
HETATM   11  C   UNL     1      41.118 -15.876   2.199  1.00  0.00     0.010 A 
HETATM   12  C   UNL     1      41.864 -15.754   1.003  1.00  0.00     0.152 A 
HETATM   13  N   UNL     1      41.545 -16.683   0.097  1.00  0.00    -0.187 NA
HETATM   14  N   UNL     1      40.591 -17.402   0.707  1.00  0.00    -0.289 N 
HETATM   15  H   UNL     1      40.178 -18.179   0.202  1.00  0.00     0.188 HD
HETATM   16  C   UNL     1      40.298 -16.961   1.966  1.00  0.00     0.123 A 
ENDBRANCH   7  11
ENDBRANCH   2   5
BRANCH   1  17
HETATM   17  C   UNL     1      43.944 -15.839   7.398  1.00  0.00     0.103 C 
BRANCH  17  18
HETATM   18  C   UNL     1      44.435 -16.922   6.432  1.00  0.00     0.014 C 
BRANCH  18  19
HETATM   19  C   UNL     1      43.347 -17.935   6.053  1.00  0.00     0.039 C 
BRANCH  19  20
HETATM   20  C   UNL     1      43.749 -18.743   4.843  1.00  0.00    -0.058 A 
HETATM   21  C   UNL     1      44.505 -19.914   4.997  1.00  0.00     0.007 A 
HETATM   22  C   UNL     1      44.902 -20.653   3.882  1.00  0.00     0.001 A 
HETATM   23  C   UNL     1      44.547 -20.231   2.604  1.00  0.00     0.000 A 
HETATM   24  C   UNL     1      43.794 -19.069   2.438  1.00  0.00     0.001 A 
HETATM   25  C   UNL     1      43.399 -18.326   3.553  1.00  0.00     0.007 A 
ENDBRANCH  19  20
ENDBRANCH  18  19
ENDBRANCH  17  18
ENDBRANCH   1  17
TORSDOF 6
ENDMDL
MODEL 10
REMARK VINA RESULT:      -7.7      2.444      5.030
REMARK  6 active torsions:
REMARK  status: ('A' for Active; 'I' for Inactive)
REMARK    1  A    between atoms: C_4  and  C_5 
REMARK    2  A    between atoms: C_5  and  C_6 
REMARK    3  A    between atoms: C_6  and  C_7 
REMARK    4  A    between atoms: C_7  and  C_8 
REMARK       I    between atoms: C_8  and  N_9 
REMARK    5  A    between atoms: N_9  and  C_10 
REMARK    6  A    between atoms: C_12  and  C_13 
ROOT
HETATM    1  C   UNL     1      43.981 -19.491   6.193  1.00  0.00     0.222 C 
HETATM    2  N   UNL     1      43.471 -18.319   6.658  1.00  0.00    -0.327 N 
HETATM    3  O   UNL     1      43.676 -20.515   6.812  1.00  0.00    -0.273 OA
HETATM    4  H   UNL     1      42.892 -18.508   7.470  1.00  0.00     0.169 HD
ENDROOT
BRANCH   2   5
HETATM    5  C   UNL     1      43.591 -16.960   6.307  1.00  0.00     0.035 A 
HETATM    6  C   UNL     1      44.317 -15.990   6.999  1.00  0.00     0.042 A 
HETATM    7  C   UNL     1      44.336 -14.649   6.569  1.00  0.00    -0.021 A 
HETATM    8  C   UNL     1      43.619 -14.285   5.425  1.00  0.00     0.012 A 
HETATM    9  C   UNL     1      42.901 -15.244   4.717  1.00  0.00     0.003 A 
HETATM   10  C   UNL     1      42.889 -16.568   5.156  1.00  0.00     0.029 A 
BRANCH   7  11
HETATM   11  C   UNL     1      45.070 -13.637   7.309  1.00  0.00     0.010 A 
HETATM   12  C   UNL     1      44.711 -12.891   8.457  1.00  0.00     0.152 A 
HETATM   13  N   UNL     1      45.663 -12.034   8.836  1.00  0.00    -0.187 NA
HETATM   14  N   UNL     1      46.635 -12.224   7.930  1.00  0.00    -0.289 N 
HETATM   15  H   UNL     1      47.480 -11.668   8.008  1.00  0.00     0.188 HD
HETATM   16  C   UNL     1      46.330 -13.173   6.996  1.00  0.00     0.123 A 
ENDBRANCH   7  11
ENDBRANCH   2   5
BRANCH   1  17
HETATM   17  C   UNL     1      44.877 -19.544   4.975  1.00  0.00     0.103 C 
BRANCH  17  18
HETATM   18  C   UNL     1      44.423 -20.561   3.923  1.00  0.00     0.014 C 
BRANCH  18  19
HETATM   19  C   UNL     1      44.703 -20.110   2.484  1.00  0.00     0.039 C 
BRANCH  19  20
HETATM   20  C   UNL     1      43.807 -18.962   2.086  1.00  0.00    -0.058 A 
HETATM   21  C   UNL     1      44.363 -17.723   1.734  1.00  0.00     0.007 A 
HETATM   22  C   UNL     1      43.541 -16.650   1.389  1.00  0.00     0.001 A 
HETATM   23  C   UNL     1      42.157 -16.804   1.391  1.00  0.00     0.000 A 
HETATM   24  C   UNL     1      41.593 -18.031   1.737  1.00  0.00     0.001 A 
HETATM   25  C   UNL     1      42.414 -19.105   2.085  1.00  0.00     0.007 A 
ENDBRANCH  19  20
ENDBRANCH  18  19
ENDBRANCH  17  18
ENDBRANCH   1  17
TORSDOF 6
ENDMDL
