MODEL 1
REMARK VINA RESULT:      -9.5      0.000      0.000
REMARK  7 active torsions:
REMARK  status: ('A' for Active; 'I' for Inactive)
REMARK    1  A    between atoms: C_7  and  C_8 
REMARK    2  A    between atoms: C_8  and  N_9 
REMARK    3  A    between atoms: C_13  and  C_14 
REMARK    4  A    between atoms: C_14  and  C_15 
REMARK    5  A    between atoms: C_15  and  C_16 
REMARK    6  A    between atoms: N_26  and  C_27 
REMARK    7  A    between atoms: C_27  and  C_28 
ROOT
HETATM    1  C   UNL     1      42.104 -17.172   3.129  1.00  0.00     0.123 C 
HETATM    2  N   UNL     1      41.577 -17.627   4.405  1.00  0.00    -0.324 N 
HETATM    3  C   UNL     1      41.789 -16.733   5.431  1.00  0.00     0.326 C 
HETATM    4  O   UNL     1      41.586 -16.983   6.604  1.00  0.00    -0.247 OA
HETATM    5  N   UNL     1      42.219 -15.568   4.889  1.00  0.00    -0.268 N 
HETATM    6  C   UNL     1      42.325 -15.695   3.540  1.00  0.00     0.257 C 
HETATM    7  O   UNL     1      42.579 -14.787   2.759  1.00  0.00    -0.270 OA
HETATM    8  H   UNL     1      41.434 -18.604   4.651  1.00  0.00     0.165 HD
ENDROOT
BRANCH   1   9
HETATM    9  C   UNL     1      41.060 -17.398   1.986  1.00  0.00     0.027 C 
HETATM   10  C   UNL     1      41.523 -17.144   0.543  1.00  0.00     0.035 C 
HETATM   11  C   UNL     1      41.506 -15.698   0.065  1.00  0.00     0.235 C 
HETATM   12  N   UNL     1      40.246 -14.962   0.451  1.00  0.00    -0.067 N 
HETATM   13  H   UNL     1      39.524 -15.253  -0.220  1.00  0.00     0.280 HD
HETATM   14  C   UNL     1      39.715 -15.214   1.836  1.00  0.00     0.235 C 
HETATM   15  C   UNL     1      39.702 -16.693   2.173  1.00  0.00     0.035 C 
BRANCH  12  16
HETATM   16  C   UNL     1      40.405 -13.455   0.260  1.00  0.00     0.277 C 
BRANCH  16  17
HETATM   17  C   UNL     1      40.574 -13.022  -1.146  1.00  0.00     0.011 A 
HETATM   18  C   UNL     1      39.626 -13.152  -2.203  1.00  0.00     0.060 A 
HETATM   19  C   UNL     1      38.268 -13.757  -2.168  1.00  0.00     0.073 C 
HETATM   20  N   UNL     1      40.088 -12.627  -3.339  1.00  0.00    -0.178 NA
HETATM   21  N   UNL     1      41.338 -12.236  -3.052  1.00  0.00    -0.284 N 
HETATM   22  C   UNL     1      42.172 -11.677  -4.089  1.00  0.00     0.179 C 
HETATM   23  C   UNL     1      41.668 -12.420  -1.738  1.00  0.00     0.122 A 
ENDBRANCH  16  17
ENDBRANCH  12  16
ENDBRANCH   1   9
BRANCH   1  24
HETATM   24  C   UNL     1      43.537 -17.745   2.884  1.00  0.00     0.082 C 
BRANCH  24  25
HETATM   25  C   UNL     1      43.834 -19.229   3.020  1.00  0.00    -0.034 A 
HETATM   26  C   UNL     1      44.484 -19.835   4.109  1.00  0.00     0.040 A 
HETATM   27 CL   UNL     1      45.000 -18.963   5.501  1.00  0.00    -0.084 Cl
HETATM   28  C   UNL     1      44.787 -21.204   4.095  1.00  0.00     0.024 A 
HETATM   29  C   UNL     1      44.476 -21.989   2.988  1.00  0.00     0.002 A 
HETATM   30  C   UNL     1      43.857 -21.409   1.890  1.00  0.00     0.001 A 
HETATM   31  C   UNL     1      43.542 -20.047   1.906  1.00  0.00     0.009 A 
ENDBRANCH  24  25
ENDBRANCH   1  24
BRANCH   5  32
HETATM   32  C   UNL     1      42.511 -14.365   5.639  1.00  0.00     0.141 C 
BRANCH  32  33
HETATM   33  C   UNL     1      43.982 -14.275   5.911  1.00  0.00     0.004 A 
HETATM   34  C   UNL     1      44.509 -13.756   7.227  1.00  0.00     0.007 A 
HETATM   35  C   UNL     1      44.630 -15.216   6.895  1.00  0.00     0.007 A 
ENDBRANCH  32  33
ENDBRANCH   5  32
TORSDOF 7
ENDMDL
MODEL 2
REMARK VINA RESULT:      -9.3      1.676      2.527
REMARK  7 active torsions:
REMARK  status: ('A' for Active; 'I' for Inactive)
REMARK    1  A    between atoms: C_7  and  C_8 
REMARK    2  A    between atoms: C_8  and  N_9 
REMARK    3  A    between atoms: C_13  and  C_14 
REMARK    4  A    between atoms: C_14  and  C_15 
REMARK    5  A    between atoms: C_15  and  C_16 
REMARK    6  A    between atoms: N_26  and  C_27 
REMARK    7  A    between atoms: C_27  and  C_28 
ROOT
HETATM    1  C   UNL     1      42.163 -17.168   3.065  1.00  0.00     0.123 C 
HETATM    2  N   UNL     1      41.598 -17.637   4.319  1.00  0.00    -0.324 N 
HETATM    3  C   UNL     1      41.801 -16.767   5.367  1.00  0.00     0.326 C 
HETATM    4  O   UNL     1      41.565 -17.035   6.530  1.00  0.00    -0.247 OA
HETATM    5  N   UNL     1      42.263 -15.599   4.857  1.00  0.00    -0.268 N 
HETATM    6  C   UNL     1      42.400 -15.703   3.509  1.00  0.00     0.257 C 
HETATM    7  O   UNL     1      42.688 -14.784   2.752  1.00  0.00    -0.270 OA
HETATM    8  H   UNL     1      41.432 -18.616   4.542  1.00  0.00     0.165 HD
ENDROOT
BRANCH   1   9
HETATM    9  C   UNL     1      41.143 -17.354   1.893  1.00  0.00     0.027 C 
HETATM   10  C   UNL     1      41.608 -16.965   0.481  1.00  0.00     0.035 C 
HETATM   11  C   UNL     1      41.525 -15.488   0.117  1.00  0.00     0.235 C 
HETATM   12  N   UNL     1      40.225 -14.847   0.541  1.00  0.00    -0.067 N 
HETATM   13  H   UNL     1      39.526 -15.119  -0.160  1.00  0.00     0.280 HD
HETATM   14  C   UNL     1      39.693 -15.233   1.895  1.00  0.00     0.235 C 
HETATM   15  C   UNL     1      39.751 -16.733   2.115  1.00  0.00     0.035 C 
BRANCH  12  16
HETATM   16  C   UNL     1      40.311 -13.323   0.471  1.00  0.00     0.277 C 
BRANCH  16  17
HETATM   17  C   UNL     1      39.051 -12.616   0.793  1.00  0.00     0.011 A 
HETATM   18  C   UNL     1      38.756 -11.889   1.983  1.00  0.00     0.060 A 
HETATM   19  C   UNL     1      39.609 -11.678   3.182  1.00  0.00     0.073 C 
HETATM   20  N   UNL     1      37.538 -11.347   1.932  1.00  0.00    -0.178 NA
HETATM   21  N   UNL     1      37.020 -11.775   0.773  1.00  0.00    -0.284 N 
HETATM   22  C   UNL     1      35.663 -11.429   0.420  1.00  0.00     0.179 C 
HETATM   23  C   UNL     1      37.901 -12.514   0.034  1.00  0.00     0.122 A 
ENDBRANCH  16  17
ENDBRANCH  12  16
ENDBRANCH   1   9
BRANCH   1  24
HETATM   24  C   UNL     1      43.592 -17.761   2.843  1.00  0.00     0.082 C 
BRANCH  24  25
HETATM   25  C   UNL     1      43.869 -19.247   2.999  1.00  0.00    -0.034 A 
HETATM   26  C   UNL     1      44.505 -19.848   4.099  1.00  0.00     0.040 A 
HETATM   27 CL   UNL     1      45.024 -18.966   5.484  1.00  0.00    -0.084 Cl
HETATM   28  C   UNL     1      44.790 -21.221   4.102  1.00  0.00     0.024 A 
HETATM   29  C   UNL     1      44.475 -22.014   3.003  1.00  0.00     0.002 A 
HETATM   30  C   UNL     1      43.871 -21.440   1.895  1.00  0.00     0.001 A 
HETATM   31  C   UNL     1      43.573 -20.074   1.892  1.00  0.00     0.009 A 
ENDBRANCH  24  25
ENDBRANCH   1  24
BRANCH   5  32
HETATM   32  C   UNL     1      42.557 -14.415   5.637  1.00  0.00     0.141 C 
BRANCH  32  33
HETATM   33  C   UNL     1      44.024 -14.353   5.941  1.00  0.00     0.004 A 
HETATM   34  C   UNL     1      44.534 -13.793   7.246  1.00  0.00     0.007 A 
HETATM   35  C   UNL     1      44.623 -15.269   6.978  1.00  0.00     0.007 A 
ENDBRANCH  32  33
ENDBRANCH   5  32
TORSDOF 7
ENDMDL
MODEL 3
REMARK VINA RESULT:      -8.8      1.068      1.831
REMARK  7 active torsions:
REMARK  status: ('A' for Active; 'I' for Inactive)
REMARK    1  A    between atoms: C_7  and  C_8 
REMARK    2  A    between atoms: C_8  and  N_9 
REMARK    3  A    between atoms: C_13  and  C_14 
REMARK    4  A    between atoms: C_14  and  C_15 
REMARK    5  A    between atoms: C_15  and  C_16 
REMARK    6  A    between atoms: N_26  and  C_27 
REMARK    7  A    between atoms: C_27  and  C_28 
ROOT
HETATM    1  C   UNL     1      42.282 -17.098   3.098  1.00  0.00     0.123 C 
HETATM    2  N   UNL     1      41.867 -17.386   4.461  1.00  0.00    -0.324 N 
HETATM    3  C   UNL     1      42.195 -16.389   5.353  1.00  0.00     0.326 C 
HETATM    4  O   UNL     1      42.096 -16.497   6.561  1.00  0.00    -0.247 OA
HETATM    5  N   UNL     1      42.598 -15.308   4.642  1.00  0.00    -0.268 N 
HETATM    6  C   UNL     1      42.575 -15.592   3.313  1.00  0.00     0.257 C 
HETATM    7  O   UNL     1      42.776 -14.787   2.412  1.00  0.00    -0.270 OA
HETATM    8  H   UNL     1      41.725 -18.323   4.831  1.00  0.00     0.165 HD
ENDROOT
BRANCH   1   9
HETATM    9  C   UNL     1      41.130 -17.417   2.088  1.00  0.00     0.027 C 
HETATM   10  C   UNL     1      41.470 -17.373   0.590  1.00  0.00     0.035 C 
HETATM   11  C   UNL     1      41.465 -16.002  -0.072  1.00  0.00     0.235 C 
HETATM   12  N   UNL     1      40.274 -15.160   0.319  1.00  0.00    -0.067 N 
HETATM   13  H   UNL     1      39.484 -15.499  -0.243  1.00  0.00     0.280 HD
HETATM   14  C   UNL     1      39.861 -15.206   1.765  1.00  0.00     0.235 C 
HETATM   15  C   UNL     1      39.823 -16.627   2.295  1.00  0.00     0.035 C 
BRANCH  12  16
HETATM   16  C   UNL     1      40.472 -13.700  -0.083  1.00  0.00     0.277 C 
BRANCH  16  17
HETATM   17  C   UNL     1      39.719 -13.281  -1.287  1.00  0.00     0.011 A 
HETATM   18  C   UNL     1      40.134 -13.407  -2.645  1.00  0.00     0.060 A 
HETATM   19  C   UNL     1      41.405 -13.959  -3.183  1.00  0.00     0.073 C 
HETATM   20  N   UNL     1      39.199 -12.958  -3.483  1.00  0.00    -0.178 NA
HETATM   21  N   UNL     1      38.231 -12.477  -2.691  1.00  0.00    -0.284 N 
HETATM   22  C   UNL     1      37.074 -11.840  -3.275  1.00  0.00     0.179 C 
HETATM   23  C   UNL     1      38.478 -12.677  -1.362  1.00  0.00     0.122 A 
ENDBRANCH  16  17
ENDBRANCH  12  16
ENDBRANCH   1   9
BRANCH   1  24
HETATM   24  C   UNL     1      43.672 -17.743   2.793  1.00  0.00     0.082 C 
BRANCH  24  25
HETATM   25  C   UNL     1      43.923 -19.227   2.999  1.00  0.00    -0.034 A 
HETATM   26  C   UNL     1      44.520 -19.805   4.133  1.00  0.00     0.040 A 
HETATM   27 CL   UNL     1      45.016 -18.890   5.506  1.00  0.00    -0.084 Cl
HETATM   28  C   UNL     1      44.784 -21.181   4.184  1.00  0.00     0.024 A 
HETATM   29  C   UNL     1      44.486 -22.002   3.100  1.00  0.00     0.002 A 
HETATM   30  C   UNL     1      43.921 -21.451   1.960  1.00  0.00     0.001 A 
HETATM   31  C   UNL     1      43.644 -20.082   1.910  1.00  0.00     0.009 A 
ENDBRANCH  24  25
ENDBRANCH   1  24
BRANCH   5  32
HETATM   32  C   UNL     1      42.987 -14.038   5.218  1.00  0.00     0.141 C 
BRANCH  32  33
HETATM   33  C   UNL     1      41.769 -13.274   5.643  1.00  0.00     0.004 A 
HETATM   34  C   UNL     1      41.587 -11.819   5.283  1.00  0.00     0.007 A 
HETATM   35  C   UNL     1      40.734 -12.867   4.624  1.00  0.00     0.007 A 
ENDBRANCH  32  33
ENDBRANCH   5  32
TORSDOF 7
ENDMDL
MODEL 4
REMARK VINA RESULT:      -8.4      2.082      2.981
REMARK  7 active torsions:
REMARK  status: ('A' for Active; 'I' for Inactive)
REMARK    1  A    between atoms: C_7  and  C_8 
REMARK    2  A    between atoms: C_8  and  N_9 
REMARK    3  A    between atoms: C_13  and  C_14 
REMARK    4  A    between atoms: C_14  and  C_15 
REMARK    5  A    between atoms: C_15  and  C_16 
REMARK    6  A    between atoms: N_26  and  C_27 
REMARK    7  A    between atoms: C_27  and  C_28 
ROOT
HETATM    1  C   UNL     1      42.267 -15.121   3.912  1.00  0.00     0.123 C 
HETATM    2  N   UNL     1      41.163 -16.048   4.097  1.00  0.00    -0.324 N 
HETATM    3  C   UNL     1      41.284 -16.820   5.231  1.00  0.00     0.326 C 
HETATM    4  O   UNL     1      40.569 -17.770   5.488  1.00  0.00    -0.247 OA
HETATM    5  N   UNL     1      42.292 -16.308   5.980  1.00  0.00    -0.268 N 
HETATM    6  C   UNL     1      42.851 -15.246   5.342  1.00  0.00     0.257 C 
HETATM    7  O   UNL     1      43.705 -14.505   5.812  1.00  0.00    -0.270 OA
HETATM    8  H   UNL     1      40.582 -16.405   3.342  1.00  0.00     0.165 HD
ENDROOT
BRANCH   1   9
HETATM    9  C   UNL     1      41.740 -13.699   3.528  1.00  0.00     0.027 C 
HETATM   10  C   UNL     1      40.218 -13.489   3.514  1.00  0.00     0.035 C 
HETATM   11  C   UNL     1      39.478 -13.935   2.260  1.00  0.00     0.235 C 
HETATM   12  N   UNL     1      40.173 -13.524   0.984  1.00  0.00    -0.067 N 
HETATM   13  H   UNL     1      39.944 -12.533   0.837  1.00  0.00     0.280 HD
HETATM   14  C   UNL     1      41.671 -13.657   0.960  1.00  0.00     0.235 C 
HETATM   15  C   UNL     1      42.306 -13.107   2.223  1.00  0.00     0.035 C 
BRANCH  12  16
HETATM   16  C   UNL     1      39.600 -14.265  -0.222  1.00  0.00     0.277 C 
BRANCH  16  17
HETATM   17  C   UNL     1      39.927 -13.660  -1.533  1.00  0.00     0.011 A 
HETATM   18  C   UNL     1      40.509 -14.314  -2.658  1.00  0.00     0.060 A 
HETATM   19  C   UNL     1      40.943 -15.730  -2.792  1.00  0.00     0.073 C 
HETATM   20  N   UNL     1      40.638 -13.481  -3.692  1.00  0.00    -0.178 NA
HETATM   21  N   UNL     1      40.225 -12.293  -3.229  1.00  0.00    -0.284 N 
HETATM   22  C   UNL     1      40.296 -11.127  -4.078  1.00  0.00     0.179 C 
HETATM   23  C   UNL     1      39.756 -12.353  -1.947  1.00  0.00     0.122 A 
ENDBRANCH  16  17
ENDBRANCH  12  16
ENDBRANCH   1   9
BRANCH   1  24
HETATM   24  C   UNL     1      43.356 -15.735   2.974  1.00  0.00     0.082 C 
BRANCH  24  25
HETATM   25  C   UNL     1      43.395 -17.222   2.667  1.00  0.00    -0.034 A 
HETATM   26  C   UNL     1      42.614 -17.876   1.698  1.00  0.00     0.040 A 
HETATM   27 CL   UNL     1      41.516 -17.051   0.660  1.00  0.00    -0.084 Cl
HETATM   28  C   UNL     1      42.665 -19.271   1.555  1.00  0.00     0.024 A 
HETATM   29  C   UNL     1      43.469 -20.041   2.391  1.00  0.00     0.002 A 
HETATM   30  C   UNL     1      44.228 -19.421   3.372  1.00  0.00     0.001 A 
HETATM   31  C   UNL     1      44.191 -18.031   3.509  1.00  0.00     0.009 A 
ENDBRANCH  24  25
ENDBRANCH   1  24
BRANCH   5  32
HETATM   32  C   UNL     1      42.702 -16.815   7.272  1.00  0.00     0.141 C 
BRANCH  32  33
HETATM   33  C   UNL     1      43.866 -17.745   7.112  1.00  0.00     0.004 A 
HETATM   34  C   UNL     1      44.298 -18.667   8.227  1.00  0.00     0.007 A 
HETATM   35  C   UNL     1      43.639 -19.233   7.001  1.00  0.00     0.007 A 
ENDBRANCH  32  33
ENDBRANCH   5  32
TORSDOF 7
ENDMDL
MODEL 5
REMARK VINA RESULT:      -8.3      2.744      7.423
REMARK  7 active torsions:
REMARK  status: ('A' for Active; 'I' for Inactive)
REMARK    1  A    between atoms: C_7  and  C_8 
REMARK    2  A    between atoms: C_8  and  N_9 
REMARK    3  A    between atoms: C_13  and  C_14 
REMARK    4  A    between atoms: C_14  and  C_15 
REMARK    5  A    between atoms: C_15  and  C_16 
REMARK    6  A    between atoms: N_26  and  C_27 
REMARK    7  A    between atoms: C_27  and  C_28 
ROOT
HETATM    1  C   UNL     1      41.102 -14.669   2.471  1.00  0.00     0.123 C 
HETATM    2  N   UNL     1      42.524 -14.459   2.252  1.00  0.00    -0.324 N 
HETATM    3  C   UNL     1      43.174 -13.942   3.350  1.00  0.00     0.326 C 
HETATM    4  O   UNL     1      44.319 -13.533   3.334  1.00  0.00    -0.247 OA
HETATM    5  N   UNL     1      42.328 -14.011   4.408  1.00  0.00    -0.268 N 
HETATM    6  C   UNL     1      41.133 -14.525   4.013  1.00  0.00     0.257 C 
HETATM    7  O   UNL     1      40.205 -14.816   4.757  1.00  0.00    -0.270 OA
HETATM    8  H   UNL     1      42.947 -14.311   1.339  1.00  0.00     0.165 HD
ENDROOT
BRANCH   1   9
HETATM    9  C   UNL     1      40.661 -16.073   1.940  1.00  0.00     0.027 C 
HETATM   10  C   UNL     1      40.672 -17.243   2.936  1.00  0.00     0.035 C 
HETATM   11  C   UNL     1      42.014 -17.924   3.174  1.00  0.00     0.235 C 
HETATM   12  N   UNL     1      42.779 -18.187   1.900  1.00  0.00    -0.067 N 
HETATM   13  H   UNL     1      42.361 -19.026   1.480  1.00  0.00     0.280 HD
HETATM   14  C   UNL     1      42.757 -17.096   0.863  1.00  0.00     0.235 C 
HETATM   15  C   UNL     1      41.359 -16.549   0.651  1.00  0.00     0.035 C 
BRANCH  12  16
HETATM   16  C   UNL     1      44.233 -18.550   2.192  1.00  0.00     0.277 C 
BRANCH  16  17
HETATM   17  C   UNL     1      44.413 -19.688   3.121  1.00  0.00     0.011 A 
HETATM   18  C   UNL     1      44.626 -19.621   4.529  1.00  0.00     0.060 A 
HETATM   19  C   UNL     1      44.738 -18.420   5.398  1.00  0.00     0.073 C 
HETATM   20  N   UNL     1      44.715 -20.838   5.067  1.00  0.00    -0.178 NA
HETATM   21  N   UNL     1      44.642 -21.679   4.026  1.00  0.00    -0.284 N 
HETATM   22  C   UNL     1      44.777 -23.101   4.239  1.00  0.00     0.179 C 
HETATM   23  C   UNL     1      44.427 -21.041   2.837  1.00  0.00     0.122 A 
ENDBRANCH  16  17
ENDBRANCH  12  16
ENDBRANCH   1   9
BRANCH   1  24
HETATM   24  C   UNL     1      40.276 -13.444   1.965  1.00  0.00     0.082 C 
BRANCH  24  25
HETATM   25  C   UNL     1      39.845 -13.320   0.513  1.00  0.00    -0.034 A 
HETATM   26  C   UNL     1      38.593 -13.699  -0.002  1.00  0.00     0.040 A 
HETATM   27 CL   UNL     1      37.322 -14.325   0.976  1.00  0.00    -0.084 Cl
HETATM   28  C   UNL     1      38.329 -13.623  -1.378  1.00  0.00     0.024 A 
HETATM   29  C   UNL     1      39.311 -13.196  -2.267  1.00  0.00     0.002 A 
HETATM   30  C   UNL     1      40.563 -12.840  -1.785  1.00  0.00     0.001 A 
HETATM   31  C   UNL     1      40.826 -12.903  -0.414  1.00  0.00     0.009 A 
ENDBRANCH  24  25
ENDBRANCH   1  24
BRANCH   5  32
HETATM   32  C   UNL     1      42.656 -13.603   5.757  1.00  0.00     0.141 C 
BRANCH  32  33
HETATM   33  C   UNL     1      43.955 -14.222   6.178  1.00  0.00     0.004 A 
HETATM   34  C   UNL     1      44.581 -13.905   7.514  1.00  0.00     0.007 A 
HETATM   35  C   UNL     1      43.981 -15.261   7.271  1.00  0.00     0.007 A 
ENDBRANCH  32  33
ENDBRANCH   5  32
TORSDOF 7
ENDMDL
MODEL 6
REMARK VINA RESULT:      -8.2      2.063      2.961
REMARK  7 active torsions:
REMARK  status: ('A' for Active; 'I' for Inactive)
REMARK    1  A    between atoms: C_7  and  C_8 
REMARK    2  A    between atoms: C_8  and  N_9 
REMARK    3  A    between atoms: C_13  and  C_14 
REMARK    4  A    between atoms: C_14  and  C_15 
REMARK    5  A    between atoms: C_15  and  C_16 
REMARK    6  A    between atoms: N_26  and  C_27 
REMARK    7  A    between atoms: C_27  and  C_28 
ROOT
HETATM    1  C   UNL     1      42.602 -16.476   2.761  1.00  0.00     0.123 C 
HETATM    2  N   UNL     1      41.731 -16.923   3.836  1.00  0.00    -0.324 N 
HETATM    3  C   UNL     1      41.816 -16.143   4.967  1.00  0.00     0.326 C 
HETATM    4  O   UNL     1      41.308 -16.432   6.034  1.00  0.00    -0.247 OA
HETATM    5  N   UNL     1      42.518 -15.027   4.653  1.00  0.00    -0.268 N 
HETATM    6  C   UNL     1      42.922 -15.082   3.356  1.00  0.00     0.257 C 
HETATM    7  O   UNL     1      43.477 -14.177   2.746  1.00  0.00    -0.270 OA
HETATM    8  H   UNL     1      41.399 -17.880   3.945  1.00  0.00     0.165 HD
ENDROOT
BRANCH   1   9
HETATM    9  C   UNL     1      41.837 -16.461   1.397  1.00  0.00     0.027 C 
HETATM   10  C   UNL     1      41.904 -15.173   0.562  1.00  0.00     0.035 C 
HETATM   11  C   UNL     1      40.936 -14.060   0.943  1.00  0.00     0.235 C 
HETATM   12  N   UNL     1      39.535 -14.558   1.204  1.00  0.00    -0.067 N 
HETATM   13  H   UNL     1      39.102 -14.698   0.284  1.00  0.00     0.280 HD
HETATM   14  C   UNL     1      39.409 -15.846   1.972  1.00  0.00     0.235 C 
HETATM   15  C   UNL     1      40.363 -16.906   1.453  1.00  0.00     0.035 C 
BRANCH  12  16
HETATM   16  C   UNL     1      38.690 -13.493   1.902  1.00  0.00     0.277 C 
BRANCH  16  17
HETATM   17  C   UNL     1      39.465 -12.392   2.516  1.00  0.00     0.011 A 
HETATM   18  C   UNL     1      39.822 -11.152   1.910  1.00  0.00     0.060 A 
HETATM   19  C   UNL     1      39.531 -10.669   0.534  1.00  0.00     0.073 C 
HETATM   20  N   UNL     1      40.495 -10.371   2.758  1.00  0.00    -0.178 NA
HETATM   21  N   UNL     1      40.643 -11.114   3.863  1.00  0.00    -0.284 N 
HETATM   22  C   UNL     1      41.399 -10.598   4.980  1.00  0.00     0.179 C 
HETATM   23  C   UNL     1      40.014 -12.325   3.783  1.00  0.00     0.122 A 
ENDBRANCH  16  17
ENDBRANCH  12  16
ENDBRANCH   1   9
BRANCH   1  24
HETATM   24  C   UNL     1      43.959 -17.251   2.788  1.00  0.00     0.082 C 
BRANCH  24  25
HETATM   25  C   UNL     1      44.009 -18.760   2.957  1.00  0.00    -0.034 A 
HETATM   26  C   UNL     1      44.475 -19.440   4.096  1.00  0.00     0.040 A 
HETATM   27 CL   UNL     1      45.016 -18.632   5.518  1.00  0.00    -0.084 Cl
HETATM   28  C   UNL     1      44.560 -20.839   4.114  1.00  0.00     0.024 A 
HETATM   29  C   UNL     1      44.213 -21.586   2.992  1.00  0.00     0.002 A 
HETATM   30  C   UNL     1      43.776 -20.937   1.846  1.00  0.00     0.001 A 
HETATM   31  C   UNL     1      43.677 -19.544   1.829  1.00  0.00     0.009 A 
ENDBRANCH  24  25
ENDBRANCH   1  24
BRANCH   5  32
HETATM   32  C   UNL     1      42.788 -13.936   5.565  1.00  0.00     0.141 C 
BRANCH  32  33
HETATM   33  C   UNL     1      44.201 -14.019   6.061  1.00  0.00     0.004 A 
HETATM   34  C   UNL     1      44.555 -13.679   7.488  1.00  0.00     0.007 A 
HETATM   35  C   UNL     1      44.603 -15.108   7.024  1.00  0.00     0.007 A 
ENDBRANCH  32  33
ENDBRANCH   5  32
TORSDOF 7
ENDMDL
MODEL 7
REMARK VINA RESULT:      -8.2      3.101      6.141
REMARK  7 active torsions:
REMARK  status: ('A' for Active; 'I' for Inactive)
REMARK    1  A    between atoms: C_7  and  C_8 
REMARK    2  A    between atoms: C_8  and  N_9 
REMARK    3  A    between atoms: C_13  and  C_14 
REMARK    4  A    between atoms: C_14  and  C_15 
REMARK    5  A    between atoms: C_15  and  C_16 
REMARK    6  A    between atoms: N_26  and  C_27 
REMARK    7  A    between atoms: C_27  and  C_28 
ROOT
HETATM    1  C   UNL     1      42.292 -16.202   3.324  1.00  0.00     0.123 C 
HETATM    2  N   UNL     1      42.459 -16.287   1.883  1.00  0.00    -0.324 N 
HETATM    3  C   UNL     1      41.281 -16.125   1.188  1.00  0.00     0.326 C 
HETATM    4  O   UNL     1      41.161 -16.328  -0.006  1.00  0.00    -0.247 OA
HETATM    5  N   UNL     1      40.339 -15.685   2.058  1.00  0.00    -0.268 N 
HETATM    6  C   UNL     1      40.868 -15.593   3.307  1.00  0.00     0.257 C 
HETATM    7  O   UNL     1      40.302 -15.119   4.284  1.00  0.00    -0.270 OA
HETATM    8  H   UNL     1      43.215 -16.789   1.422  1.00  0.00     0.165 HD
ENDROOT
BRANCH   1   9
HETATM    9  C   UNL     1      43.399 -15.295   3.958  1.00  0.00     0.027 C 
HETATM   10  C   UNL     1      43.501 -15.268   5.491  1.00  0.00     0.035 C 
HETATM   11  C   UNL     1      42.538 -14.344   6.224  1.00  0.00     0.235 C 
HETATM   12  N   UNL     1      42.426 -12.980   5.586  1.00  0.00    -0.067 N 
HETATM   13  H   UNL     1      43.253 -12.452   5.886  1.00  0.00     0.280 HD
HETATM   14  C   UNL     1      42.376 -12.941   4.083  1.00  0.00     0.235 C 
HETATM   15  C   UNL     1      43.431 -13.837   3.461  1.00  0.00     0.035 C 
BRANCH  12  16
HETATM   16  C   UNL     1      41.223 -12.212   6.131  1.00  0.00     0.277 C 
BRANCH  16  17
HETATM   17  C   UNL     1      41.428 -10.751   6.259  1.00  0.00     0.011 A 
HETATM   18  C   UNL     1      41.734 -10.029   7.449  1.00  0.00     0.060 A 
HETATM   19  C   UNL     1      41.903 -10.543   8.834  1.00  0.00     0.073 C 
HETATM   20  N   UNL     1      41.885  -8.727   7.203  1.00  0.00    -0.178 NA
HETATM   21  N   UNL     1      41.606  -8.589   5.900  1.00  0.00    -0.284 N 
HETATM   22  C   UNL     1      41.604  -7.276   5.299  1.00  0.00     0.179 C 
HETATM   23  C   UNL     1      41.357  -9.781   5.277  1.00  0.00     0.122 A 
ENDBRANCH  16  17
ENDBRANCH  12  16
ENDBRANCH   1   9
BRANCH   1  24
HETATM   24  C   UNL     1      42.118 -17.624   3.948  1.00  0.00     0.082 C 
BRANCH  24  25
HETATM   25  C   UNL     1      43.012 -18.784   3.545  1.00  0.00    -0.034 A 
HETATM   26  C   UNL     1      44.120 -19.254   4.272  1.00  0.00     0.040 A 
HETATM   27 CL   UNL     1      44.597 -18.594   5.790  1.00  0.00    -0.084 Cl
HETATM   28  C   UNL     1      44.931 -20.278   3.765  1.00  0.00     0.024 A 
HETATM   29  C   UNL     1      44.675 -20.834   2.515  1.00  0.00     0.002 A 
HETATM   30  C   UNL     1      43.603 -20.370   1.766  1.00  0.00     0.001 A 
HETATM   31  C   UNL     1      42.784 -19.358   2.274  1.00  0.00     0.009 A 
ENDBRANCH  24  25
ENDBRANCH   1  24
BRANCH   5  32
HETATM   32  C   UNL     1      38.976 -15.354   1.703  1.00  0.00     0.141 C 
BRANCH  32  33
HETATM   33  C   UNL     1      38.934 -14.026   1.009  1.00  0.00     0.004 A 
HETATM   34  C   UNL     1      37.626 -13.391   0.603  1.00  0.00     0.007 A 
HETATM   35  C   UNL     1      38.423 -12.806   1.735  1.00  0.00     0.007 A 
ENDBRANCH  32  33
ENDBRANCH   5  32
TORSDOF 7
ENDMDL
MODEL 8
REMARK VINA RESULT:      -8.2      3.219      7.122
REMARK  7 active torsions:
REMARK  status: ('A' for Active; 'I' for Inactive)
REMARK    1  A    between atoms: C_7  and  C_8 
REMARK    2  A    between atoms: C_8  and  N_9 
REMARK    3  A    between atoms: C_13  and  C_14 
REMARK    4  A    between atoms: C_14  and  C_15 
REMARK    5  A    between atoms: C_15  and  C_16 
REMARK    6  A    between atoms: N_26  and  C_27 
REMARK    7  A    between atoms: C_27  and  C_28 
ROOT
HETATM    1  C   UNL     1      42.469 -15.204   3.253  1.00  0.00     0.123 C 
HETATM    2  N   UNL     1      42.678 -13.788   3.000  1.00  0.00    -0.324 N 
HETATM    3  C   UNL     1      42.162 -13.367   1.795  1.00  0.00     0.326 C 
HETATM    4  O   UNL     1      42.372 -12.272   1.309  1.00  0.00    -0.247 OA
HETATM    5  N   UNL     1      41.385 -14.363   1.302  1.00  0.00    -0.268 N 
HETATM    6  C   UNL     1      41.415 -15.433   2.140  1.00  0.00     0.257 C 
HETATM    7  O   UNL     1      40.730 -16.441   2.029  1.00  0.00    -0.270 OA
HETATM    8  H   UNL     1      43.429 -13.237   3.411  1.00  0.00     0.165 HD
ENDROOT
BRANCH   1   9
HETATM    9  C   UNL     1      41.960 -15.437   4.713  1.00  0.00     0.027 C 
HETATM   10  C   UNL     1      40.522 -15.006   5.040  1.00  0.00     0.035 C 
HETATM   11  C   UNL     1      40.307 -13.533   5.363  1.00  0.00     0.235 C 
HETATM   12  N   UNL     1      41.351 -12.975   6.301  1.00  0.00    -0.067 N 
HETATM   13  H   UNL     1      41.084 -13.280   7.244  1.00  0.00     0.280 HD
HETATM   14  C   UNL     1      42.772 -13.407   6.062  1.00  0.00     0.235 C 
HETATM   15  C   UNL     1      42.874 -14.903   5.833  1.00  0.00     0.035 C 
BRANCH  12  16
HETATM   16  C   UNL     1      41.307 -11.448   6.332  1.00  0.00     0.277 C 
BRANCH  16  17
HETATM   17  C   UNL     1      40.816 -10.868   7.603  1.00  0.00     0.011 A 
HETATM   18  C   UNL     1      41.578 -10.610   8.779  1.00  0.00     0.060 A 
HETATM   19  C   UNL     1      43.020 -10.869   9.030  1.00  0.00     0.073 C 
HETATM   20  N   UNL     1      40.829 -10.051   9.731  1.00  0.00    -0.178 NA
HETATM   21  N   UNL     1      39.591 -10.019   9.219  1.00  0.00    -0.284 N 
HETATM   22  C   UNL     1      38.494  -9.531  10.021  1.00  0.00     0.179 C 
HETATM   23  C   UNL     1      39.534 -10.467   7.929  1.00  0.00     0.122 A 
ENDBRANCH  16  17
ENDBRANCH  12  16
ENDBRANCH   1   9
BRANCH   1  24
HETATM   24  C   UNL     1      43.715 -16.037   2.810  1.00  0.00     0.082 C 
BRANCH  24  25
HETATM   25  C   UNL     1      43.718 -17.555   2.867  1.00  0.00    -0.034 A 
HETATM   26  C   UNL     1      44.070 -18.330   3.986  1.00  0.00     0.040 A 
HETATM   27 CL   UNL     1      44.507 -17.646   5.504  1.00  0.00    -0.084 Cl
HETATM   28  C   UNL     1      44.122 -19.729   3.904  1.00  0.00     0.024 A 
HETATM   29  C   UNL     1      43.854 -20.380   2.703  1.00  0.00     0.002 A 
HETATM   30  C   UNL     1      43.530 -19.636   1.578  1.00  0.00     0.001 A 
HETATM   31  C   UNL     1      43.464 -18.243   1.659  1.00  0.00     0.009 A 
ENDBRANCH  24  25
ENDBRANCH   1  24
BRANCH   5  32
HETATM   32  C   UNL     1      40.631 -14.290   0.069  1.00  0.00     0.141 C 
BRANCH  32  33
HETATM   33  C   UNL     1      41.465 -14.787  -1.073  1.00  0.00     0.004 A 
HETATM   34  C   UNL     1      40.876 -15.651  -2.162  1.00  0.00     0.007 A 
HETATM   35  C   UNL     1      41.262 -14.230  -2.460  1.00  0.00     0.007 A 
ENDBRANCH  32  33
ENDBRANCH   5  32
TORSDOF 7
ENDMDL
MODEL 9
REMARK VINA RESULT:      -8.1      3.322      7.733
REMARK  7 active torsions:
REMARK  status: ('A' for Active; 'I' for Inactive)
REMARK    1  A    between atoms: C_7  and  C_8 
REMARK    2  A    between atoms: C_8  and  N_9 
REMARK    3  A    between atoms: C_13  and  C_14 
REMARK    4  A    between atoms: C_14  and  C_15 
REMARK    5  A    between atoms: C_15  and  C_16 
REMARK    6  A    between atoms: N_26  and  C_27 
REMARK    7  A    between atoms: C_27  and  C_28 
ROOT
HETATM    1  C   UNL     1      41.375 -14.685   1.084  1.00  0.00     0.123 C 
HETATM    2  N   UNL     1      42.547 -14.335   1.870  1.00  0.00    -0.324 N 
HETATM    3  C   UNL     1      42.309 -13.338   2.789  1.00  0.00     0.326 C 
HETATM    4  O   UNL     1      43.181 -12.777   3.426  1.00  0.00    -0.247 OA
HETATM    5  N   UNL     1      40.970 -13.144   2.858  1.00  0.00    -0.268 N 
HETATM    6  C   UNL     1      40.336 -13.964   1.979  1.00  0.00     0.257 C 
HETATM    7  O   UNL     1      39.123 -14.104   1.886  1.00  0.00    -0.270 OA
HETATM    8  H   UNL     1      43.507 -14.475   1.561  1.00  0.00     0.165 HD
ENDROOT
BRANCH   1   9
HETATM    9  C   UNL     1      41.213 -16.238   0.991  1.00  0.00     0.027 C 
HETATM   10  C   UNL     1      40.608 -16.962   2.204  1.00  0.00     0.035 C 
HETATM   11  C   UNL     1      41.557 -17.282   3.351  1.00  0.00     0.235 C 
HETATM   12  N   UNL     1      42.878 -17.848   2.887  1.00  0.00    -0.067 N 
HETATM   13  H   UNL     1      42.708 -18.838   2.673  1.00  0.00     0.280 HD
HETATM   14  C   UNL     1      43.492 -17.214   1.668  1.00  0.00     0.235 C 
HETATM   15  C   UNL     1      42.472 -17.016   0.562  1.00  0.00     0.035 C 
BRANCH  12  16
HETATM   16  C   UNL     1      43.911 -17.838   4.011  1.00  0.00     0.277 C 
BRANCH  16  17
HETATM   17  C   UNL     1      44.133 -19.149   4.661  1.00  0.00     0.011 A 
HETATM   18  C   UNL     1      43.875 -19.488   6.021  1.00  0.00     0.060 A 
HETATM   19  C   UNL     1      43.348 -18.626   7.112  1.00  0.00     0.073 C 
HETATM   20  N   UNL     1      44.158 -20.768   6.267  1.00  0.00    -0.178 NA
HETATM   21  N   UNL     1      44.664 -21.234   5.117  1.00  0.00    -0.284 N 
HETATM   22  C   UNL     1      45.149 -22.592   5.043  1.00  0.00     0.179 C 
HETATM   23  C   UNL     1      44.640 -20.311   4.109  1.00  0.00     0.122 A 
ENDBRANCH  16  17
ENDBRANCH  12  16
ENDBRANCH   1   9
BRANCH   1  24
HETATM   24  C   UNL     1      41.360 -13.902  -0.268  1.00  0.00     0.082 C 
BRANCH  24  25
HETATM   25  C   UNL     1      40.512 -14.361  -1.443  1.00  0.00    -0.034 A 
HETATM   26  C   UNL     1      39.224 -13.890  -1.753  1.00  0.00     0.040 A 
HETATM   27 CL   UNL     1      38.430 -12.656  -0.852  1.00  0.00    -0.084 Cl
HETATM   28  C   UNL     1      38.492 -14.445  -2.813  1.00  0.00     0.024 A 
HETATM   29  C   UNL     1      39.013 -15.495  -3.563  1.00  0.00     0.002 A 
HETATM   30  C   UNL     1      40.271 -15.995  -3.259  1.00  0.00     0.001 A 
HETATM   31  C   UNL     1      41.010 -15.436  -2.213  1.00  0.00     0.009 A 
ENDBRANCH  24  25
ENDBRANCH   1  24
BRANCH   5  32
HETATM   32  C   UNL     1      40.315 -12.205   3.744  1.00  0.00     0.141 C 
BRANCH  32  33
HETATM   33  C   UNL     1      40.447 -12.664   5.165  1.00  0.00     0.004 A 
HETATM   34  C   UNL     1      39.250 -12.746   6.081  1.00  0.00     0.007 A 
HETATM   35  C   UNL     1      39.900 -14.007   5.583  1.00  0.00     0.007 A 
ENDBRANCH  32  33
ENDBRANCH   5  32
TORSDOF 7
ENDMDL
MODEL 10
REMARK VINA RESULT:      -8.1      3.073      6.588
REMARK  7 active torsions:
REMARK  status: ('A' for Active; 'I' for Inactive)
REMARK    1  A    between atoms: C_7  and  C_8 
REMARK    2  A    between atoms: C_8  and  N_9 
REMARK    3  A    between atoms: C_13  and  C_14 
REMARK    4  A    between atoms: C_14  and  C_15 
REMARK    5  A    between atoms: C_15  and  C_16 
REMARK    6  A    between atoms: N_26  and  C_27 
REMARK    7  A    between atoms: C_27  and  C_28 
ROOT
HETATM    1  C   UNL     1      42.644 -15.407   3.377  1.00  0.00     0.123 C 
HETATM    2  N   UNL     1      42.855 -14.007   3.049  1.00  0.00    -0.324 N 
HETATM    3  C   UNL     1      42.169 -13.601   1.926  1.00  0.00     0.326 C 
HETATM    4  O   UNL     1      42.334 -12.527   1.379  1.00  0.00    -0.247 OA
HETATM    5  N   UNL     1      41.294 -14.581   1.594  1.00  0.00    -0.268 N 
HETATM    6  C   UNL     1      41.421 -15.628   2.451  1.00  0.00     0.257 C 
HETATM    7  O   UNL     1      40.695 -16.613   2.481  1.00  0.00    -0.270 OA
HETATM    8  H   UNL     1      43.678 -13.473   3.320  1.00  0.00     0.165 HD
ENDROOT
BRANCH   1   9
HETATM    9  C   UNL     1      42.364 -15.583   4.906  1.00  0.00     0.027 C 
HETATM   10  C   UNL     1      40.897 -15.701   5.349  1.00  0.00     0.035 C 
HETATM   11  C   UNL     1      40.126 -14.398   5.512  1.00  0.00     0.235 C 
HETATM   12  N   UNL     1      40.910 -13.333   6.241  1.00  0.00    -0.067 N 
HETATM   13  H   UNL     1      40.849 -13.563   7.240  1.00  0.00     0.280 HD
HETATM   14  C   UNL     1      42.367 -13.208   5.887  1.00  0.00     0.235 C 
HETATM   15  C   UNL     1      43.051 -14.561   5.832  1.00  0.00     0.035 C 
BRANCH  12  16
HETATM   16  C   UNL     1      40.255 -11.962   6.090  1.00  0.00     0.277 C 
BRANCH  16  17
HETATM   17  C   UNL     1      40.789 -10.917   6.992  1.00  0.00     0.011 A 
HETATM   18  C   UNL     1      41.382  -9.678   6.613  1.00  0.00     0.060 A 
HETATM   19  C   UNL     1      41.626  -9.140   5.248  1.00  0.00     0.073 C 
HETATM   20  N   UNL     1      41.725  -8.955   7.681  1.00  0.00    -0.178 NA
HETATM   21  N   UNL     1      41.438  -9.737   8.730  1.00  0.00    -0.284 N 
HETATM   22  C   UNL     1      41.753  -9.291  10.067  1.00  0.00     0.179 C 
HETATM   23  C   UNL     1      40.842 -10.914   8.373  1.00  0.00     0.122 A 
ENDBRANCH  16  17
ENDBRANCH  12  16
ENDBRANCH   1   9
BRANCH   1  24
HETATM   24  C   UNL     1      43.777 -16.296   2.772  1.00  0.00     0.082 C 
BRANCH  24  25
HETATM   25  C   UNL     1      43.775 -17.807   2.933  1.00  0.00    -0.034 A 
HETATM   26  C   UNL     1      44.186 -18.506   4.082  1.00  0.00     0.040 A 
HETATM   27 CL   UNL     1      44.712 -17.723   5.522  1.00  0.00    -0.084 Cl
HETATM   28  C   UNL     1      44.226 -19.908   4.094  1.00  0.00     0.024 A 
HETATM   29  C   UNL     1      43.886 -20.638   2.959  1.00  0.00     0.002 A 
HETATM   30  C   UNL     1      43.503 -19.971   1.805  1.00  0.00     0.001 A 
HETATM   31  C   UNL     1      43.449 -18.574   1.792  1.00  0.00     0.009 A 
ENDBRANCH  24  25
ENDBRANCH   1  24
BRANCH   5  32
HETATM   32  C   UNL     1      40.357 -14.514   0.492  1.00  0.00     0.141 C 
BRANCH  32  33
HETATM   33  C   UNL     1      39.164 -13.694   0.882  1.00  0.00     0.004 A 
HETATM   34  C   UNL     1      38.074 -13.368  -0.110  1.00  0.00     0.007 A 
HETATM   35  C   UNL     1      37.806 -14.340   1.005  1.00  0.00     0.007 A 
ENDBRANCH  32  33
ENDBRANCH   5  32
TORSDOF 7
ENDMDL
