MODEL 1
REMARK VINA RESULT:      -7.9      0.000      0.000
REMARK  3 active torsions:
REMARK  status: ('A' for Active; 'I' for Inactive)
REMARK    1  A    between atoms: C_7  and  N_8 
REMARK    2  A    between atoms: N_8  and  C_9 
REMARK    3  A    between atoms: C_9  and  C_10 
ROOT
HETATM    1  C   UNL     1      43.744 -18.335   2.286  1.00  0.00    -0.041 A 
HETATM    2  C   UNL     1      43.931 -19.712   2.102  1.00  0.00     0.035 A 
HETATM    3  C   UNL     1      44.258 -20.534   3.186  1.00  0.00     0.070 A 
HETATM    4 CL   UNL     1      44.495 -22.219   2.893  1.00  0.00    -0.081 Cl
HETATM    5  C   UNL     1      44.367 -19.997   4.474  1.00  0.00     0.123 A 
HETATM    6  C   UNL     1      44.167 -18.626   4.662  1.00  0.00     0.104 A 
HETATM    7  O   UNL     1      44.337 -18.009   5.872  1.00  0.00    -0.348 OA
HETATM    8  C   UNL     1      43.396 -18.465   6.845  1.00  0.00     0.178 C 
HETATM    9  C   UNL     1      43.834 -19.767   7.498  1.00  0.00     0.053 C 
HETATM   10  C   UNL     1      43.771 -20.926   6.515  1.00  0.00     0.178 C 
HETATM   11  O   UNL     1      44.769 -20.810   5.502  1.00  0.00    -0.346 OA
HETATM   12  C   UNL     1      43.870 -17.799   3.576  1.00  0.00     0.048 A 
ENDROOT
BRANCH   1  13
HETATM   13  C   UNL     1      43.382 -17.443   1.121  1.00  0.00     0.132 C 
BRANCH  13  14
HETATM   14  N   UNL     1      41.948 -17.521   0.907  1.00  0.00    -0.272 NA
HETATM   15  H   UNL     1      41.649 -18.292   0.323  1.00  0.00     0.129 HD
BRANCH  14  16
HETATM   16  C   UNL     1      41.321 -16.322   0.569  1.00  0.00     0.117 A 
HETATM   17  C   UNL     1      40.728 -15.495   1.547  1.00  0.00     0.040 A 
HETATM   18  C   UNL     1      40.610 -15.595   2.977  1.00  0.00     0.025 A 
HETATM   19  C   UNL     1      40.127 -14.333   1.087  1.00  0.00     0.112 A 
HETATM   20  C   UNL     1      39.931 -14.532   3.530  1.00  0.00     0.053 A 
HETATM   21  S   UNL     1      39.432 -13.409   2.341  1.00  0.00    -0.081 SA
HETATM   22  N   UNL     1      40.063 -13.917  -0.188  1.00  0.00    -0.234 NA
HETATM   23  C   UNL     1      40.669 -14.763  -1.024  1.00  0.00     0.236 A 
HETATM   24  N   UNL     1      41.281 -15.919  -0.721  1.00  0.00    -0.229 NA
ENDBRANCH  14  16
ENDBRANCH  13  14
ENDBRANCH   1  13
TORSDOF 3
ENDMDL
MODEL 2
REMARK VINA RESULT:      -7.7      1.089      1.976
REMARK  3 active torsions:
REMARK  status: ('A' for Active; 'I' for Inactive)
REMARK    1  A    between atoms: C_7  and  N_8 
REMARK    2  A    between atoms: N_8  and  C_9 
REMARK    3  A    between atoms: C_9  and  C_10 
ROOT
HETATM    1  C   UNL     1      43.465 -18.254   2.099  1.00  0.00    -0.041 A 
HETATM    2  C   UNL     1      43.765 -19.601   1.855  1.00  0.00     0.035 A 
HETATM    3  C   UNL     1      44.224 -20.423   2.890  1.00  0.00     0.070 A 
HETATM    4 CL   UNL     1      44.597 -22.069   2.523  1.00  0.00    -0.081 Cl
HETATM    5  C   UNL     1      44.355 -19.920   4.189  1.00  0.00     0.123 A 
HETATM    6  C   UNL     1      44.042 -18.580   4.437  1.00  0.00     0.104 A 
HETATM    7  O   UNL     1      44.222 -17.988   5.659  1.00  0.00    -0.348 OA
HETATM    8  C   UNL     1      43.381 -18.560   6.662  1.00  0.00     0.178 C 
HETATM    9  C   UNL     1      43.971 -19.837   7.243  1.00  0.00     0.053 C 
HETATM   10  C   UNL     1      43.959 -20.964   6.223  1.00  0.00     0.178 C 
HETATM   11  O   UNL     1      44.885 -20.725   5.164  1.00  0.00    -0.346 OA
HETATM   12  C   UNL     1      43.613 -17.750   3.399  1.00  0.00     0.048 A 
ENDROOT
BRANCH   1  13
HETATM   13  C   UNL     1      42.959 -17.362   0.988  1.00  0.00     0.132 C 
BRANCH  13  14
HETATM   14  N   UNL     1      41.508 -17.399   0.990  1.00  0.00    -0.272 NA
HETATM   15  H   UNL     1      41.096 -17.877   0.198  1.00  0.00     0.129 HD
BRANCH  14  16
HETATM   16  C   UNL     1      40.873 -16.189   1.271  1.00  0.00     0.117 A 
HETATM   17  C   UNL     1      40.664 -15.213   0.273  1.00  0.00     0.040 A 
HETATM   18  C   UNL     1      40.971 -15.164  -1.132  1.00  0.00     0.025 A 
HETATM   19  C   UNL     1      40.030 -14.048   0.676  1.00  0.00     0.112 A 
HETATM   20  C   UNL     1      40.575 -13.984  -1.720  1.00  0.00     0.053 A 
HETATM   21  S   UNL     1      39.833 -12.930  -0.597  1.00  0.00    -0.081 SA
HETATM   22  N   UNL     1      39.593 -13.763   1.913  1.00  0.00    -0.234 NA
HETATM   23  C   UNL     1      39.826 -14.758   2.771  1.00  0.00     0.236 A 
HETATM   24  N   UNL     1      40.431 -15.931   2.522  1.00  0.00    -0.229 NA
ENDBRANCH  14  16
ENDBRANCH  13  14
ENDBRANCH   1  13
TORSDOF 3
ENDMDL
MODEL 3
REMARK VINA RESULT:      -7.7      1.817      2.649
REMARK  3 active torsions:
REMARK  status: ('A' for Active; 'I' for Inactive)
REMARK    1  A    between atoms: C_7  and  N_8 
REMARK    2  A    between atoms: N_8  and  C_9 
REMARK    3  A    between atoms: C_9  and  C_10 
ROOT
HETATM    1  C   UNL     1      42.349 -17.935   2.036  1.00  0.00    -0.041 A 
HETATM    2  C   UNL     1      42.988 -19.159   1.796  1.00  0.00     0.035 A 
HETATM    3  C   UNL     1      43.803 -19.738   2.775  1.00  0.00     0.070 A 
HETATM    4 CL   UNL     1      44.580 -21.237   2.411  1.00  0.00    -0.081 Cl
HETATM    5  C   UNL     1      43.961 -19.120   4.020  1.00  0.00     0.123 A 
HETATM    6  C   UNL     1      43.312 -17.907   4.268  1.00  0.00     0.104 A 
HETATM    7  O   UNL     1      43.481 -17.197   5.427  1.00  0.00    -0.348 OA
HETATM    8  C   UNL     1      42.986 -17.902   6.566  1.00  0.00     0.178 C 
HETATM    9  C   UNL     1      43.994 -18.915   7.092  1.00  0.00     0.053 C 
HETATM   10  C   UNL     1      44.166 -20.075   6.125  1.00  0.00     0.178 C 
HETATM   11  O   UNL     1      44.829 -19.667   4.929  1.00  0.00    -0.346 OA
HETATM   12  C   UNL     1      42.523 -17.312   3.281  1.00  0.00     0.048 A 
ENDROOT
BRANCH   1  13
HETATM   13  C   UNL     1      41.460 -17.309   0.987  1.00  0.00     0.132 C 
BRANCH  13  14
HETATM   14  N   UNL     1      42.247 -16.360   0.220  1.00  0.00    -0.272 NA
HETATM   15  H   UNL     1      43.197 -16.235   0.549  1.00  0.00     0.129 HD
BRANCH  14  16
HETATM   16  C   UNL     1      41.620 -15.148  -0.068  1.00  0.00     0.117 A 
HETATM   17  C   UNL     1      41.011 -14.909  -1.319  1.00  0.00     0.040 A 
HETATM   18  C   UNL     1      40.850 -15.712  -2.502  1.00  0.00     0.025 A 
HETATM   19  C   UNL     1      40.427 -13.663  -1.490  1.00  0.00     0.112 A 
HETATM   20  C   UNL     1      40.175 -15.051  -3.504  1.00  0.00     0.053 A 
HETATM   21  S   UNL     1      39.728 -13.469  -3.034  1.00  0.00    -0.081 SA
HETATM   22  N   UNL     1      40.379 -12.672  -0.586  1.00  0.00    -0.234 NA
HETATM   23  C   UNL     1      40.968 -13.010   0.563  1.00  0.00     0.236 A 
HETATM   24  N   UNL     1      41.574 -14.170   0.864  1.00  0.00    -0.229 NA
ENDBRANCH  14  16
ENDBRANCH  13  14
ENDBRANCH   1  13
TORSDOF 3
ENDMDL
MODEL 4
REMARK VINA RESULT:      -7.4      1.605      2.020
REMARK  3 active torsions:
REMARK  status: ('A' for Active; 'I' for Inactive)
REMARK    1  A    between atoms: C_7  and  N_8 
REMARK    2  A    between atoms: N_8  and  C_9 
REMARK    3  A    between atoms: C_9  and  C_10 
ROOT
HETATM    1  C   UNL     1      41.964 -17.642   2.232  1.00  0.00    -0.041 A 
HETATM    2  C   UNL     1      42.588 -18.837   1.844  1.00  0.00     0.035 A 
HETATM    3  C   UNL     1      43.493 -19.474   2.699  1.00  0.00     0.070 A 
HETATM    4 CL   UNL     1      44.244 -20.931   2.156  1.00  0.00    -0.081 Cl
HETATM    5  C   UNL     1      43.760 -18.946   3.967  1.00  0.00     0.123 A 
HETATM    6  C   UNL     1      43.128 -17.764   4.363  1.00  0.00     0.104 A 
HETATM    7  O   UNL     1      43.396 -17.138   5.551  1.00  0.00    -0.348 OA
HETATM    8  C   UNL     1      43.013 -17.932   6.675  1.00  0.00     0.178 C 
HETATM    9  C   UNL     1      44.072 -18.966   7.031  1.00  0.00     0.053 C 
HETATM   10  C   UNL     1      44.164 -20.050   5.968  1.00  0.00     0.178 C 
HETATM   11  O   UNL     1      44.712 -19.546   4.751  1.00  0.00    -0.346 OA
HETATM   12  C   UNL     1      42.247 -17.109   3.498  1.00  0.00     0.048 A 
ENDROOT
BRANCH   1  13
HETATM   13  C   UNL     1      40.978 -16.954   1.317  1.00  0.00     0.132 C 
BRANCH  13  14
HETATM   14  N   UNL     1      39.846 -16.508   2.108  1.00  0.00    -0.272 NA
HETATM   15  H   UNL     1      39.018 -17.085   2.023  1.00  0.00     0.129 HD
BRANCH  14  16
HETATM   16  C   UNL     1      39.556 -15.146   2.035  1.00  0.00     0.117 A 
HETATM   17  C   UNL     1      39.635 -14.310   3.170  1.00  0.00     0.040 A 
HETATM   18  C   UNL     1      39.998 -14.549   4.542  1.00  0.00     0.025 A 
HETATM   19  C   UNL     1      39.315 -12.975   2.974  1.00  0.00     0.112 A 
HETATM   20  C   UNL     1      39.929 -13.411   5.315  1.00  0.00     0.053 A 
HETATM   21  S   UNL     1      39.432 -12.053   4.404  1.00  0.00    -0.081 SA
HETATM   22  N   UNL     1      38.946 -12.404   1.817  1.00  0.00    -0.234 NA
HETATM   23  C   UNL     1      38.921 -13.278   0.809  1.00  0.00     0.236 A 
HETATM   24  N   UNL     1      39.199 -14.591   0.855  1.00  0.00    -0.229 NA
ENDBRANCH  14  16
ENDBRANCH  13  14
ENDBRANCH   1  13
TORSDOF 3
ENDMDL
MODEL 5
REMARK VINA RESULT:      -7.3      4.591      8.160
REMARK  3 active torsions:
REMARK  status: ('A' for Active; 'I' for Inactive)
REMARK    1  A    between atoms: C_7  and  N_8 
REMARK    2  A    between atoms: N_8  and  C_9 
REMARK    3  A    between atoms: C_9  and  C_10 
ROOT
HETATM    1  C   UNL     1      40.518 -15.724   1.596  1.00  0.00    -0.041 A 
HETATM    2  C   UNL     1      39.282 -15.074   1.712  1.00  0.00     0.035 A 
HETATM    3  C   UNL     1      38.796 -14.282   0.666  1.00  0.00     0.070 A 
HETATM    4 CL   UNL     1      37.275 -13.491   0.878  1.00  0.00    -0.081 Cl
HETATM    5  C   UNL     1      39.523 -14.157  -0.523  1.00  0.00     0.123 A 
HETATM    6  C   UNL     1      40.750 -14.816  -0.647  1.00  0.00     0.104 A 
HETATM    7  O   UNL     1      41.560 -14.678  -1.742  1.00  0.00    -0.348 OA
HETATM    8  C   UNL     1      40.955 -15.198  -2.927  1.00  0.00     0.178 C 
HETATM    9  C   UNL     1      39.999 -14.201  -3.565  1.00  0.00     0.053 C 
HETATM   10  C   UNL     1      38.758 -14.000  -2.708  1.00  0.00     0.178 C 
HETATM   11  O   UNL     1      39.063 -13.309  -1.497  1.00  0.00    -0.346 OA
HETATM   12  C   UNL     1      41.250 -15.583   0.408  1.00  0.00     0.048 A 
ENDROOT
BRANCH   1  13
HETATM   13  C   UNL     1      41.044 -16.589   2.718  1.00  0.00     0.132 C 
BRANCH  13  14
HETATM   14  N   UNL     1      42.481 -16.725   2.562  1.00  0.00    -0.272 NA
HETATM   15  H   UNL     1      42.777 -17.088   1.665  1.00  0.00     0.129 HD
BRANCH  14  16
HETATM   16  C   UNL     1      43.150 -17.329   3.628  1.00  0.00     0.117 A 
HETATM   17  C   UNL     1      43.728 -18.611   3.509  1.00  0.00     0.040 A 
HETATM   18  C   UNL     1      43.815 -19.551   2.423  1.00  0.00     0.025 A 
HETATM   19  C   UNL     1      44.358 -19.109   4.639  1.00  0.00     0.112 A 
HETATM   20  C   UNL     1      44.485 -20.703   2.771  1.00  0.00     0.053 A 
HETATM   21  S   UNL     1      45.013 -20.664   4.397  1.00  0.00    -0.081 SA
HETATM   22  N   UNL     1      44.477 -18.491   5.825  1.00  0.00    -0.234 NA
HETATM   23  C   UNL     1      43.912 -17.282   5.821  1.00  0.00     0.236 A 
HETATM   24  N   UNL     1      43.268 -16.680   4.808  1.00  0.00    -0.229 NA
ENDBRANCH  14  16
ENDBRANCH  13  14
ENDBRANCH   1  13
TORSDOF 3
ENDMDL
MODEL 6
REMARK VINA RESULT:      -7.3      4.392      7.755
REMARK  3 active torsions:
REMARK  status: ('A' for Active; 'I' for Inactive)
REMARK    1  A    between atoms: C_7  and  N_8 
REMARK    2  A    between atoms: N_8  and  C_9 
REMARK    3  A    between atoms: C_9  and  C_10 
ROOT
HETATM    1  C   UNL     1      41.674 -17.155   1.498  1.00  0.00    -0.041 A 
HETATM    2  C   UNL     1      41.084 -16.508   2.593  1.00  0.00     0.035 A 
HETATM    3  C   UNL     1      40.529 -15.233   2.447  1.00  0.00     0.070 A 
HETATM    4 CL   UNL     1      39.836 -14.478   3.838  1.00  0.00    -0.081 Cl
HETATM    5  C   UNL     1      40.522 -14.602   1.198  1.00  0.00     0.123 A 
HETATM    6  C   UNL     1      41.096 -15.252   0.101  1.00  0.00     0.104 A 
HETATM    7  O   UNL     1      41.206 -14.670  -1.134  1.00  0.00    -0.348 OA
HETATM    8  C   UNL     1      39.929 -14.414  -1.722  1.00  0.00     0.178 C 
HETATM    9  C   UNL     1      39.316 -13.117  -1.215  1.00  0.00     0.053 C 
HETATM   10  C   UNL     1      38.908 -13.234   0.246  1.00  0.00     0.178 C 
HETATM   11  O   UNL     1      40.046 -13.320   1.103  1.00  0.00    -0.346 OA
HETATM   12  C   UNL     1      41.679 -16.512   0.251  1.00  0.00     0.048 A 
ENDROOT
BRANCH   1  13
HETATM   13  C   UNL     1      42.267 -18.537   1.646  1.00  0.00     0.132 C 
BRANCH  13  14
HETATM   14  N   UNL     1      43.671 -18.404   1.991  1.00  0.00    -0.272 NA
HETATM   15  H   UNL     1      44.314 -18.728   1.279  1.00  0.00     0.129 HD
BRANCH  14  16
HETATM   16  C   UNL     1      44.024 -18.841   3.267  1.00  0.00     0.117 A 
HETATM   17  C   UNL     1      44.310 -20.197   3.532  1.00  0.00     0.040 A 
HETATM   18  C   UNL     1      44.341 -21.374   2.705  1.00  0.00     0.025 A 
HETATM   19  C   UNL     1      44.640 -20.512   4.842  1.00  0.00     0.112 A 
HETATM   20  C   UNL     1      44.677 -22.509   3.409  1.00  0.00     0.053 A 
HETATM   21  S   UNL     1      44.957 -22.173   5.061  1.00  0.00    -0.081 SA
HETATM   22  N   UNL     1      44.721 -19.656   5.873  1.00  0.00    -0.234 NA
HETATM   23  C   UNL     1      44.449 -18.401   5.508  1.00  0.00     0.236 A 
HETATM   24  N   UNL     1      44.111 -17.957   4.286  1.00  0.00    -0.229 NA
ENDBRANCH  14  16
ENDBRANCH  13  14
ENDBRANCH   1  13
TORSDOF 3
ENDMDL
MODEL 7
REMARK VINA RESULT:      -7.3      2.380      3.650
REMARK  3 active torsions:
REMARK  status: ('A' for Active; 'I' for Inactive)
REMARK    1  A    between atoms: C_7  and  N_8 
REMARK    2  A    between atoms: N_8  and  C_9 
REMARK    3  A    between atoms: C_9  and  C_10 
ROOT
HETATM    1  C   UNL     1      43.155 -16.958   2.260  1.00  0.00    -0.041 A 
HETATM    2  C   UNL     1      43.669 -16.853   3.560  1.00  0.00     0.035 A 
HETATM    3  C   UNL     1      43.941 -18.003   4.309  1.00  0.00     0.070 A 
HETATM    4 CL   UNL     1      44.554 -17.808   5.912  1.00  0.00    -0.081 Cl
HETATM    5  C   UNL     1      43.737 -19.272   3.757  1.00  0.00     0.123 A 
HETATM    6  C   UNL     1      43.239 -19.380   2.456  1.00  0.00     0.104 A 
HETATM    7  O   UNL     1      42.933 -20.581   1.873  1.00  0.00    -0.348 OA
HETATM    8  C   UNL     1      44.089 -21.400   1.692  1.00  0.00     0.178 C 
HETATM    9  C   UNL     1      44.455 -22.159   2.959  1.00  0.00     0.053 C 
HETATM   10  C   UNL     1      44.972 -21.217   4.036  1.00  0.00     0.178 C 
HETATM   11  O   UNL     1      43.935 -20.379   4.543  1.00  0.00    -0.346 OA
HETATM   12  C   UNL     1      42.938 -18.233   1.717  1.00  0.00     0.048 A 
ENDROOT
BRANCH   1  13
HETATM   13  C   UNL     1      42.867 -15.721   1.441  1.00  0.00     0.132 C 
BRANCH  13  14
HETATM   14  N   UNL     1      42.109 -16.109   0.266  1.00  0.00    -0.272 NA
HETATM   15  H   UNL     1      42.668 -16.272  -0.563  1.00  0.00     0.129 HD
BRANCH  14  16
HETATM   16  C   UNL     1      40.972 -15.347   0.001  1.00  0.00     0.117 A 
HETATM   17  C   UNL     1      40.584 -15.029  -1.318  1.00  0.00     0.040 A 
HETATM   18  C   UNL     1      41.136 -15.350  -2.608  1.00  0.00     0.025 A 
HETATM   19  C   UNL     1      39.441 -14.257  -1.455  1.00  0.00     0.112 A 
HETATM   20  C   UNL     1      40.409 -14.810  -3.646  1.00  0.00     0.053 A 
HETATM   21  S   UNL     1      39.062 -13.920  -3.083  1.00  0.00    -0.081 SA
HETATM   22  N   UNL     1      38.668 -13.793  -0.460  1.00  0.00    -0.234 NA
HETATM   23  C   UNL     1      39.114 -14.166   0.741  1.00  0.00     0.236 A 
HETATM   24  N   UNL     1      40.203 -14.901   1.020  1.00  0.00    -0.229 NA
ENDBRANCH  14  16
ENDBRANCH  13  14
ENDBRANCH   1  13
TORSDOF 3
ENDMDL
MODEL 8
REMARK VINA RESULT:      -7.3      1.486      1.722
REMARK  3 active torsions:
REMARK  status: ('A' for Active; 'I' for Inactive)
REMARK    1  A    between atoms: C_7  and  N_8 
REMARK    2  A    between atoms: N_8  and  C_9 
REMARK    3  A    between atoms: C_9  and  C_10 
ROOT
HETATM    1  C   UNL     1      42.327 -17.880   2.286  1.00  0.00    -0.041 A 
HETATM    2  C   UNL     1      43.125 -19.032   2.293  1.00  0.00     0.035 A 
HETATM    3  C   UNL     1      43.876 -19.367   3.425  1.00  0.00     0.070 A 
HETATM    4 CL   UNL     1      44.856 -20.789   3.365  1.00  0.00    -0.081 Cl
HETATM    5  C   UNL     1      43.813 -18.576   4.577  1.00  0.00     0.123 A 
HETATM    6  C   UNL     1      43.006 -17.434   4.577  1.00  0.00     0.104 A 
HETATM    7  O   UNL     1      42.953 -16.562   5.632  1.00  0.00    -0.348 OA
HETATM    8  C   UNL     1      42.408 -17.169   6.805  1.00  0.00     0.178 C 
HETATM    9  C   UNL     1      43.452 -17.965   7.574  1.00  0.00     0.053 C 
HETATM   10  C   UNL     1      43.870 -19.211   6.808  1.00  0.00     0.178 C 
HETATM   11  O   UNL     1      44.622 -18.883   5.640  1.00  0.00    -0.346 OA
HETATM   12  C   UNL     1      42.279 -17.081   3.438  1.00  0.00     0.048 A 
ENDROOT
BRANCH   1  13
HETATM   13  C   UNL     1      41.506 -17.516   1.071  1.00  0.00     0.132 C 
BRANCH  13  14
HETATM   14  N   UNL     1      42.244 -16.541   0.288  1.00  0.00    -0.272 NA
HETATM   15  H   UNL     1      43.148 -16.291   0.669  1.00  0.00     0.129 HD
BRANCH  14  16
HETATM   16  C   UNL     1      41.516 -15.428  -0.132  1.00  0.00     0.117 A 
HETATM   17  C   UNL     1      41.477 -14.239   0.626  1.00  0.00     0.040 A 
HETATM   18  C   UNL     1      42.090 -13.845   1.867  1.00  0.00     0.025 A 
HETATM   19  C   UNL     1      40.712 -13.204   0.109  1.00  0.00     0.112 A 
HETATM   20  C   UNL     1      41.762 -12.560   2.236  1.00  0.00     0.053 A 
HETATM   21  S   UNL     1      40.722 -11.817   1.101  1.00  0.00    -0.081 SA
HETATM   22  N   UNL     1      40.015 -13.223  -1.038  1.00  0.00    -0.234 NA
HETATM   23  C   UNL     1      40.135 -14.386  -1.681  1.00  0.00     0.236 A 
HETATM   24  N   UNL     1      40.832 -15.467  -1.298  1.00  0.00    -0.229 NA
ENDBRANCH  14  16
ENDBRANCH  13  14
ENDBRANCH   1  13
TORSDOF 3
ENDMDL
MODEL 9
REMARK VINA RESULT:      -7.2      4.246      7.362
REMARK  3 active torsions:
REMARK  status: ('A' for Active; 'I' for Inactive)
REMARK    1  A    between atoms: C_7  and  N_8 
REMARK    2  A    between atoms: N_8  and  C_9 
REMARK    3  A    between atoms: C_9  and  C_10 
ROOT
HETATM    1  C   UNL     1      41.005 -16.368   2.622  1.00  0.00    -0.041 A 
HETATM    2  C   UNL     1      39.902 -15.958   1.860  1.00  0.00     0.035 A 
HETATM    3  C   UNL     1      39.292 -14.723   2.104  1.00  0.00     0.070 A 
HETATM    4 CL   UNL     1      37.923 -14.283   1.146  1.00  0.00    -0.081 Cl
HETATM    5  C   UNL     1      39.798 -13.865   3.087  1.00  0.00     0.123 A 
HETATM    6  C   UNL     1      40.907 -14.265   3.838  1.00  0.00     0.104 A 
HETATM    7  O   UNL     1      41.412 -13.523   4.872  1.00  0.00    -0.348 OA
HETATM    8  C   UNL     1      41.935 -12.270   4.429  1.00  0.00     0.178 C 
HETATM    9  C   UNL     1      40.844 -11.221   4.268  1.00  0.00     0.053 C 
HETATM   10  C   UNL     1      39.933 -11.549   3.095  1.00  0.00     0.178 C 
HETATM   11  O   UNL     1      39.131 -12.699   3.359  1.00  0.00    -0.346 OA
HETATM   12  C   UNL     1      41.499 -15.511   3.616  1.00  0.00     0.048 A 
ENDROOT
BRANCH   1  13
HETATM   13  C   UNL     1      41.675 -17.696   2.357  1.00  0.00     0.132 C 
BRANCH  13  14
HETATM   14  N   UNL     1      43.106 -17.538   2.542  1.00  0.00    -0.272 NA
HETATM   15  H   UNL     1      43.628 -17.389   1.687  1.00  0.00     0.129 HD
BRANCH  14  16
HETATM   16  C   UNL     1      43.714 -18.470   3.383  1.00  0.00     0.117 A 
HETATM   17  C   UNL     1      43.911 -19.809   2.984  1.00  0.00     0.040 A 
HETATM   18  C   UNL     1      43.613 -20.527   1.773  1.00  0.00     0.025 A 
HETATM   19  C   UNL     1      44.517 -20.644   3.910  1.00  0.00     0.112 A 
HETATM   20  C   UNL     1      43.990 -21.851   1.834  1.00  0.00     0.053 A 
HETATM   21  S   UNL     1      44.702 -22.240   3.339  1.00  0.00    -0.081 SA
HETATM   22  N   UNL     1      44.939 -20.302   5.138  1.00  0.00    -0.234 NA
HETATM   23  C   UNL     1      44.720 -19.013   5.404  1.00  0.00     0.236 A 
HETATM   24  N   UNL     1      44.142 -18.098   4.610  1.00  0.00    -0.229 NA
ENDBRANCH  14  16
ENDBRANCH  13  14
ENDBRANCH   1  13
TORSDOF 3
ENDMDL
MODEL 10
REMARK VINA RESULT:      -7.2      1.992      2.780
REMARK  3 active torsions:
REMARK  status: ('A' for Active; 'I' for Inactive)
REMARK    1  A    between atoms: C_7  and  N_8 
REMARK    2  A    between atoms: N_8  and  C_9 
REMARK    3  A    between atoms: C_9  and  C_10 
ROOT
HETATM    1  C   UNL     1      43.198 -17.169   2.092  1.00  0.00    -0.041 A 
HETATM    2  C   UNL     1      43.656 -16.960   3.401  1.00  0.00     0.035 A 
HETATM    3  C   UNL     1      43.921 -18.047   4.240  1.00  0.00     0.070 A 
HETATM    4 CL   UNL     1      44.463 -17.725   5.848  1.00  0.00    -0.081 Cl
HETATM    5  C   UNL     1      43.767 -19.357   3.773  1.00  0.00     0.123 A 
HETATM    6  C   UNL     1      43.324 -19.568   2.464  1.00  0.00     0.104 A 
HETATM    7  O   UNL     1      43.068 -20.814   1.957  1.00  0.00    -0.348 OA
HETATM    8  C   UNL     1      44.247 -21.616   1.881  1.00  0.00     0.178 C 
HETATM    9  C   UNL     1      44.577 -22.275   3.213  1.00  0.00     0.053 C 
HETATM   10  C   UNL     1      45.029 -21.248   4.239  1.00  0.00     0.178 C 
HETATM   11  O   UNL     1      43.954 -20.400   4.643  1.00  0.00    -0.346 OA
HETATM   12  C   UNL     1      43.030 -18.484   1.633  1.00  0.00     0.048 A 
ENDROOT
BRANCH   1  13
HETATM   13  C   UNL     1      42.919 -16.000   1.176  1.00  0.00     0.132 C 
BRANCH  13  14
HETATM   14  N   UNL     1      42.104 -16.464   0.068  1.00  0.00    -0.272 NA
HETATM   15  H   UNL     1      42.621 -16.921  -0.673  1.00  0.00     0.129 HD
BRANCH  14  16
HETATM   16  C   UNL     1      41.169 -15.551  -0.418  1.00  0.00     0.117 A 
HETATM   17  C   UNL     1      40.196 -14.969   0.422  1.00  0.00     0.040 A 
HETATM   18  C   UNL     1      39.911 -15.094   1.827  1.00  0.00     0.025 A 
HETATM   19  C   UNL     1      39.315 -14.082  -0.178  1.00  0.00     0.112 A 
HETATM   20  C   UNL     1      38.841 -14.321   2.223  1.00  0.00     0.053 A 
HETATM   21  S   UNL     1      38.175 -13.442   0.917  1.00  0.00    -0.081 SA
HETATM   22  N   UNL     1      39.302 -13.722  -1.471  1.00  0.00    -0.234 NA
HETATM   23  C   UNL     1      40.272 -14.316  -2.169  1.00  0.00     0.236 A 
HETATM   24  N   UNL     1      41.185 -15.194  -1.722  1.00  0.00    -0.229 NA
ENDBRANCH  14  16
ENDBRANCH  13  14
ENDBRANCH   1  13
TORSDOF 3
ENDMDL
