MODEL 1
REMARK VINA RESULT:      -7.3      0.000      0.000
REMARK  8 active torsions:
REMARK  status: ('A' for Active; 'I' for Inactive)
REMARK    1  A    between atoms: C_2  and  C_3 
REMARK    2  A    between atoms: C_3  and  N_4 
REMARK    3  A    between atoms: N_4  and  C_5 
REMARK    4  A    between atoms: C_7  and  N_8 
REMARK    5  A    between atoms: N_8  and  C_9 
REMARK    6  A    between atoms: C_9  and  C_10 
REMARK    7  A    between atoms: C_10  and  C_11 
REMARK    8  A    between atoms: C_13  and  O_14 
ROOT
HETATM    1  C   UNL     1      44.019 -18.564   3.128  1.00  0.00     0.119 A 
HETATM    2  N   UNL     1      44.107 -17.656   4.119  1.00  0.00    -0.207 NA
HETATM    3  C   UNL     1      44.393 -18.102   5.347  1.00  0.00     0.181 A 
HETATM    4  N   UNL     1      44.564 -19.387   5.639  1.00  0.00    -0.330 N 
HETATM    5  H   UNL     1      44.703 -19.626   6.612  1.00  0.00     0.168 HD
HETATM    6  C   UNL     1      44.516 -20.325   4.688  1.00  0.00     0.048 A 
HETATM    7  C   UNL     1      44.248 -19.939   3.360  1.00  0.00     0.031 A 
HETATM    8  C   UNL     1      44.740 -21.671   5.016  1.00  0.00     0.030 A 
HETATM    9  C   UNL     1      44.716 -22.647   4.021  1.00  0.00     0.002 A 
HETATM   10  C   UNL     1      44.470 -22.285   2.700  1.00  0.00     0.001 A 
HETATM   11  C   UNL     1      44.238 -20.947   2.368  1.00  0.00     0.017 A 
ENDROOT
BRANCH   3  12
HETATM   12  N   UNL     1      44.451 -17.165   6.371  1.00  0.00    -0.262 NA
HETATM   13  H   UNL     1      44.641 -17.718   7.213  1.00  0.00     0.130 HD
BRANCH  12  14
HETATM   14  C   UNL     1      43.239 -16.357   6.535  1.00  0.00     0.100 C 
BRANCH  14  15
HETATM   15  C   UNL     1      43.503 -14.904   6.119  1.00  0.00     0.053 C 
BRANCH  15  16
HETATM   16  C   UNL     1      42.595 -14.488   4.988  1.00  0.00    -0.054 A 
HETATM   17  C   UNL     1      43.104 -13.791   3.877  1.00  0.00     0.044 A 
HETATM   18  C   UNL     1      42.252 -13.367   2.855  1.00  0.00     0.068 A 
HETATM   19  C   UNL     1      40.887 -13.647   2.942  1.00  0.00     0.037 A 
HETATM   20  C   UNL     1      40.373 -14.348   4.032  1.00  0.00     0.003 A 
HETATM   21  C   UNL     1      41.223 -14.766   5.053  1.00  0.00     0.007 A 
BRANCH  18  22
HETATM   22  O   UNL     1      42.617 -12.670   1.739  1.00  0.00    -0.356 OA
HETATM   23  C   UNL     1      41.924 -12.957   0.532  1.00  0.00     0.210 C 
ENDBRANCH  18  22
ENDBRANCH  15  16
ENDBRANCH  14  15
ENDBRANCH  12  14
ENDBRANCH   3  12
BRANCH   1  24
HETATM   24  N   UNL     1      43.746 -18.123   1.826  1.00  0.00    -0.277 NA
HETATM   25  H   UNL     1      43.134 -18.777   1.343  1.00  0.00     0.129 HD
BRANCH  24  26
HETATM   26  C   UNL     1      43.266 -16.747   1.686  1.00  0.00     0.093 C 
BRANCH  26  27
HETATM   27  C   UNL     1      41.992 -16.720   0.838  1.00  0.00     0.010 C 
HETATM   28  C   UNL     1      40.762 -17.179   1.607  1.00  0.00     0.006 C 
ENDBRANCH  26  27
ENDBRANCH  24  26
ENDBRANCH   1  24
TORSDOF 8
ENDMDL
MODEL 2
REMARK VINA RESULT:      -7.3      1.385      3.825
REMARK  8 active torsions:
REMARK  status: ('A' for Active; 'I' for Inactive)
REMARK    1  A    between atoms: C_2  and  C_3 
REMARK    2  A    between atoms: C_3  and  N_4 
REMARK    3  A    between atoms: N_4  and  C_5 
REMARK    4  A    between atoms: C_7  and  N_8 
REMARK    5  A    between atoms: N_8  and  C_9 
REMARK    6  A    between atoms: C_9  and  C_10 
REMARK    7  A    between atoms: C_10  and  C_11 
REMARK    8  A    between atoms: C_13  and  O_14 
ROOT
HETATM    1  C   UNL     1      44.202 -18.517   4.207  1.00  0.00     0.119 A 
HETATM    2  N   UNL     1      43.894 -17.727   3.160  1.00  0.00    -0.207 NA
HETATM    3  C   UNL     1      43.772 -18.306   1.961  1.00  0.00     0.181 A 
HETATM    4  N   UNL     1      43.966 -19.604   1.749  1.00  0.00    -0.330 N 
HETATM    5  H   UNL     1      43.923 -19.928   0.792  1.00  0.00     0.168 HD
HETATM    6  C   UNL     1      44.245 -20.435   2.758  1.00  0.00     0.048 A 
HETATM    7  C   UNL     1      44.364 -19.913   4.061  1.00  0.00     0.031 A 
HETATM    8  C   UNL     1      44.406 -21.807   2.514  1.00  0.00     0.030 A 
HETATM    9  C   UNL     1      44.671 -22.679   3.570  1.00  0.00     0.002 A 
HETATM   10  C   UNL     1      44.776 -22.186   4.867  1.00  0.00     0.001 A 
HETATM   11  C   UNL     1      44.624 -20.819   5.115  1.00  0.00     0.017 A 
ENDROOT
BRANCH   3  12
HETATM   12  N   UNL     1      43.485 -17.483   0.879  1.00  0.00    -0.262 NA
HETATM   13  H   UNL     1      44.132 -16.694   0.980  1.00  0.00     0.130 HD
BRANCH  12  14
HETATM   14  C   UNL     1      42.096 -17.019   0.811  1.00  0.00     0.100 C 
BRANCH  14  15
HETATM   15  C   UNL     1      42.037 -15.488   0.902  1.00  0.00     0.053 C 
BRANCH  15  16
HETATM   16  C   UNL     1      42.017 -15.028   2.338  1.00  0.00    -0.054 A 
HETATM   17  C   UNL     1      43.173 -14.505   2.942  1.00  0.00     0.044 A 
HETATM   18  C   UNL     1      43.161 -14.123   4.286  1.00  0.00     0.068 A 
HETATM   19  C   UNL     1      41.986 -14.261   5.025  1.00  0.00     0.037 A 
HETATM   20  C   UNL     1      40.829 -14.766   4.434  1.00  0.00     0.003 A 
HETATM   21  C   UNL     1      40.844 -15.151   3.096  1.00  0.00     0.007 A 
BRANCH  18  22
HETATM   22  O   UNL     1      44.219 -13.621   4.990  1.00  0.00    -0.356 OA
HETATM   23  C   UNL     1      44.353 -14.026   6.345  1.00  0.00     0.210 C 
ENDBRANCH  18  22
ENDBRANCH  15  16
ENDBRANCH  14  15
ENDBRANCH  12  14
ENDBRANCH   3  12
BRANCH   1  24
HETATM   24  N   UNL     1      44.311 -17.942   5.481  1.00  0.00    -0.277 NA
HETATM   25  H   UNL     1      44.979 -17.173   5.475  1.00  0.00     0.129 HD
BRANCH  24  26
HETATM   26  C   UNL     1      43.061 -17.552   6.136  1.00  0.00     0.093 C 
BRANCH  26  27
HETATM   27  C   UNL     1      43.255 -17.508   7.653  1.00  0.00     0.010 C 
HETATM   28  C   UNL     1      44.154 -18.623   8.165  1.00  0.00     0.006 C 
ENDBRANCH  26  27
ENDBRANCH  24  26
ENDBRANCH   1  24
TORSDOF 8
ENDMDL
MODEL 3
REMARK VINA RESULT:      -7.3      2.458      4.808
REMARK  8 active torsions:
REMARK  status: ('A' for Active; 'I' for Inactive)
REMARK    1  A    between atoms: C_2  and  C_3 
REMARK    2  A    between atoms: C_3  and  N_4 
REMARK    3  A    between atoms: N_4  and  C_5 
REMARK    4  A    between atoms: C_7  and  N_8 
REMARK    5  A    between atoms: N_8  and  C_9 
REMARK    6  A    between atoms: C_9  and  C_10 
REMARK    7  A    between atoms: C_10  and  C_11 
REMARK    8  A    between atoms: C_13  and  O_14 
ROOT
HETATM    1  C   UNL     1      44.093 -18.318   4.056  1.00  0.00     0.119 A 
HETATM    2  N   UNL     1      43.740 -17.523   3.027  1.00  0.00    -0.207 NA
HETATM    3  C   UNL     1      43.589 -18.093   1.827  1.00  0.00     0.181 A 
HETATM    4  N   UNL     1      43.794 -19.385   1.597  1.00  0.00    -0.330 N 
HETATM    5  H   UNL     1      43.725 -19.702   0.639  1.00  0.00     0.168 HD
HETATM    6  C   UNL     1      44.117 -20.222   2.588  1.00  0.00     0.048 A 
HETATM    7  C   UNL     1      44.270 -19.710   3.892  1.00  0.00     0.031 A 
HETATM    8  C   UNL     1      44.290 -21.589   2.326  1.00  0.00     0.030 A 
HETATM    9  C   UNL     1      44.601 -22.466   3.364  1.00  0.00     0.002 A 
HETATM   10  C   UNL     1      44.740 -21.984   4.662  1.00  0.00     0.001 A 
HETATM   11  C   UNL     1      44.577 -20.622   4.928  1.00  0.00     0.017 A 
ENDROOT
BRANCH   3  12
HETATM   12  N   UNL     1      43.255 -17.264   0.763  1.00  0.00    -0.262 NA
HETATM   13  H   UNL     1      43.799 -16.410   0.924  1.00  0.00     0.130 HD
BRANCH  12  14
HETATM   14  C   UNL     1      41.826 -16.963   0.643  1.00  0.00     0.100 C 
BRANCH  14  15
HETATM   15  C   UNL     1      41.583 -15.454   0.781  1.00  0.00     0.053 C 
BRANCH  15  16
HETATM   16  C   UNL     1      41.414 -14.803  -0.569  1.00  0.00    -0.054 A 
HETATM   17  C   UNL     1      40.934 -15.538  -1.667  1.00  0.00     0.044 A 
HETATM   18  C   UNL     1      40.824 -14.943  -2.926  1.00  0.00     0.068 A 
HETATM   19  C   UNL     1      41.191 -13.605  -3.084  1.00  0.00     0.037 A 
HETATM   20  C   UNL     1      41.657 -12.863  -2.001  1.00  0.00     0.003 A 
HETATM   21  C   UNL     1      41.770 -13.459  -0.747  1.00  0.00     0.007 A 
BRANCH  18  22
HETATM   22  O   UNL     1      40.391 -15.552  -4.070  1.00  0.00    -0.356 OA
HETATM   23  C   UNL     1      39.107 -16.158  -4.042  1.00  0.00     0.210 C 
ENDBRANCH  18  22
ENDBRANCH  15  16
ENDBRANCH  14  15
ENDBRANCH  12  14
ENDBRANCH   3  12
BRANCH   1  24
HETATM   24  N   UNL     1      44.234 -17.753   5.331  1.00  0.00    -0.277 NA
HETATM   25  H   UNL     1      45.215 -17.593   5.550  1.00  0.00     0.129 HD
BRANCH  24  26
HETATM   26  C   UNL     1      43.427 -16.565   5.617  1.00  0.00     0.093 C 
BRANCH  26  27
HETATM   27  C   UNL     1      42.531 -16.819   6.830  1.00  0.00     0.010 C 
HETATM   28  C   UNL     1      43.311 -17.269   8.057  1.00  0.00     0.006 C 
ENDBRANCH  26  27
ENDBRANCH  24  26
ENDBRANCH   1  24
TORSDOF 8
ENDMDL
MODEL 4
REMARK VINA RESULT:      -7.1      2.898      5.284
REMARK  8 active torsions:
REMARK  status: ('A' for Active; 'I' for Inactive)
REMARK    1  A    between atoms: C_2  and  C_3 
REMARK    2  A    between atoms: C_3  and  N_4 
REMARK    3  A    between atoms: N_4  and  C_5 
REMARK    4  A    between atoms: C_7  and  N_8 
REMARK    5  A    between atoms: N_8  and  C_9 
REMARK    6  A    between atoms: C_9  and  C_10 
REMARK    7  A    between atoms: C_10  and  C_11 
REMARK    8  A    between atoms: C_13  and  O_14 
ROOT
HETATM    1  C   UNL     1      42.094 -17.328   4.383  1.00  0.00     0.119 A 
HETATM    2  N   UNL     1      41.178 -16.786   3.557  1.00  0.00    -0.207 NA
HETATM    3  C   UNL     1      41.143 -17.226   2.295  1.00  0.00     0.181 A 
HETATM    4  N   UNL     1      41.977 -18.142   1.813  1.00  0.00    -0.330 N 
HETATM    5  H   UNL     1      41.916 -18.350   0.826  1.00  0.00     0.168 HD
HETATM    6  C   UNL     1      42.885 -18.732   2.598  1.00  0.00     0.048 A 
HETATM    7  C   UNL     1      42.971 -18.348   3.951  1.00  0.00     0.031 A 
HETATM    8  C   UNL     1      43.727 -19.724   2.075  1.00  0.00     0.030 A 
HETATM    9  C   UNL     1      44.656 -20.358   2.899  1.00  0.00     0.002 A 
HETATM   10  C   UNL     1      44.747 -20.006   4.242  1.00  0.00     0.001 A 
HETATM   11  C   UNL     1      43.915 -19.013   4.767  1.00  0.00     0.017 A 
ENDROOT
BRANCH   3  12
HETATM   12  N   UNL     1      40.218 -16.641   1.439  1.00  0.00    -0.262 NA
HETATM   13  H   UNL     1      40.328 -17.153   0.557  1.00  0.00     0.130 HD
BRANCH  12  14
HETATM   14  C   UNL     1      40.394 -15.200   1.235  1.00  0.00     0.100 C 
BRANCH  14  15
HETATM   15  C   UNL     1      41.732 -14.916   0.539  1.00  0.00     0.053 C 
BRANCH  15  16
HETATM   16  C   UNL     1      41.520 -14.473  -0.887  1.00  0.00    -0.054 A 
HETATM   17  C   UNL     1      40.867 -15.308  -1.810  1.00  0.00     0.044 A 
HETATM   18  C   UNL     1      40.715 -14.913  -3.141  1.00  0.00     0.068 A 
HETATM   19  C   UNL     1      41.213 -13.674  -3.548  1.00  0.00     0.037 A 
HETATM   20  C   UNL     1      41.851 -12.831  -2.639  1.00  0.00     0.003 A 
HETATM   21  C   UNL     1      42.007 -13.229  -1.313  1.00  0.00     0.007 A 
BRANCH  18  22
HETATM   22  O   UNL     1      40.118 -15.637  -4.134  1.00  0.00    -0.356 OA
HETATM   23  C   UNL     1      38.722 -15.875  -4.022  1.00  0.00     0.210 C 
ENDBRANCH  18  22
ENDBRANCH  15  16
ENDBRANCH  14  15
ENDBRANCH  12  14
ENDBRANCH   3  12
BRANCH   1  24
HETATM   24  N   UNL     1      42.137 -16.905   5.719  1.00  0.00    -0.277 NA
HETATM   25  H   UNL     1      42.590 -17.603   6.305  1.00  0.00     0.129 HD
BRANCH  24  26
HETATM   26  C   UNL     1      42.681 -15.569   5.968  1.00  0.00     0.093 C 
BRANCH  26  27
HETATM   27  C   UNL     1      43.871 -15.658   6.926  1.00  0.00     0.010 C 
HETATM   28  C   UNL     1      44.721 -14.396   6.930  1.00  0.00     0.006 C 
ENDBRANCH  26  27
ENDBRANCH  24  26
ENDBRANCH   1  24
TORSDOF 8
ENDMDL
MODEL 5
REMARK VINA RESULT:      -7.1      2.750      7.119
REMARK  8 active torsions:
REMARK  status: ('A' for Active; 'I' for Inactive)
REMARK    1  A    between atoms: C_2  and  C_3 
REMARK    2  A    between atoms: C_3  and  N_4 
REMARK    3  A    between atoms: N_4  and  C_5 
REMARK    4  A    between atoms: C_7  and  N_8 
REMARK    5  A    between atoms: N_8  and  C_9 
REMARK    6  A    between atoms: C_9  and  C_10 
REMARK    7  A    between atoms: C_10  and  C_11 
REMARK    8  A    between atoms: C_13  and  O_14 
ROOT
HETATM    1  C   UNL     1      40.702 -15.912   2.313  1.00  0.00     0.119 A 
HETATM    2  N   UNL     1      41.833 -16.609   2.087  1.00  0.00    -0.207 NA
HETATM    3  C   UNL     1      42.354 -16.565   0.857  1.00  0.00     0.181 A 
HETATM    4  N   UNL     1      41.802 -15.897  -0.151  1.00  0.00    -0.330 N 
HETATM    5  H   UNL     1      42.235 -15.989  -1.060  1.00  0.00     0.168 HD
HETATM    6  C   UNL     1      40.697 -15.166   0.027  1.00  0.00     0.048 A 
HETATM    7  C   UNL     1      40.097 -15.134   1.302  1.00  0.00     0.031 A 
HETATM    8  C   UNL     1      40.156 -14.438  -1.043  1.00  0.00     0.030 A 
HETATM    9  C   UNL     1      39.018 -13.655  -0.852  1.00  0.00     0.002 A 
HETATM   10  C   UNL     1      38.419 -13.596   0.403  1.00  0.00     0.001 A 
HETATM   11  C   UNL     1      38.949 -14.325   1.471  1.00  0.00     0.017 A 
ENDROOT
BRANCH   3  12
HETATM   12  N   UNL     1      43.502 -17.311   0.621  1.00  0.00    -0.262 NA
HETATM   13  H   UNL     1      43.176 -18.115   0.074  1.00  0.00     0.130 HD
BRANCH  12  14
HETATM   14  C   UNL     1      44.210 -17.748   1.828  1.00  0.00     0.100 C 
BRANCH  14  15
HETATM   15  C   UNL     1      44.109 -19.271   1.987  1.00  0.00     0.053 C 
BRANCH  15  16
HETATM   16  C   UNL     1      44.098 -19.668   3.442  1.00  0.00    -0.054 A 
HETATM   17  C   UNL     1      43.546 -18.816   4.415  1.00  0.00     0.044 A 
HETATM   18  C   UNL     1      43.579 -19.167   5.767  1.00  0.00     0.068 A 
HETATM   19  C   UNL     1      44.162 -20.378   6.145  1.00  0.00     0.037 A 
HETATM   20  C   UNL     1      44.700 -21.237   5.188  1.00  0.00     0.003 A 
HETATM   21  C   UNL     1      44.671 -20.883   3.841  1.00  0.00     0.007 A 
BRANCH  18  22
HETATM   22  O   UNL     1      43.097 -18.421   6.805  1.00  0.00    -0.356 OA
HETATM   23  C   UNL     1      43.983 -18.149   7.881  1.00  0.00     0.210 C 
ENDBRANCH  18  22
ENDBRANCH  15  16
ENDBRANCH  14  15
ENDBRANCH  12  14
ENDBRANCH   3  12
BRANCH   1  24
HETATM   24  N   UNL     1      40.147 -15.919   3.600  1.00  0.00    -0.277 NA
HETATM   25  H   UNL     1      39.388 -16.594   3.663  1.00  0.00     0.129 HD
BRANCH  24  26
HETATM   26  C   UNL     1      41.081 -16.067   4.718  1.00  0.00     0.093 C 
BRANCH  26  27
HETATM   27  C   UNL     1      41.051 -14.814   5.596  1.00  0.00     0.010 C 
HETATM   28  C   UNL     1      39.782 -13.995   5.412  1.00  0.00     0.006 C 
ENDBRANCH  26  27
ENDBRANCH  24  26
ENDBRANCH   1  24
TORSDOF 8
ENDMDL
MODEL 6
REMARK VINA RESULT:      -7.0      1.669      3.766
REMARK  8 active torsions:
REMARK  status: ('A' for Active; 'I' for Inactive)
REMARK    1  A    between atoms: C_2  and  C_3 
REMARK    2  A    between atoms: C_3  and  N_4 
REMARK    3  A    between atoms: N_4  and  C_5 
REMARK    4  A    between atoms: C_7  and  N_8 
REMARK    5  A    between atoms: N_8  and  C_9 
REMARK    6  A    between atoms: C_9  and  C_10 
REMARK    7  A    between atoms: C_10  and  C_11 
REMARK    8  A    between atoms: C_13  and  O_14 
ROOT
HETATM    1  C   UNL     1      44.262 -18.470   4.523  1.00  0.00     0.119 A 
HETATM    2  N   UNL     1      43.816 -17.482   3.722  1.00  0.00    -0.207 NA
HETATM    3  C   UNL     1      43.492 -17.801   2.465  1.00  0.00     0.181 A 
HETATM    4  N   UNL     1      43.612 -19.025   1.963  1.00  0.00    -0.330 N 
HETATM    5  H   UNL     1      43.410 -19.144   0.980  1.00  0.00     0.168 HD
HETATM    6  C   UNL     1      44.021 -20.047   2.723  1.00  0.00     0.048 A 
HETATM    7  C   UNL     1      44.357 -19.805   4.069  1.00  0.00     0.031 A 
HETATM    8  C   UNL     1      44.101 -21.338   2.180  1.00  0.00     0.030 A 
HETATM    9  C   UNL     1      44.502 -22.408   2.978  1.00  0.00     0.002 A 
HETATM   10  C   UNL     1      44.823 -22.195   4.315  1.00  0.00     0.001 A 
HETATM   11  C   UNL     1      44.752 -20.910   4.859  1.00  0.00     0.017 A 
ENDROOT
BRANCH   3  12
HETATM   12  N   UNL     1      43.064 -16.772   1.634  1.00  0.00    -0.262 NA
HETATM   13  H   UNL     1      42.974 -15.963   2.257  1.00  0.00     0.130 HD
BRANCH  12  14
HETATM   14  C   UNL     1      41.806 -17.035   0.928  1.00  0.00     0.100 C 
BRANCH  14  15
HETATM   15  C   UNL     1      40.634 -17.074   1.918  1.00  0.00     0.053 C 
BRANCH  15  16
HETATM   16  C   UNL     1      40.237 -15.684   2.347  1.00  0.00    -0.054 A 
HETATM   17  C   UNL     1      40.561 -15.207   3.629  1.00  0.00     0.044 A 
HETATM   18  C   UNL     1      40.150 -13.936   4.038  1.00  0.00     0.068 A 
HETATM   19  C   UNL     1      39.417 -13.138   3.158  1.00  0.00     0.037 A 
HETATM   20  C   UNL     1      39.100 -13.595   1.880  1.00  0.00     0.003 A 
HETATM   21  C   UNL     1      39.506 -14.865   1.475  1.00  0.00     0.007 A 
BRANCH  18  22
HETATM   22  O   UNL     1      40.385 -13.367   5.258  1.00  0.00    -0.356 OA
HETATM   23  C   UNL     1      39.281 -12.774   5.926  1.00  0.00     0.210 C 
ENDBRANCH  18  22
ENDBRANCH  15  16
ENDBRANCH  14  15
ENDBRANCH  12  14
ENDBRANCH   3  12
BRANCH   1  24
HETATM   24  N   UNL     1      44.585 -18.172   5.853  1.00  0.00    -0.277 NA
HETATM   25  H   UNL     1      45.593 -18.204   5.996  1.00  0.00     0.129 HD
BRANCH  24  26
HETATM   26  C   UNL     1      44.011 -16.945   6.410  1.00  0.00     0.093 C 
BRANCH  26  27
HETATM   27  C   UNL     1      42.802 -17.283   7.286  1.00  0.00     0.010 C 
HETATM   28  C   UNL     1      41.478 -16.915   6.632  1.00  0.00     0.006 C 
ENDBRANCH  26  27
ENDBRANCH  24  26
ENDBRANCH   1  24
TORSDOF 8
ENDMDL
MODEL 7
REMARK VINA RESULT:      -6.8      2.262      5.065
REMARK  8 active torsions:
REMARK  status: ('A' for Active; 'I' for Inactive)
REMARK    1  A    between atoms: C_2  and  C_3 
REMARK    2  A    between atoms: C_3  and  N_4 
REMARK    3  A    between atoms: N_4  and  C_5 
REMARK    4  A    between atoms: C_7  and  N_8 
REMARK    5  A    between atoms: N_8  and  C_9 
REMARK    6  A    between atoms: C_9  and  C_10 
REMARK    7  A    between atoms: C_10  and  C_11 
REMARK    8  A    between atoms: C_13  and  O_14 
ROOT
HETATM    1  C   UNL     1      42.101 -17.313   4.258  1.00  0.00     0.119 A 
HETATM    2  N   UNL     1      41.315 -16.719   3.338  1.00  0.00    -0.207 NA
HETATM    3  C   UNL     1      41.408 -17.147   2.074  1.00  0.00     0.181 A 
HETATM    4  N   UNL     1      42.246 -18.099   1.681  1.00  0.00    -0.330 N 
HETATM    5  H   UNL     1      42.290 -18.297   0.690  1.00  0.00     0.168 HD
HETATM    6  C   UNL     1      43.025 -18.741   2.557  1.00  0.00     0.048 A 
HETATM    7  C   UNL     1      42.971 -18.372   3.916  1.00  0.00     0.031 A 
HETATM    8  C   UNL     1      43.872 -19.770   2.123  1.00  0.00     0.030 A 
HETATM    9  C   UNL     1      44.666 -20.458   3.040  1.00  0.00     0.002 A 
HETATM   10  C   UNL     1      44.616 -20.121   4.389  1.00  0.00     0.001 A 
HETATM   11  C   UNL     1      43.779 -19.091   4.827  1.00  0.00     0.017 A 
ENDROOT
BRANCH   3  12
HETATM   12  N   UNL     1      40.619 -16.509   1.124  1.00  0.00    -0.262 NA
HETATM   13  H   UNL     1      39.944 -17.222   0.832  1.00  0.00     0.130 HD
BRANCH  12  14
HETATM   14  C   UNL     1      41.354 -15.978  -0.028  1.00  0.00     0.100 C 
BRANCH  14  15
HETATM   15  C   UNL     1      40.501 -14.945  -0.777  1.00  0.00     0.053 C 
BRANCH  15  16
HETATM   16  C   UNL     1      41.352 -13.817  -1.305  1.00  0.00    -0.054 A 
HETATM   17  C   UNL     1      41.874 -12.842  -0.436  1.00  0.00     0.044 A 
HETATM   18  C   UNL     1      42.622 -11.773  -0.935  1.00  0.00     0.068 A 
HETATM   19  C   UNL     1      42.853 -11.683  -2.309  1.00  0.00     0.037 A 
HETATM   20  C   UNL     1      42.352 -12.650  -3.179  1.00  0.00     0.003 A 
HETATM   21  C   UNL     1      41.602 -13.713  -2.680  1.00  0.00     0.007 A 
BRANCH  18  22
HETATM   22  O   UNL     1      43.165 -10.758  -0.201  1.00  0.00    -0.356 OA
HETATM   23  C   UNL     1      43.602  -9.603  -0.905  1.00  0.00     0.210 C 
ENDBRANCH  18  22
ENDBRANCH  15  16
ENDBRANCH  14  15
ENDBRANCH  12  14
ENDBRANCH   3  12
BRANCH   1  24
HETATM   24  N   UNL     1      42.008 -16.904   5.595  1.00  0.00    -0.277 NA
HETATM   25  H   UNL     1      42.212 -17.677   6.225  1.00  0.00     0.129 HD
BRANCH  24  26
HETATM   26  C   UNL     1      42.760 -15.704   5.968  1.00  0.00     0.093 C 
BRANCH  26  27
HETATM   27  C   UNL     1      43.780 -16.042   7.057  1.00  0.00     0.010 C 
HETATM   28  C   UNL     1      43.286 -17.116   8.015  1.00  0.00     0.006 C 
ENDBRANCH  26  27
ENDBRANCH  24  26
ENDBRANCH   1  24
TORSDOF 8
ENDMDL
MODEL 8
REMARK VINA RESULT:      -6.8      3.090      5.576
REMARK  8 active torsions:
REMARK  status: ('A' for Active; 'I' for Inactive)
REMARK    1  A    between atoms: C_2  and  C_3 
REMARK    2  A    between atoms: C_3  and  N_4 
REMARK    3  A    between atoms: N_4  and  C_5 
REMARK    4  A    between atoms: C_7  and  N_8 
REMARK    5  A    between atoms: N_8  and  C_9 
REMARK    6  A    between atoms: C_9  and  C_10 
REMARK    7  A    between atoms: C_10  and  C_11 
REMARK    8  A    between atoms: C_13  and  O_14 
ROOT
HETATM    1  C   UNL     1      42.878 -18.655   3.137  1.00  0.00     0.119 A 
HETATM    2  N   UNL     1      42.113 -18.139   2.155  1.00  0.00    -0.207 NA
HETATM    3  C   UNL     1      41.172 -17.255   2.502  1.00  0.00     0.181 A 
HETATM    4  N   UNL     1      40.939 -16.884   3.756  1.00  0.00    -0.330 N 
HETATM    5  H   UNL     1      40.155 -16.265   3.917  1.00  0.00     0.168 HD
HETATM    6  C   UNL     1      41.688 -17.343   4.764  1.00  0.00     0.048 A 
HETATM    7  C   UNL     1      42.721 -18.259   4.485  1.00  0.00     0.031 A 
HETATM    8  C   UNL     1      41.447 -16.905   6.074  1.00  0.00     0.030 A 
HETATM    9  C   UNL     1      42.244 -17.363   7.122  1.00  0.00     0.002 A 
HETATM   10  C   UNL     1      43.281 -18.256   6.867  1.00  0.00     0.001 A 
HETATM   11  C   UNL     1      43.521 -18.701   5.564  1.00  0.00     0.017 A 
ENDROOT
BRANCH   3  12
HETATM   12  N   UNL     1      40.365 -16.750   1.489  1.00  0.00    -0.262 NA
HETATM   13  H   UNL     1      40.595 -17.323   0.670  1.00  0.00     0.130 HD
BRANCH  12  14
HETATM   14  C   UNL     1      40.555 -15.325   1.204  1.00  0.00     0.100 C 
BRANCH  14  15
HETATM   15  C   UNL     1      41.433 -15.140  -0.041  1.00  0.00     0.053 C 
BRANCH  15  16
HETATM   16  C   UNL     1      40.591 -14.960  -1.279  1.00  0.00    -0.054 A 
HETATM   17  C   UNL     1      39.501 -14.071  -1.285  1.00  0.00     0.044 A 
HETATM   18  C   UNL     1      38.696 -13.943  -2.419  1.00  0.00     0.068 A 
HETATM   19  C   UNL     1      38.987 -14.702  -3.554  1.00  0.00     0.037 A 
HETATM   20  C   UNL     1      40.072 -15.577  -3.565  1.00  0.00     0.003 A 
HETATM   21  C   UNL     1      40.871 -15.708  -2.431  1.00  0.00     0.007 A 
BRANCH  18  22
HETATM   22  O   UNL     1      37.603 -13.133  -2.545  1.00  0.00    -0.356 OA
HETATM   23  C   UNL     1      37.820 -11.729  -2.491  1.00  0.00     0.210 C 
ENDBRANCH  18  22
ENDBRANCH  15  16
ENDBRANCH  14  15
ENDBRANCH  12  14
ENDBRANCH   3  12
BRANCH   1  24
HETATM   24  N   UNL     1      43.889 -19.566   2.802  1.00  0.00    -0.277 NA
HETATM   25  H   UNL     1      44.322 -19.950   3.639  1.00  0.00     0.129 HD
BRANCH  24  26
HETATM   26  C   UNL     1      43.532 -20.626   1.857  1.00  0.00     0.093 C 
BRANCH  26  27
HETATM   27  C   UNL     1      44.370 -21.876   2.130  1.00  0.00     0.010 C 
HETATM   28  C   UNL     1      44.602 -22.118   3.614  1.00  0.00     0.006 C 
ENDBRANCH  26  27
ENDBRANCH  24  26
ENDBRANCH   1  24
TORSDOF 8
ENDMDL
MODEL 9
REMARK VINA RESULT:      -6.7      1.973      4.444
REMARK  8 active torsions:
REMARK  status: ('A' for Active; 'I' for Inactive)
REMARK    1  A    between atoms: C_2  and  C_3 
REMARK    2  A    between atoms: C_3  and  N_4 
REMARK    3  A    between atoms: N_4  and  C_5 
REMARK    4  A    between atoms: C_7  and  N_8 
REMARK    5  A    between atoms: N_8  and  C_9 
REMARK    6  A    between atoms: C_9  and  C_10 
REMARK    7  A    between atoms: C_10  and  C_11 
REMARK    8  A    between atoms: C_13  and  O_14 
ROOT
HETATM    1  C   UNL     1      42.715 -18.185   3.145  1.00  0.00     0.119 A 
HETATM    2  N   UNL     1      41.797 -17.766   2.252  1.00  0.00    -0.207 NA
HETATM    3  C   UNL     1      40.747 -17.081   2.716  1.00  0.00     0.181 A 
HETATM    4  N   UNL     1      40.551 -16.820   4.004  1.00  0.00    -0.330 N 
HETATM    5  H   UNL     1      39.687 -16.360   4.256  1.00  0.00     0.168 HD
HETATM    6  C   UNL     1      41.445 -17.187   4.927  1.00  0.00     0.048 A 
HETATM    7  C   UNL     1      42.597 -17.890   4.522  1.00  0.00     0.031 A 
HETATM    8  C   UNL     1      41.235 -16.865   6.276  1.00  0.00     0.030 A 
HETATM    9  C   UNL     1      42.179 -17.224   7.237  1.00  0.00     0.002 A 
HETATM   10  C   UNL     1      43.332 -17.904   6.856  1.00  0.00     0.001 A 
HETATM   11  C   UNL     1      43.544 -18.235   5.515  1.00  0.00     0.017 A 
ENDROOT
BRANCH   3  12
HETATM   12  N   UNL     1      39.787 -16.679   1.794  1.00  0.00    -0.262 NA
HETATM   13  H   UNL     1      40.277 -16.694   0.893  1.00  0.00     0.130 HD
BRANCH  12  14
HETATM   14  C   UNL     1      39.201 -15.361   2.052  1.00  0.00     0.100 C 
BRANCH  14  15
HETATM   15  C   UNL     1      40.105 -14.254   1.493  1.00  0.00     0.053 C 
BRANCH  15  16
HETATM   16  C   UNL     1      40.776 -13.486   2.604  1.00  0.00    -0.054 A 
HETATM   17  C   UNL     1      42.060 -13.844   3.052  1.00  0.00     0.044 A 
HETATM   18  C   UNL     1      42.658 -13.160   4.113  1.00  0.00     0.068 A 
HETATM   19  C   UNL     1      41.971 -12.108   4.723  1.00  0.00     0.037 A 
HETATM   20  C   UNL     1      40.704 -11.736   4.279  1.00  0.00     0.003 A 
HETATM   21  C   UNL     1      40.106 -12.422   3.225  1.00  0.00     0.007 A 
BRANCH  18  22
HETATM   22  O   UNL     1      43.886 -13.422   4.650  1.00  0.00    -0.356 OA
HETATM   23  C   UNL     1      43.931 -14.245   5.808  1.00  0.00     0.210 C 
ENDBRANCH  18  22
ENDBRANCH  15  16
ENDBRANCH  14  15
ENDBRANCH  12  14
ENDBRANCH   3  12
BRANCH   1  24
HETATM   24  N   UNL     1      43.840 -18.883   2.685  1.00  0.00    -0.277 NA
HETATM   25  H   UNL     1      44.404 -19.213   3.465  1.00  0.00     0.129 HD
BRANCH  24  26
HETATM   26  C   UNL     1      43.598 -19.953   1.716  1.00  0.00     0.093 C 
BRANCH  26  27
HETATM   27  C   UNL     1      44.017 -21.301   2.307  1.00  0.00     0.010 C 
HETATM   28  C   UNL     1      44.777 -21.159   3.618  1.00  0.00     0.006 C 
ENDBRANCH  26  27
ENDBRANCH  24  26
ENDBRANCH   1  24
TORSDOF 8
ENDMDL
MODEL 10
REMARK VINA RESULT:      -6.6      2.010      4.305
REMARK  8 active torsions:
REMARK  status: ('A' for Active; 'I' for Inactive)
REMARK    1  A    between atoms: C_2  and  C_3 
REMARK    2  A    between atoms: C_3  and  N_4 
REMARK    3  A    between atoms: N_4  and  C_5 
REMARK    4  A    between atoms: C_7  and  N_8 
REMARK    5  A    between atoms: N_8  and  C_9 
REMARK    6  A    between atoms: C_9  and  C_10 
REMARK    7  A    between atoms: C_10  and  C_11 
REMARK    8  A    between atoms: C_13  and  O_14 
ROOT
HETATM    1  C   UNL     1      41.847 -17.637   4.391  1.00  0.00     0.119 A 
HETATM    2  N   UNL     1      41.000 -17.037   3.532  1.00  0.00    -0.207 NA
HETATM    3  C   UNL     1      41.139 -17.309   2.231  1.00  0.00     0.181 A 
HETATM    4  N   UNL     1      42.080 -18.112   1.745  1.00  0.00    -0.330 N 
HETATM    5  H   UNL     1      42.145 -18.192   0.739  1.00  0.00     0.168 HD
HETATM    6  C   UNL     1      42.926 -18.755   2.555  1.00  0.00     0.048 A 
HETATM    7  C   UNL     1      42.832 -18.547   3.946  1.00  0.00     0.031 A 
HETATM    8  C   UNL     1      43.885 -19.628   2.020  1.00  0.00     0.030 A 
HETATM    9  C   UNL     1      44.751 -20.319   2.866  1.00  0.00     0.002 A 
HETATM   10  C   UNL     1      44.664 -20.142   4.243  1.00  0.00     0.001 A 
HETATM   11  C   UNL     1      43.717 -19.267   4.782  1.00  0.00     0.017 A 
ENDROOT
BRANCH   3  12
HETATM   12  N   UNL     1      40.284 -16.662   1.347  1.00  0.00    -0.262 NA
HETATM   13  H   UNL     1      39.913 -17.413   0.756  1.00  0.00     0.130 HD
BRANCH  12  14
HETATM   14  C   UNL     1      40.914 -15.616   0.535  1.00  0.00     0.100 C 
BRANCH  14  15
HETATM   15  C   UNL     1      40.422 -14.230   0.972  1.00  0.00     0.053 C 
BRANCH  15  16
HETATM   16  C   UNL     1      41.113 -13.778   2.234  1.00  0.00    -0.054 A 
HETATM   17  C   UNL     1      40.388 -13.170   3.273  1.00  0.00     0.044 A 
HETATM   18  C   UNL     1      41.040 -12.711   4.420  1.00  0.00     0.068 A 
HETATM   19  C   UNL     1      42.423 -12.868   4.529  1.00  0.00     0.037 A 
HETATM   20  C   UNL     1      43.151 -13.482   3.511  1.00  0.00     0.003 A 
HETATM   21  C   UNL     1      42.500 -13.934   2.366  1.00  0.00     0.007 A 
BRANCH  18  22
HETATM   22  O   UNL     1      40.455 -12.090   5.486  1.00  0.00    -0.356 OA
HETATM   23  C   UNL     1      39.308 -11.291   5.228  1.00  0.00     0.210 C 
ENDBRANCH  18  22
ENDBRANCH  15  16
ENDBRANCH  14  15
ENDBRANCH  12  14
ENDBRANCH   3  12
BRANCH   1  24
HETATM   24  N   UNL     1      41.709 -17.391   5.764  1.00  0.00    -0.277 NA
HETATM   25  H   UNL     1      42.122 -18.145   6.310  1.00  0.00     0.129 HD
BRANCH  24  26
HETATM   26  C   UNL     1      42.157 -16.082   6.245  1.00  0.00     0.093 C 
BRANCH  26  27
HETATM   27  C   UNL     1      43.439 -16.236   7.066  1.00  0.00     0.010 C 
HETATM   28  C   UNL     1      43.323 -17.303   8.146  1.00  0.00     0.006 C 
ENDBRANCH  26  27
ENDBRANCH  24  26
ENDBRANCH   1  24
TORSDOF 8
ENDMDL
