MODEL 1
REMARK VINA RESULT:      -8.4      0.000      0.000
REMARK  8 active torsions:
REMARK  status: ('A' for Active; 'I' for Inactive)
REMARK    1  A    between atoms: C_2  and  C_3 
REMARK    2  A    between atoms: C_3  and  C_4 
REMARK       I    between atoms: C_4  and  N_5 
REMARK    3  A    between atoms: N_8  and  C_9 
REMARK    4  A    between atoms: C_13  and  N_14 
REMARK    5  A    between atoms: N_14  and  C_15 
REMARK    6  A    between atoms: C_15  and  N_16 
REMARK       I    between atoms: N_16  and  C_17 
REMARK    7  A    between atoms: C_17  and  C_18 
REMARK    8  A    between atoms: C_20  and  O_21 
ROOT
HETATM    1  C   UNL     1      41.454 -14.540   1.726  1.00  0.00     0.052 A 
HETATM    2  C   UNL     1      41.142 -15.623   2.584  1.00  0.00     0.062 A 
HETATM    3 CL   UNL     1      40.121 -16.931   2.075  1.00  0.00    -0.082 Cl
HETATM    4  C   UNL     1      41.562 -15.646   3.928  1.00  0.00     0.055 A 
HETATM    5  C   UNL     1      42.252 -14.561   4.468  1.00  0.00     0.036 A 
HETATM    6  C   UNL     1      42.634 -13.527   3.620  1.00  0.00     0.032 A 
HETATM    7  C   UNL     1      42.246 -13.521   2.276  1.00  0.00     0.033 A 
ENDROOT
BRANCH   5   8
HETATM    8  N   UNL     1      42.562 -14.566   5.844  1.00  0.00    -0.333 N 
HETATM    9  H   UNL     1      41.923 -14.061   6.460  1.00  0.00     0.168 HD
BRANCH   8  10
HETATM   10  C   UNL     1      43.722 -14.980   6.458  1.00  0.00     0.179 C 
HETATM   11  S   UNL     1      44.859 -14.067   7.284  1.00  0.00    -0.040 SA
BRANCH  10  12
HETATM   12  N   UNL     1      43.979 -16.334   6.409  1.00  0.00    -0.299 N 
HETATM   13  C   UNL     1      43.177 -17.406   6.772  1.00  0.00     0.257 C 
HETATM   14  O   UNL     1      42.111 -17.297   7.369  1.00  0.00    -0.267 OA
HETATM   15  H   UNL     1      44.845 -16.530   5.925  1.00  0.00     0.171 HD
BRANCH  13  16
HETATM   16  C   UNL     1      43.689 -18.742   6.360  1.00  0.00     0.035 A 
HETATM   17  C   UNL     1      44.232 -18.961   5.086  1.00  0.00     0.053 A 
HETATM   18  C   UNL     1      44.610 -20.246   4.688  1.00  0.00     0.069 A 
HETATM   19  C   UNL     1      44.479 -21.309   5.580  1.00  0.00     0.037 A 
HETATM   20  C   UNL     1      43.974 -21.088   6.866  1.00  0.00     0.004 A 
HETATM   21  C   UNL     1      43.580 -19.807   7.256  1.00  0.00     0.017 A 
BRANCH  18  22
HETATM   22  O   UNL     1      45.089 -20.322   3.408  1.00  0.00    -0.356 OA
HETATM   23  C   UNL     1      44.457 -21.254   2.538  1.00  0.00     0.210 C 
ENDBRANCH  18  22
ENDBRANCH  13  16
ENDBRANCH  10  12
ENDBRANCH   8  10
ENDBRANCH   5   8
BRANCH   1  24
HETATM   24  N   UNL     1      40.950 -14.441   0.415  1.00  0.00    -0.376 N 
HETATM   25  C   UNL     1      39.518 -14.089   0.304  1.00  0.00     0.143 C 
HETATM   26  C   UNL     1      39.198 -13.635  -1.140  1.00  0.00     0.145 C 
HETATM   27  N   UNL     1      39.656 -14.596  -2.159  1.00  0.00    -0.349 N 
HETATM   28  C   UNL     1      39.107 -14.732  -3.428  1.00  0.00     0.219 C 
HETATM   29  C   UNL     1      41.029 -15.085  -1.974  1.00  0.00     0.145 C 
HETATM   30  O   UNL     1      39.599 -15.485  -4.268  1.00  0.00    -0.273 OA
HETATM   31  C   UNL     1      41.325 -15.514  -0.533  1.00  0.00     0.143 C 
BRANCH  28  32
HETATM   32  C   UNL     1      37.857 -13.918  -3.731  1.00  0.00     0.103 C 
BRANCH  32  33
HETATM   33  C   UNL     1      36.668 -14.769  -4.185  1.00  0.00     0.005 C 
HETATM   34  C   UNL     1      35.585 -13.958  -4.885  1.00  0.00     0.005 C 
ENDBRANCH  32  33
ENDBRANCH  28  32
ENDBRANCH   1  24
TORSDOF 8
ENDMDL
MODEL 2
REMARK VINA RESULT:      -8.2      5.142      8.399
REMARK  8 active torsions:
REMARK  status: ('A' for Active; 'I' for Inactive)
REMARK    1  A    between atoms: C_2  and  C_3 
REMARK    2  A    between atoms: C_3  and  C_4 
REMARK       I    between atoms: C_4  and  N_5 
REMARK    3  A    between atoms: N_8  and  C_9 
REMARK    4  A    between atoms: C_13  and  N_14 
REMARK    5  A    between atoms: N_14  and  C_15 
REMARK    6  A    between atoms: C_15  and  N_16 
REMARK       I    between atoms: N_16  and  C_17 
REMARK    7  A    between atoms: C_17  and  C_18 
REMARK    8  A    between atoms: C_20  and  O_21 
ROOT
HETATM    1  C   UNL     1      41.598 -14.695   5.027  1.00  0.00     0.052 A 
HETATM    2  C   UNL     1      41.865 -13.438   4.431  1.00  0.00     0.062 A 
HETATM    3 CL   UNL     1      43.205 -13.201   3.353  1.00  0.00    -0.082 Cl
HETATM    4  C   UNL     1      41.117 -12.291   4.758  1.00  0.00     0.055 A 
HETATM    5  C   UNL     1      40.123 -12.354   5.734  1.00  0.00     0.036 A 
HETATM    6  C   UNL     1      39.796 -13.594   6.271  1.00  0.00     0.032 A 
HETATM    7  C   UNL     1      40.517 -14.740   5.921  1.00  0.00     0.033 A 
ENDROOT
BRANCH   5   8
HETATM    8  N   UNL     1      39.467 -11.165   6.118  1.00  0.00    -0.333 N 
HETATM    9  H   UNL     1      38.459 -11.125   5.956  1.00  0.00     0.168 HD
BRANCH   8  10
HETATM   10  C   UNL     1      40.023  -9.963   6.491  1.00  0.00     0.179 C 
HETATM   11  S   UNL     1      39.842  -8.455   5.782  1.00  0.00    -0.040 SA
BRANCH  10  12
HETATM   12  N   UNL     1      40.824  -9.992   7.614  1.00  0.00    -0.299 N 
HETATM   13  C   UNL     1      40.649 -10.667   8.813  1.00  0.00     0.257 C 
HETATM   14  O   UNL     1      39.620 -11.253   9.130  1.00  0.00    -0.267 OA
HETATM   15  H   UNL     1      41.709  -9.534   7.450  1.00  0.00     0.171 HD
BRANCH  13  16
HETATM   16  C   UNL     1      41.834 -10.659   9.715  1.00  0.00     0.035 A 
HETATM   17  C   UNL     1      43.140 -10.556   9.214  1.00  0.00     0.053 A 
HETATM   18  C   UNL     1      44.238 -10.655  10.073  1.00  0.00     0.069 A 
HETATM   19  C   UNL     1      44.028 -10.822  11.442  1.00  0.00     0.037 A 
HETATM   20  C   UNL     1      42.727 -10.887  11.949  1.00  0.00     0.004 A 
HETATM   21  C   UNL     1      41.631 -10.805  11.089  1.00  0.00     0.017 A 
BRANCH  18  22
HETATM   22  O   UNL     1      45.452 -10.575   9.447  1.00  0.00    -0.356 OA
HETATM   23  C   UNL     1      45.933 -11.758   8.820  1.00  0.00     0.210 C 
ENDBRANCH  18  22
ENDBRANCH  13  16
ENDBRANCH  10  12
ENDBRANCH   8  10
ENDBRANCH   5   8
BRANCH   1  24
HETATM   24  N   UNL     1      42.404 -15.827   4.803  1.00  0.00    -0.376 N 
HETATM   25  C   UNL     1      42.321 -16.416   3.449  1.00  0.00     0.143 C 
HETATM   26  C   UNL     1      43.510 -17.377   3.219  1.00  0.00     0.145 C 
HETATM   27  N   UNL     1      43.659 -18.374   4.294  1.00  0.00    -0.349 N 
HETATM   28  C   UNL     1      44.262 -19.618   4.147  1.00  0.00     0.219 C 
HETATM   29  C   UNL     1      43.583 -17.830   5.656  1.00  0.00     0.145 C 
HETATM   30  O   UNL     1      44.444 -20.365   5.108  1.00  0.00    -0.273 OA
HETATM   31  C   UNL     1      42.404 -16.870   5.854  1.00  0.00     0.143 C 
BRANCH  28  32
HETATM   32  C   UNL     1      44.676 -20.024   2.740  1.00  0.00     0.103 C 
BRANCH  32  33
HETATM   33  C   UNL     1      43.588 -20.786   1.978  1.00  0.00     0.005 C 
HETATM   34  C   UNL     1      44.073 -22.116   1.415  1.00  0.00     0.005 C 
ENDBRANCH  32  33
ENDBRANCH  28  32
ENDBRANCH   1  24
TORSDOF 8
ENDMDL
MODEL 3
REMARK VINA RESULT:      -8.1      5.406      9.064
REMARK  8 active torsions:
REMARK  status: ('A' for Active; 'I' for Inactive)
REMARK    1  A    between atoms: C_2  and  C_3 
REMARK    2  A    between atoms: C_3  and  C_4 
REMARK       I    between atoms: C_4  and  N_5 
REMARK    3  A    between atoms: N_8  and  C_9 
REMARK    4  A    between atoms: C_13  and  N_14 
REMARK    5  A    between atoms: N_14  and  C_15 
REMARK    6  A    between atoms: C_15  and  N_16 
REMARK       I    between atoms: N_16  and  C_17 
REMARK    7  A    between atoms: C_17  and  C_18 
REMARK    8  A    between atoms: C_20  and  O_21 
ROOT
HETATM    1  C   UNL     1      42.170 -15.289   5.177  1.00  0.00     0.052 A 
HETATM    2  C   UNL     1      42.759 -14.073   5.601  1.00  0.00     0.062 A 
HETATM    3 CL   UNL     1      44.473 -13.917   5.831  1.00  0.00    -0.082 Cl
HETATM    4  C   UNL     1      41.979 -12.956   5.954  1.00  0.00     0.055 A 
HETATM    5  C   UNL     1      40.587 -13.042   5.951  1.00  0.00     0.036 A 
HETATM    6  C   UNL     1      39.993 -14.200   5.463  1.00  0.00     0.032 A 
HETATM    7  C   UNL     1      40.770 -15.299   5.080  1.00  0.00     0.033 A 
ENDROOT
BRANCH   5   8
HETATM    8  N   UNL     1      39.834 -11.942   6.415  1.00  0.00    -0.333 N 
HETATM    9  H   UNL     1      38.819 -12.044   6.402  1.00  0.00     0.168 HD
BRANCH   8  10
HETATM   10  C   UNL     1      40.267 -10.665   6.690  1.00  0.00     0.179 C 
HETATM   11  S   UNL     1      40.059  -9.267   5.789  1.00  0.00    -0.040 SA
BRANCH  10  12
HETATM   12  N   UNL     1      40.947 -10.502   7.879  1.00  0.00    -0.299 N 
HETATM   13  C   UNL     1      40.556 -10.801   9.176  1.00  0.00     0.257 C 
HETATM   14  O   UNL     1      39.419 -11.137   9.492  1.00  0.00    -0.267 OA
HETATM   15  H   UNL     1      41.907 -10.228   7.723  1.00  0.00     0.171 HD
BRANCH  13  16
HETATM   16  C   UNL     1      41.639 -10.715  10.194  1.00  0.00     0.035 A 
HETATM   17  C   UNL     1      41.378 -10.881  11.562  1.00  0.00     0.053 A 
HETATM   18  C   UNL     1      42.393 -10.693  12.504  1.00  0.00     0.069 A 
HETATM   19  C   UNL     1      43.680 -10.372  12.075  1.00  0.00     0.037 A 
HETATM   20  C   UNL     1      43.952 -10.243  10.709  1.00  0.00     0.004 A 
HETATM   21  C   UNL     1      42.935 -10.414   9.769  1.00  0.00     0.017 A 
BRANCH  18  22
HETATM   22  O   UNL     1      41.992 -10.851  13.803  1.00  0.00    -0.356 OA
HETATM   23  C   UNL     1      42.445  -9.881  14.740  1.00  0.00     0.210 C 
ENDBRANCH  18  22
ENDBRANCH  13  16
ENDBRANCH  10  12
ENDBRANCH   8  10
ENDBRANCH   5   8
BRANCH   1  24
HETATM   24  N   UNL     1      42.923 -16.452   4.930  1.00  0.00    -0.376 N 
HETATM   25  C   UNL     1      42.869 -16.969   3.545  1.00  0.00     0.143 C 
HETATM   26  C   UNL     1      44.015 -17.982   3.316  1.00  0.00     0.145 C 
HETATM   27  N   UNL     1      44.062 -19.037   4.345  1.00  0.00    -0.349 N 
HETATM   28  C   UNL     1      44.604 -20.304   4.161  1.00  0.00     0.219 C 
HETATM   29  C   UNL     1      43.954 -18.557   5.729  1.00  0.00     0.145 C 
HETATM   30  O   UNL     1      44.702 -21.106   5.090  1.00  0.00    -0.273 OA
HETATM   31  C   UNL     1      42.821 -17.544   5.926  1.00  0.00     0.143 C 
BRANCH  28  32
HETATM   32  C   UNL     1      45.059 -20.663   2.753  1.00  0.00     0.103 C 
BRANCH  32  33
HETATM   33  C   UNL     1      44.315 -21.862   2.158  1.00  0.00     0.005 C 
HETATM   34  C   UNL     1      42.893 -21.529   1.726  1.00  0.00     0.005 C 
ENDBRANCH  32  33
ENDBRANCH  28  32
ENDBRANCH   1  24
TORSDOF 8
ENDMDL
MODEL 4
REMARK VINA RESULT:      -8.0      2.560      4.175
REMARK  8 active torsions:
REMARK  status: ('A' for Active; 'I' for Inactive)
REMARK    1  A    between atoms: C_2  and  C_3 
REMARK    2  A    between atoms: C_3  and  C_4 
REMARK       I    between atoms: C_4  and  N_5 
REMARK    3  A    between atoms: N_8  and  C_9 
REMARK    4  A    between atoms: C_13  and  N_14 
REMARK    5  A    between atoms: N_14  and  C_15 
REMARK    6  A    between atoms: C_15  and  N_16 
REMARK       I    between atoms: N_16  and  C_17 
REMARK    7  A    between atoms: C_17  and  C_18 
REMARK    8  A    between atoms: C_20  and  O_21 
ROOT
HETATM    1  C   UNL     1      39.385 -13.812  -1.464  1.00  0.00     0.052 A 
HETATM    2  C   UNL     1      40.679 -14.375  -1.582  1.00  0.00     0.062 A 
HETATM    3 CL   UNL     1      41.284 -14.974  -3.096  1.00  0.00    -0.082 Cl
HETATM    4  C   UNL     1      41.506 -14.570  -0.459  1.00  0.00     0.055 A 
HETATM    5  C   UNL     1      41.040 -14.264   0.818  1.00  0.00     0.036 A 
HETATM    6  C   UNL     1      39.804 -13.639   0.944  1.00  0.00     0.032 A 
HETATM    7  C   UNL     1      38.997 -13.414  -0.176  1.00  0.00     0.033 A 
ENDROOT
BRANCH   5   8
HETATM    8  N   UNL     1      41.849 -14.573   1.933  1.00  0.00    -0.333 N 
HETATM    9  H   UNL     1      42.856 -14.449   1.816  1.00  0.00     0.168 HD
BRANCH   8  10
HETATM   10  C   UNL     1      41.494 -15.219   3.095  1.00  0.00     0.179 C 
HETATM   11  S   UNL     1      40.471 -14.700   4.316  1.00  0.00    -0.040 SA
BRANCH  10  12
HETATM   12  N   UNL     1      42.034 -16.476   3.274  1.00  0.00    -0.299 N 
HETATM   13  C   UNL     1      42.000 -17.585   2.443  1.00  0.00     0.257 C 
HETATM   14  O   UNL     1      41.314 -17.665   1.428  1.00  0.00    -0.267 OA
HETATM   15  H   UNL     1      42.627 -16.512   4.091  1.00  0.00     0.171 HD
BRANCH  13  16
HETATM   16  C   UNL     1      42.894 -18.704   2.851  1.00  0.00     0.035 A 
HETATM   17  C   UNL     1      43.428 -18.784   4.145  1.00  0.00     0.053 A 
HETATM   18  C   UNL     1      44.345 -19.786   4.473  1.00  0.00     0.069 A 
HETATM   19  C   UNL     1      44.702 -20.732   3.513  1.00  0.00     0.037 A 
HETATM   20  C   UNL     1      44.142 -20.678   2.232  1.00  0.00     0.004 A 
HETATM   21  C   UNL     1      43.239 -19.667   1.901  1.00  0.00     0.017 A 
BRANCH  18  22
HETATM   22  O   UNL     1      44.813 -19.724   5.757  1.00  0.00    -0.356 OA
HETATM   23  C   UNL     1      44.266 -18.712   6.594  1.00  0.00     0.210 C 
ENDBRANCH  18  22
ENDBRANCH  13  16
ENDBRANCH  10  12
ENDBRANCH   8  10
ENDBRANCH   5   8
BRANCH   1  24
HETATM   24  N   UNL     1      38.498 -13.714  -2.553  1.00  0.00    -0.376 N 
HETATM   25  C   UNL     1      37.650 -12.502  -2.583  1.00  0.00     0.143 C 
HETATM   26  C   UNL     1      37.029 -12.328  -3.988  1.00  0.00     0.145 C 
HETATM   27  N   UNL     1      36.349 -13.543  -4.470  1.00  0.00    -0.349 N 
HETATM   28  C   UNL     1      35.316 -13.561  -5.401  1.00  0.00     0.219 C 
HETATM   29  C   UNL     1      37.111 -14.787  -4.301  1.00  0.00     0.145 C 
HETATM   30  O   UNL     1      34.856 -14.617  -5.835  1.00  0.00    -0.273 OA
HETATM   31  C   UNL     1      37.728 -14.929  -2.905  1.00  0.00     0.143 C 
BRANCH  28  32
HETATM   32  C   UNL     1      34.767 -12.214  -5.850  1.00  0.00     0.103 C 
BRANCH  32  33
HETATM   33  C   UNL     1      33.279 -12.028  -5.544  1.00  0.00     0.005 C 
HETATM   34  C   UNL     1      32.953 -12.156  -4.061  1.00  0.00     0.005 C 
ENDBRANCH  32  33
ENDBRANCH  28  32
ENDBRANCH   1  24
TORSDOF 8
ENDMDL
MODEL 5
REMARK VINA RESULT:      -8.0      4.709      8.821
REMARK  8 active torsions:
REMARK  status: ('A' for Active; 'I' for Inactive)
REMARK    1  A    between atoms: C_2  and  C_3 
REMARK    2  A    between atoms: C_3  and  C_4 
REMARK       I    between atoms: C_4  and  N_5 
REMARK    3  A    between atoms: N_8  and  C_9 
REMARK    4  A    between atoms: C_13  and  N_14 
REMARK    5  A    between atoms: N_14  and  C_15 
REMARK    6  A    between atoms: C_15  and  N_16 
REMARK       I    between atoms: N_16  and  C_17 
REMARK    7  A    between atoms: C_17  and  C_18 
REMARK    8  A    between atoms: C_20  and  O_21 
ROOT
HETATM    1  C   UNL     1      40.385 -12.463   5.850  1.00  0.00     0.052 A 
HETATM    2  C   UNL     1      39.624 -12.164   4.693  1.00  0.00     0.062 A 
HETATM    3 CL   UNL     1      38.721 -10.688   4.548  1.00  0.00    -0.082 Cl
HETATM    4  C   UNL     1      39.480 -13.090   3.643  1.00  0.00     0.055 A 
HETATM    5  C   UNL     1      40.041 -14.362   3.745  1.00  0.00     0.036 A 
HETATM    6  C   UNL     1      40.855 -14.644   4.836  1.00  0.00     0.032 A 
HETATM    7  C   UNL     1      41.026 -13.712   5.864  1.00  0.00     0.033 A 
ENDROOT
BRANCH   5   8
HETATM    8  N   UNL     1      39.786 -15.304   2.726  1.00  0.00    -0.333 N 
HETATM    9  H   UNL     1      38.940 -15.866   2.823  1.00  0.00     0.168 HD
BRANCH   8  10
HETATM   10  C   UNL     1      40.626 -15.723   1.719  1.00  0.00     0.179 C 
HETATM   11  S   UNL     1      40.757 -15.148   0.150  1.00  0.00    -0.040 SA
BRANCH  10  12
HETATM   12  N   UNL     1      41.498 -16.740   2.047  1.00  0.00    -0.299 N 
HETATM   13  C   UNL     1      42.814 -16.679   2.479  1.00  0.00     0.257 C 
HETATM   14  O   UNL     1      43.489 -15.654   2.491  1.00  0.00    -0.267 OA
HETATM   15  H   UNL     1      41.031 -17.636   2.070  1.00  0.00     0.171 HD
BRANCH  13  16
HETATM   16  C   UNL     1      43.375 -17.969   2.970  1.00  0.00     0.035 A 
HETATM   17  C   UNL     1      43.727 -18.154   4.314  1.00  0.00     0.053 A 
HETATM   18  C   UNL     1      44.345 -19.337   4.728  1.00  0.00     0.069 A 
HETATM   19  C   UNL     1      44.581 -20.351   3.801  1.00  0.00     0.037 A 
HETATM   20  C   UNL     1      44.197 -20.184   2.466  1.00  0.00     0.004 A 
HETATM   21  C   UNL     1      43.594 -18.996   2.050  1.00  0.00     0.017 A 
BRANCH  18  22
HETATM   22  O   UNL     1      44.667 -19.369   6.058  1.00  0.00    -0.356 OA
HETATM   23  C   UNL     1      45.102 -18.149   6.645  1.00  0.00     0.210 C 
ENDBRANCH  18  22
ENDBRANCH  13  16
ENDBRANCH  10  12
ENDBRANCH   8  10
ENDBRANCH   5   8
BRANCH   1  24
HETATM   24  N   UNL     1      40.450 -11.601   6.961  1.00  0.00    -0.376 N 
HETATM   25  C   UNL     1      41.805 -11.339   7.492  1.00  0.00     0.143 C 
HETATM   26  C   UNL     1      41.775 -10.106   8.426  1.00  0.00     0.145 C 
HETATM   27  N   UNL     1      40.735 -10.200   9.466  1.00  0.00    -0.349 N 
HETATM   28  C   UNL     1      40.778  -9.550  10.695  1.00  0.00     0.219 C 
HETATM   29  C   UNL     1      39.413 -10.618   8.983  1.00  0.00     0.145 C 
HETATM   30  O   UNL     1      39.831  -9.590  11.480  1.00  0.00    -0.273 OA
HETATM   31  C   UNL     1      39.471 -11.831   8.048  1.00  0.00     0.143 C 
BRANCH  28  32
HETATM   32  C   UNL     1      42.057  -8.797  11.034  1.00  0.00     0.103 C 
BRANCH  32  33
HETATM   33  C   UNL     1      42.918  -9.499  12.088  1.00  0.00     0.005 C 
HETATM   34  C   UNL     1      43.969 -10.421  11.484  1.00  0.00     0.005 C 
ENDBRANCH  32  33
ENDBRANCH  28  32
ENDBRANCH   1  24
TORSDOF 8
ENDMDL
MODEL 6
REMARK VINA RESULT:      -7.7      5.085      9.267
REMARK  8 active torsions:
REMARK  status: ('A' for Active; 'I' for Inactive)
REMARK    1  A    between atoms: C_2  and  C_3 
REMARK    2  A    between atoms: C_3  and  C_4 
REMARK       I    between atoms: C_4  and  N_5 
REMARK    3  A    between atoms: N_8  and  C_9 
REMARK    4  A    between atoms: C_13  and  N_14 
REMARK    5  A    between atoms: N_14  and  C_15 
REMARK    6  A    between atoms: C_15  and  N_16 
REMARK       I    between atoms: N_16  and  C_17 
REMARK    7  A    between atoms: C_17  and  C_18 
REMARK    8  A    between atoms: C_20  and  O_21 
ROOT
HETATM    1  C   UNL     1      40.656 -11.713   6.121  1.00  0.00     0.052 A 
HETATM    2  C   UNL     1      40.951 -11.092   4.883  1.00  0.00     0.062 A 
HETATM    3 CL   UNL     1      41.373  -9.411   4.778  1.00  0.00    -0.082 Cl
HETATM    4  C   UNL     1      40.822 -11.780   3.661  1.00  0.00     0.055 A 
HETATM    5  C   UNL     1      40.336 -13.087   3.639  1.00  0.00     0.036 A 
HETATM    6  C   UNL     1      40.117 -13.736   4.848  1.00  0.00     0.032 A 
HETATM    7  C   UNL     1      40.277 -13.063   6.064  1.00  0.00     0.033 A 
ENDROOT
BRANCH   5   8
HETATM    8  N   UNL     1      40.114 -13.711   2.392  1.00  0.00    -0.333 N 
HETATM    9  H   UNL     1      39.141 -13.870   2.127  1.00  0.00     0.168 HD
BRANCH   8  10
HETATM   10  C   UNL     1      41.029 -14.328   1.570  1.00  0.00     0.179 C 
HETATM   11  S   UNL     1      41.458 -13.942  -0.003  1.00  0.00    -0.040 SA
BRANCH  10  12
HETATM   12  N   UNL     1      41.704 -15.399   2.118  1.00  0.00    -0.299 N 
HETATM   13  C   UNL     1      41.264 -16.687   2.383  1.00  0.00     0.257 C 
HETATM   14  O   UNL     1      40.093 -17.045   2.304  1.00  0.00    -0.267 OA
HETATM   15  H   UNL     1      42.691 -15.203   2.219  1.00  0.00     0.171 HD
BRANCH  13  16
HETATM   16  C   UNL     1      42.336 -17.652   2.756  1.00  0.00     0.035 A 
HETATM   17  C   UNL     1      42.610 -18.785   1.977  1.00  0.00     0.053 A 
HETATM   18  C   UNL     1      43.549 -19.728   2.403  1.00  0.00     0.069 A 
HETATM   19  C   UNL     1      44.241 -19.519   3.596  1.00  0.00     0.037 A 
HETATM   20  C   UNL     1      43.997 -18.371   4.357  1.00  0.00     0.004 A 
HETATM   21  C   UNL     1      43.047 -17.438   3.939  1.00  0.00     0.017 A 
BRANCH  18  22
HETATM   22  O   UNL     1      43.692 -20.800   1.566  1.00  0.00    -0.356 OA
HETATM   23  C   UNL     1      44.438 -21.907   2.057  1.00  0.00     0.210 C 
ENDBRANCH  18  22
ENDBRANCH  13  16
ENDBRANCH  10  12
ENDBRANCH   8  10
ENDBRANCH   5   8
BRANCH   1  24
HETATM   24  N   UNL     1      40.667 -11.013   7.343  1.00  0.00    -0.376 N 
HETATM   25  C   UNL     1      41.999 -10.799   7.948  1.00  0.00     0.143 C 
HETATM   26  C   UNL     1      41.912  -9.710   9.043  1.00  0.00     0.145 C 
HETATM   27  N   UNL     1      40.845  -9.969  10.026  1.00  0.00    -0.349 N 
HETATM   28  C   UNL     1      40.836  -9.497  11.334  1.00  0.00     0.219 C 
HETATM   29  C   UNL     1      39.548 -10.344   9.448  1.00  0.00     0.145 C 
HETATM   30  O   UNL     1      39.869  -9.666  12.075  1.00  0.00    -0.273 OA
HETATM   31  C   UNL     1      39.663 -11.413   8.356  1.00  0.00     0.143 C 
BRANCH  28  32
HETATM   32  C   UNL     1      42.085  -8.772  11.815  1.00  0.00     0.103 C 
BRANCH  32  33
HETATM   33  C   UNL     1      43.054  -9.670  12.589  1.00  0.00     0.005 C 
HETATM   34  C   UNL     1      43.200  -9.271  14.052  1.00  0.00     0.005 C 
ENDBRANCH  32  33
ENDBRANCH  28  32
ENDBRANCH   1  24
TORSDOF 8
ENDMDL
MODEL 7
REMARK VINA RESULT:      -7.7      4.583      8.196
REMARK  8 active torsions:
REMARK  status: ('A' for Active; 'I' for Inactive)
REMARK    1  A    between atoms: C_2  and  C_3 
REMARK    2  A    between atoms: C_3  and  C_4 
REMARK       I    between atoms: C_4  and  N_5 
REMARK    3  A    between atoms: N_8  and  C_9 
REMARK    4  A    between atoms: C_13  and  N_14 
REMARK    5  A    between atoms: N_14  and  C_15 
REMARK    6  A    between atoms: C_15  and  N_16 
REMARK       I    between atoms: N_16  and  C_17 
REMARK    7  A    between atoms: C_17  and  C_18 
REMARK    8  A    between atoms: C_20  and  O_21 
ROOT
HETATM    1  C   UNL     1      40.616 -13.313   5.391  1.00  0.00     0.052 A 
HETATM    2  C   UNL     1      39.902 -13.105   4.185  1.00  0.00     0.062 A 
HETATM    3 CL   UNL     1      38.971 -11.666   3.908  1.00  0.00    -0.082 Cl
HETATM    4  C   UNL     1      39.827 -14.098   3.190  1.00  0.00     0.055 A 
HETATM    5  C   UNL     1      40.413 -15.346   3.396  1.00  0.00     0.036 A 
HETATM    6  C   UNL     1      41.184 -15.539   4.537  1.00  0.00     0.032 A 
HETATM    7  C   UNL     1      41.285 -14.541   5.512  1.00  0.00     0.033 A 
ENDROOT
BRANCH   5   8
HETATM    8  N   UNL     1      40.228 -16.356   2.427  1.00  0.00    -0.333 N 
HETATM    9  H   UNL     1      39.426 -16.974   2.558  1.00  0.00     0.168 HD
BRANCH   8  10
HETATM   10  C   UNL     1      41.095 -16.762   1.439  1.00  0.00     0.179 C 
HETATM   11  S   UNL     1      41.372 -16.075  -0.064  1.00  0.00    -0.040 SA
BRANCH  10  12
HETATM   12  N   UNL     1      41.860 -17.873   1.728  1.00  0.00    -0.299 N 
HETATM   13  C   UNL     1      43.156 -17.958   2.215  1.00  0.00     0.257 C 
HETATM   14  O   UNL     1      43.915 -17.001   2.325  1.00  0.00    -0.267 OA
HETATM   15  H   UNL     1      41.317 -18.723   1.670  1.00  0.00     0.171 HD
BRANCH  13  16
HETATM   16  C   UNL     1      43.580 -19.323   2.635  1.00  0.00     0.035 A 
HETATM   17  C   UNL     1      43.920 -19.611   3.965  1.00  0.00     0.053 A 
HETATM   18  C   UNL     1      44.412 -20.872   4.313  1.00  0.00     0.069 A 
HETATM   19  C   UNL     1      44.533 -21.858   3.334  1.00  0.00     0.037 A 
HETATM   20  C   UNL     1      44.159 -21.585   2.014  1.00  0.00     0.004 A 
HETATM   21  C   UNL     1      43.683 -20.321   1.664  1.00  0.00     0.017 A 
BRANCH  18  22
HETATM   22  O   UNL     1      44.738 -21.004   5.635  1.00  0.00    -0.356 OA
HETATM   23  C   UNL     1      44.016 -20.199   6.560  1.00  0.00     0.210 C 
ENDBRANCH  18  22
ENDBRANCH  13  16
ENDBRANCH  10  12
ENDBRANCH   8  10
ENDBRANCH   5   8
BRANCH   1  24
HETATM   24  N   UNL     1      40.609 -12.383   6.447  1.00  0.00    -0.376 N 
HETATM   25  C   UNL     1      39.307 -12.187   7.121  1.00  0.00     0.143 C 
HETATM   26  C   UNL     1      39.517 -11.465   8.473  1.00  0.00     0.145 C 
HETATM   27  N   UNL     1      40.315 -10.231   8.347  1.00  0.00    -0.349 N 
HETATM   28  C   UNL     1      40.252  -9.151   9.219  1.00  0.00     0.219 C 
HETATM   29  C   UNL     1      41.536 -10.364   7.542  1.00  0.00     0.145 C 
HETATM   30  O   UNL     1      41.016  -8.192   9.115  1.00  0.00    -0.273 OA
HETATM   31  C   UNL     1      41.304 -11.096   6.215  1.00  0.00     0.143 C 
BRANCH  28  32
HETATM   32  C   UNL     1      39.185  -9.200  10.304  1.00  0.00     0.103 C 
BRANCH  32  33
HETATM   33  C   UNL     1      39.757  -9.322  11.719  1.00  0.00     0.005 C 
HETATM   34  C   UNL     1      39.988 -10.765  12.147  1.00  0.00     0.005 C 
ENDBRANCH  32  33
ENDBRANCH  28  32
ENDBRANCH   1  24
TORSDOF 8
ENDMDL
MODEL 8
REMARK VINA RESULT:      -7.6      5.139      9.423
REMARK  8 active torsions:
REMARK  status: ('A' for Active; 'I' for Inactive)
REMARK    1  A    between atoms: C_2  and  C_3 
REMARK    2  A    between atoms: C_3  and  C_4 
REMARK       I    between atoms: C_4  and  N_5 
REMARK    3  A    between atoms: N_8  and  C_9 
REMARK    4  A    between atoms: C_13  and  N_14 
REMARK    5  A    between atoms: N_14  and  C_15 
REMARK    6  A    between atoms: C_15  and  N_16 
REMARK       I    between atoms: N_16  and  C_17 
REMARK    7  A    between atoms: C_17  and  C_18 
REMARK    8  A    between atoms: C_20  and  O_21 
ROOT
HETATM    1  C   UNL     1      41.432 -14.569   5.089  1.00  0.00     0.052 A 
HETATM    2  C   UNL     1      42.039 -13.389   4.595  1.00  0.00     0.062 A 
HETATM    3 CL   UNL     1      43.480 -13.436   3.628  1.00  0.00    -0.082 Cl
HETATM    4  C   UNL     1      41.564 -12.111   4.945  1.00  0.00     0.055 A 
HETATM    5  C   UNL     1      40.508 -11.975   5.845  1.00  0.00     0.036 A 
HETATM    6  C   UNL     1      39.851 -13.122   6.277  1.00  0.00     0.032 A 
HETATM    7  C   UNL     1      40.302 -14.392   5.903  1.00  0.00     0.033 A 
ENDROOT
BRANCH   5   8
HETATM    8  N   UNL     1      40.127 -10.681   6.260  1.00  0.00    -0.333 N 
HETATM    9  H   UNL     1      39.172 -10.393   6.042  1.00  0.00     0.168 HD
BRANCH   8  10
HETATM   10  C   UNL     1      40.925  -9.666   6.736  1.00  0.00     0.179 C 
HETATM   11  S   UNL     1      41.538  -8.339   5.918  1.00  0.00    -0.040 SA
BRANCH  10  12
HETATM   12  N   UNL     1      41.249  -9.733   8.075  1.00  0.00    -0.299 N 
HETATM   13  C   UNL     1      42.323 -10.349   8.701  1.00  0.00     0.257 C 
HETATM   14  O   UNL     1      43.111 -11.100   8.136  1.00  0.00    -0.267 OA
HETATM   15  H   UNL     1      40.653  -9.136   8.632  1.00  0.00     0.171 HD
BRANCH  13  16
HETATM   16  C   UNL     1      42.486 -10.014  10.143  1.00  0.00     0.035 A 
HETATM   17  C   UNL     1      41.598  -9.153  10.803  1.00  0.00     0.053 A 
HETATM   18  C   UNL     1      41.831  -8.774  12.128  1.00  0.00     0.069 A 
HETATM   19  C   UNL     1      42.938  -9.286  12.805  1.00  0.00     0.037 A 
HETATM   20  C   UNL     1      43.805 -10.175  12.161  1.00  0.00     0.004 A 
HETATM   21  C   UNL     1      43.580 -10.540  10.833  1.00  0.00     0.017 A 
BRANCH  18  22
HETATM   22  O   UNL     1      40.907  -7.903  12.636  1.00  0.00    -0.356 OA
HETATM   23  C   UNL     1      39.690  -8.461  13.116  1.00  0.00     0.210 C 
ENDBRANCH  18  22
ENDBRANCH  13  16
ENDBRANCH  10  12
ENDBRANCH   8  10
ENDBRANCH   5   8
BRANCH   1  24
HETATM   24  N   UNL     1      41.958 -15.852   4.847  1.00  0.00    -0.376 N 
HETATM   25  C   UNL     1      43.285 -16.124   5.440  1.00  0.00     0.143 C 
HETATM   26  C   UNL     1      43.561 -17.646   5.438  1.00  0.00     0.145 C 
HETATM   27  N   UNL     1      43.361 -18.264   4.115  1.00  0.00    -0.349 N 
HETATM   28  C   UNL     1      43.980 -19.431   3.680  1.00  0.00     0.219 C 
HETATM   29  C   UNL     1      42.118 -17.879   3.434  1.00  0.00     0.145 C 
HETATM   30  O   UNL     1      43.695 -19.949   2.601  1.00  0.00    -0.273 OA
HETATM   31  C   UNL     1      41.860 -16.369   3.462  1.00  0.00     0.143 C 
BRANCH  28  32
HETATM   32  C   UNL     1      45.039 -20.032   4.593  1.00  0.00     0.103 C 
BRANCH  32  33
HETATM   33  C   UNL     1      44.521 -21.191   5.449  1.00  0.00     0.005 C 
HETATM   34  C   UNL     1      45.050 -22.548   5.002  1.00  0.00     0.005 C 
ENDBRANCH  32  33
ENDBRANCH  28  32
ENDBRANCH   1  24
TORSDOF 8
ENDMDL
MODEL 9
REMARK VINA RESULT:      -7.5      5.048      9.538
REMARK  8 active torsions:
REMARK  status: ('A' for Active; 'I' for Inactive)
REMARK    1  A    between atoms: C_2  and  C_3 
REMARK    2  A    between atoms: C_3  and  C_4 
REMARK       I    between atoms: C_4  and  N_5 
REMARK    3  A    between atoms: N_8  and  C_9 
REMARK    4  A    between atoms: C_13  and  N_14 
REMARK    5  A    between atoms: N_14  and  C_15 
REMARK    6  A    between atoms: C_15  and  N_16 
REMARK       I    between atoms: N_16  and  C_17 
REMARK    7  A    between atoms: C_17  and  C_18 
REMARK    8  A    between atoms: C_20  and  O_21 
ROOT
HETATM    1  C   UNL     1      43.110 -15.560   5.031  1.00  0.00     0.052 A 
HETATM    2  C   UNL     1      43.410 -14.447   5.855  1.00  0.00     0.062 A 
HETATM    3 CL   UNL     1      44.350 -14.609   7.305  1.00  0.00    -0.082 Cl
HETATM    4  C   UNL     1      42.878 -13.170   5.595  1.00  0.00     0.055 A 
HETATM    5  C   UNL     1      41.985 -12.981   4.541  1.00  0.00     0.036 A 
HETATM    6  C   UNL     1      41.742 -14.043   3.677  1.00  0.00     0.032 A 
HETATM    7  C   UNL     1      42.297 -15.305   3.916  1.00  0.00     0.033 A 
ENDROOT
BRANCH   5   8
HETATM    8  N   UNL     1      41.384 -11.715   4.373  1.00  0.00    -0.333 N 
HETATM    9  H   UNL     1      42.008 -10.940   4.146  1.00  0.00     0.168 HD
BRANCH   8  10
HETATM   10  C   UNL     1      40.098 -11.331   4.678  1.00  0.00     0.179 C 
HETATM   11  S   UNL     1      38.720 -11.427   3.730  1.00  0.00    -0.040 SA
BRANCH  10  12
HETATM   12  N   UNL     1      39.907 -10.818   5.944  1.00  0.00    -0.299 N 
HETATM   13  C   UNL     1      39.484 -11.447   7.105  1.00  0.00     0.257 C 
HETATM   14  O   UNL     1      39.046 -12.592   7.147  1.00  0.00    -0.267 OA
HETATM   15  H   UNL     1      40.246  -9.868   6.014  1.00  0.00     0.171 HD
BRANCH  13  16
HETATM   16  C   UNL     1      39.621 -10.634   8.345  1.00  0.00     0.035 A 
HETATM   17  C   UNL     1      40.370 -11.085   9.441  1.00  0.00     0.053 A 
HETATM   18  C   UNL     1      40.398 -10.351  10.631  1.00  0.00     0.069 A 
HETATM   19  C   UNL     1      39.703  -9.145  10.711  1.00  0.00     0.037 A 
HETATM   20  C   UNL     1      38.986  -8.673   9.606  1.00  0.00     0.004 A 
HETATM   21  C   UNL     1      38.945  -9.415   8.425  1.00  0.00     0.017 A 
BRANCH  18  22
HETATM   22  O   UNL     1      41.137 -10.924  11.629  1.00  0.00    -0.356 OA
HETATM   23  C   UNL     1      40.417 -11.517  12.704  1.00  0.00     0.210 C 
ENDBRANCH  18  22
ENDBRANCH  13  16
ENDBRANCH  10  12
ENDBRANCH   8  10
ENDBRANCH   5   8
BRANCH   1  24
HETATM   24  N   UNL     1      43.535 -16.867   5.335  1.00  0.00    -0.376 N 
HETATM   25  C   UNL     1      43.954 -17.691   4.181  1.00  0.00     0.143 C 
HETATM   26  C   UNL     1      44.749 -18.923   4.673  1.00  0.00     0.145 C 
HETATM   27  N   UNL     1      44.041 -19.680   5.721  1.00  0.00    -0.349 N 
HETATM   28  C   UNL     1      44.229 -21.031   5.991  1.00  0.00     0.219 C 
HETATM   29  C   UNL     1      43.474 -18.862   6.800  1.00  0.00     0.145 C 
HETATM   30  O   UNL     1      43.680 -21.583   6.944  1.00  0.00    -0.273 OA
HETATM   31  C   UNL     1      42.705 -17.640   6.287  1.00  0.00     0.143 C 
BRANCH  28  32
HETATM   32  C   UNL     1      45.136 -21.805   5.043  1.00  0.00     0.103 C 
BRANCH  32  33
HETATM   33  C   UNL     1      44.372 -22.646   4.017  1.00  0.00     0.005 C 
HETATM   34  C   UNL     1      44.380 -22.037   2.620  1.00  0.00     0.005 C 
ENDBRANCH  32  33
ENDBRANCH  28  32
ENDBRANCH   1  24
TORSDOF 8
ENDMDL
MODEL 10
REMARK VINA RESULT:      -7.4      1.770      2.131
REMARK  8 active torsions:
REMARK  status: ('A' for Active; 'I' for Inactive)
REMARK    1  A    between atoms: C_2  and  C_3 
REMARK    2  A    between atoms: C_3  and  C_4 
REMARK       I    between atoms: C_4  and  N_5 
REMARK    3  A    between atoms: N_8  and  C_9 
REMARK    4  A    between atoms: C_13  and  N_14 
REMARK    5  A    between atoms: N_14  and  C_15 
REMARK    6  A    between atoms: C_15  and  N_16 
REMARK       I    between atoms: N_16  and  C_17 
REMARK    7  A    between atoms: C_17  and  C_18 
REMARK    8  A    between atoms: C_20  and  O_21 
ROOT
HETATM    1  C   UNL     1      40.300 -13.850   2.669  1.00  0.00     0.052 A 
HETATM    2  C   UNL     1      40.651 -15.173   3.031  1.00  0.00     0.062 A 
HETATM    3 CL   UNL     1      40.105 -16.548   2.121  1.00  0.00    -0.082 Cl
HETATM    4  C   UNL     1      41.379 -15.451   4.204  1.00  0.00     0.055 A 
HETATM    5  C   UNL     1      41.723 -14.421   5.078  1.00  0.00     0.036 A 
HETATM    6  C   UNL     1      41.455 -13.110   4.700  1.00  0.00     0.032 A 
HETATM    7  C   UNL     1      40.762 -12.832   3.518  1.00  0.00     0.033 A 
ENDROOT
BRANCH   5   8
HETATM    8  N   UNL     1      42.355 -14.744   6.298  1.00  0.00    -0.333 N 
HETATM    9  H   UNL     1      41.824 -14.562   7.151  1.00  0.00     0.168 HD
BRANCH   8  10
HETATM   10  C   UNL     1      43.672 -15.076   6.517  1.00  0.00     0.179 C 
HETATM   11  S   UNL     1      44.955 -14.078   6.925  1.00  0.00    -0.040 SA
BRANCH  10  12
HETATM   12  N   UNL     1      43.981 -16.416   6.409  1.00  0.00    -0.299 N 
HETATM   13  C   UNL     1      43.640 -17.477   7.234  1.00  0.00     0.257 C 
HETATM   14  O   UNL     1      43.105 -17.352   8.331  1.00  0.00    -0.267 OA
HETATM   15  H   UNL     1      44.425 -16.624   5.525  1.00  0.00     0.171 HD
BRANCH  13  16
HETATM   16  C   UNL     1      43.945 -18.826   6.682  1.00  0.00     0.035 A 
HETATM   17  C   UNL     1      44.443 -18.993   5.381  1.00  0.00     0.053 A 
HETATM   18  C   UNL     1      44.625 -20.273   4.851  1.00  0.00     0.069 A 
HETATM   19  C   UNL     1      44.340 -21.390   5.637  1.00  0.00     0.037 A 
HETATM   20  C   UNL     1      43.880 -21.227   6.947  1.00  0.00     0.004 A 
HETATM   21  C   UNL     1      43.683 -19.948   7.470  1.00  0.00     0.017 A 
BRANCH  18  22
HETATM   22  O   UNL     1      45.080 -20.290   3.561  1.00  0.00    -0.356 OA
HETATM   23  C   UNL     1      44.579 -21.317   2.714  1.00  0.00     0.210 C 
ENDBRANCH  18  22
ENDBRANCH  13  16
ENDBRANCH  10  12
ENDBRANCH   8  10
ENDBRANCH   5   8
BRANCH   1  24
HETATM   24  N   UNL     1      39.477 -13.557   1.565  1.00  0.00    -0.376 N 
HETATM   25  C   UNL     1      40.171 -13.414   0.268  1.00  0.00     0.143 C 
HETATM   26  C   UNL     1      39.146 -13.488  -0.889  1.00  0.00     0.145 C 
HETATM   27  N   UNL     1      38.014 -12.560  -0.712  1.00  0.00    -0.349 N 
HETATM   28  C   UNL     1      37.243 -12.041  -1.746  1.00  0.00     0.219 C 
HETATM   29  C   UNL     1      37.410 -12.570   0.626  1.00  0.00     0.145 C 
HETATM   30  O   UNL     1      36.249 -11.349  -1.525  1.00  0.00    -0.273 OA
HETATM   31  C   UNL     1      38.446 -12.511   1.754  1.00  0.00     0.143 C 
BRANCH  28  32
HETATM   32  C   UNL     1      37.691 -12.353  -3.167  1.00  0.00     0.103 C 
BRANCH  32  33
HETATM   33  C   UNL     1      36.555 -12.299  -4.192  1.00  0.00     0.005 C 
HETATM   34  C   UNL     1      36.600 -11.054  -5.069  1.00  0.00     0.005 C 
ENDBRANCH  32  33
ENDBRANCH  28  32
ENDBRANCH   1  24
TORSDOF 8
ENDMDL
