MODEL 1
REMARK VINA RESULT:      -8.9      0.000      0.000
REMARK  10 active torsions:
REMARK  status: ('A' for Active; 'I' for Inactive)
REMARK    1  A    between atoms: C_2  and  C_3 
REMARK    2  A    between atoms: C_3  and  O_4 
REMARK    3  A    between atoms: O_4  and  C_5 
REMARK    4  A    between atoms: C_7  and  C_8 
REMARK       I    between atoms: C_8  and  N_9 
REMARK    5  A    between atoms: N_9  and  C_10 
REMARK    6  A    between atoms: C_10  and  N_11 
REMARK    7  A    between atoms: N_11  and  C_12 
REMARK    8  A    between atoms: C_15  and  N_16 
REMARK    9  A    between atoms: N_19  and  C_21 
REMARK   10  A    between atoms: C_21  and  C_22 
ROOT
HETATM    1  C   UNL     1      40.259 -11.687   5.805  1.00  0.00     0.034 A 
HETATM    2  C   UNL     1      41.496 -11.679   5.164  1.00  0.00     0.032 A 
HETATM    3  C   UNL     1      42.078 -12.876   4.725  1.00  0.00     0.031 A 
HETATM    4  C   UNL     1      41.464 -14.120   4.939  1.00  0.00     0.030 A 
HETATM    5  C   UNL     1      40.242 -14.107   5.628  1.00  0.00     0.031 A 
HETATM    6  C   UNL     1      39.648 -12.911   6.061  1.00  0.00     0.032 A 
ENDROOT
BRANCH   1   7
HETATM    7  N   UNL     1      39.731 -10.447   6.213  1.00  0.00    -0.333 N 
HETATM    8  H   UNL     1      39.475  -9.825   5.454  1.00  0.00     0.168 HD
BRANCH   7   9
HETATM    9  C   UNL     1      39.773  -9.839   7.419  1.00  0.00     0.179 C 
HETATM   10  S   UNL     1      38.703  -8.588   7.729  1.00  0.00    -0.040 SA
BRANCH   9  11
HETATM   11  N   UNL     1      40.584 -10.246   8.436  1.00  0.00    -0.299 N 
HETATM   12  C   UNL     1      41.473  -9.487   9.195  1.00  0.00     0.257 C 
HETATM   13  O   UNL     1      41.386  -8.301   9.479  1.00  0.00    -0.267 OA
HETATM   14  H   UNL     1      40.834 -11.221   8.329  1.00  0.00     0.171 HD
BRANCH  12  15
HETATM   15  C   UNL     1      42.595 -10.265   9.781  1.00  0.00     0.035 A 
HETATM   16  C   UNL     1      43.137 -11.372   9.114  1.00  0.00     0.053 A 
HETATM   17  C   UNL     1      44.200 -12.064   9.692  1.00  0.00     0.069 A 
HETATM   18  C   UNL     1      44.695 -11.681  10.939  1.00  0.00     0.037 A 
HETATM   19  C   UNL     1      44.174 -10.564  11.590  1.00  0.00     0.004 A 
HETATM   20  C   UNL     1      43.129  -9.846  11.006  1.00  0.00     0.017 A 
BRANCH  17  21
HETATM   21  O   UNL     1      44.783 -13.163   9.124  1.00  0.00    -0.351 OA
BRANCH  21  22
HETATM   22  C   UNL     1      45.579 -12.868   7.970  1.00  0.00     0.175 C 
BRANCH  22  23
HETATM   23  C   UNL     1      45.093 -13.761   6.832  1.00  0.00     0.022 C 
HETATM   24  C   UNL     1      44.324 -14.965   7.346  1.00  0.00     0.007 C 
ENDBRANCH  22  23
ENDBRANCH  21  22
ENDBRANCH  17  21
ENDBRANCH  12  15
ENDBRANCH   9  11
ENDBRANCH   7   9
ENDBRANCH   1   7
BRANCH   4  25
HETATM   25  N   UNL     1      42.038 -15.283   4.414  1.00  0.00    -0.378 N 
HETATM   26  C   UNL     1      43.349 -15.130   3.757  1.00  0.00     0.150 C 
HETATM   27  C   UNL     1      43.585 -16.302   2.779  1.00  0.00     0.255 C 
HETATM   28  N   UNL     1      43.427 -17.648   3.482  1.00  0.00    -0.064 N 
HETATM   29  H   UNL     1      44.161 -17.704   4.201  1.00  0.00     0.280 HD
HETATM   30  C   UNL     1      42.077 -17.743   4.193  1.00  0.00     0.255 C 
HETATM   31  C   UNL     1      41.865 -16.550   5.145  1.00  0.00     0.150 C 
BRANCH  28  32
HETATM   32  C   UNL     1      43.662 -18.796   2.529  1.00  0.00     0.276 C 
BRANCH  32  33
HETATM   33  C   UNL     1      44.089 -20.066   3.200  1.00  0.00     0.006 A 
HETATM   34  C   UNL     1      44.135 -21.255   2.466  1.00  0.00     0.124 A 
HETATM   35  F   UNL     1      43.834 -21.221   1.160  1.00  0.00    -0.206 F 
HETATM   36  C   UNL     1      44.521 -22.457   3.047  1.00  0.00     0.043 A 
HETATM   37  C   UNL     1      44.871 -22.480   4.396  1.00  0.00     0.003 A 
HETATM   38  C   UNL     1      44.831 -21.305   5.147  1.00  0.00     0.001 A 
HETATM   39  C   UNL     1      44.439 -20.102   4.556  1.00  0.00     0.012 A 
ENDBRANCH  32  33
ENDBRANCH  28  32
ENDBRANCH   4  25
TORSDOF 10
ENDMDL
MODEL 2
REMARK VINA RESULT:      -8.7      5.162      8.779
REMARK  10 active torsions:
REMARK  status: ('A' for Active; 'I' for Inactive)
REMARK    1  A    between atoms: C_2  and  C_3 
REMARK    2  A    between atoms: C_3  and  O_4 
REMARK    3  A    between atoms: O_4  and  C_5 
REMARK    4  A    between atoms: C_7  and  C_8 
REMARK       I    between atoms: C_8  and  N_9 
REMARK    5  A    between atoms: N_9  and  C_10 
REMARK    6  A    between atoms: C_10  and  N_11 
REMARK    7  A    between atoms: N_11  and  C_12 
REMARK    8  A    between atoms: C_15  and  N_16 
REMARK    9  A    between atoms: N_19  and  C_21 
REMARK   10  A    between atoms: C_21  and  C_22 
ROOT
HETATM    1  C   UNL     1      42.141 -15.239   5.535  1.00  0.00     0.034 A 
HETATM    2  C   UNL     1      40.806 -15.106   5.157  1.00  0.00     0.032 A 
HETATM    3  C   UNL     1      40.470 -14.541   3.920  1.00  0.00     0.031 A 
HETATM    4  C   UNL     1      41.447 -14.060   3.035  1.00  0.00     0.030 A 
HETATM    5  C   UNL     1      42.781 -14.161   3.458  1.00  0.00     0.031 A 
HETATM    6  C   UNL     1      43.126 -14.737   4.691  1.00  0.00     0.032 A 
ENDROOT
BRANCH   1   7
HETATM    7  N   UNL     1      42.405 -15.822   6.789  1.00  0.00    -0.333 N 
HETATM    8  H   UNL     1      42.309 -15.191   7.579  1.00  0.00     0.168 HD
BRANCH   7   9
HETATM    9  C   UNL     1      43.030 -16.979   7.096  1.00  0.00     0.179 C 
HETATM   10  S   UNL     1      43.473 -17.261   8.686  1.00  0.00    -0.040 SA
BRANCH   9  11
HETATM   11  N   UNL     1      43.247 -17.976   6.192  1.00  0.00    -0.299 N 
HETATM   12  C   UNL     1      44.450 -18.383   5.618  1.00  0.00     0.257 C 
HETATM   13  O   UNL     1      45.568 -18.320   6.110  1.00  0.00    -0.267 OA
HETATM   14  H   UNL     1      42.426 -18.130   5.621  1.00  0.00     0.171 HD
BRANCH  12  15
HETATM   15  C   UNL     1      44.305 -19.044   4.295  1.00  0.00     0.035 A 
HETATM   16  C   UNL     1      43.869 -18.328   3.172  1.00  0.00     0.053 A 
HETATM   17  C   UNL     1      43.762 -18.983   1.945  1.00  0.00     0.069 A 
HETATM   18  C   UNL     1      44.050 -20.345   1.846  1.00  0.00     0.037 A 
HETATM   19  C   UNL     1      44.508 -21.050   2.958  1.00  0.00     0.004 A 
HETATM   20  C   UNL     1      44.647 -20.397   4.183  1.00  0.00     0.017 A 
BRANCH  17  21
HETATM   21  O   UNL     1      43.333 -18.373   0.799  1.00  0.00    -0.351 OA
BRANCH  21  22
HETATM   22  C   UNL     1      43.046 -16.978   0.954  1.00  0.00     0.175 C 
BRANCH  22  23
HETATM   23  C   UNL     1      41.627 -16.738   0.447  1.00  0.00     0.022 C 
HETATM   24  C   UNL     1      40.583 -17.239   1.428  1.00  0.00     0.007 C 
ENDBRANCH  22  23
ENDBRANCH  21  22
ENDBRANCH  17  21
ENDBRANCH  12  15
ENDBRANCH   9  11
ENDBRANCH   7   9
ENDBRANCH   1   7
BRANCH   4  25
HETATM   25  N   UNL     1      41.075 -13.577   1.776  1.00  0.00    -0.378 N 
HETATM   26  C   UNL     1      39.628 -13.434   1.528  1.00  0.00     0.150 C 
HETATM   27  C   UNL     1      39.353 -13.444   0.009  1.00  0.00     0.255 C 
HETATM   28  N   UNL     1      40.185 -12.385  -0.709  1.00  0.00    -0.064 N 
HETATM   29  H   UNL     1      39.882 -11.467  -0.354  1.00  0.00     0.280 HD
HETATM   30  C   UNL     1      41.670 -12.537  -0.383  1.00  0.00     0.255 C 
HETATM   31  C   UNL     1      41.909 -12.544   1.140  1.00  0.00     0.150 C 
BRANCH  28  32
HETATM   32  C   UNL     1      39.914 -12.388  -2.195  1.00  0.00     0.276 C 
BRANCH  32  33
HETATM   33  C   UNL     1      39.634 -13.747  -2.760  1.00  0.00     0.006 A 
HETATM   34  C   UNL     1      38.352 -14.052  -3.227  1.00  0.00     0.124 A 
HETATM   35  F   UNL     1      37.408 -13.100  -3.195  1.00  0.00    -0.206 F 
HETATM   36  C   UNL     1      38.045 -15.300  -3.755  1.00  0.00     0.043 A 
HETATM   37  C   UNL     1      39.040 -16.275  -3.823  1.00  0.00     0.003 A 
HETATM   38  C   UNL     1      40.326 -15.992  -3.362  1.00  0.00     0.001 A 
HETATM   39  C   UNL     1      40.625 -14.735  -2.829  1.00  0.00     0.012 A 
ENDBRANCH  32  33
ENDBRANCH  28  32
ENDBRANCH   4  25
TORSDOF 10
ENDMDL
MODEL 3
REMARK VINA RESULT:      -8.5      1.392      1.943
REMARK  10 active torsions:
REMARK  status: ('A' for Active; 'I' for Inactive)
REMARK    1  A    between atoms: C_2  and  C_3 
REMARK    2  A    between atoms: C_3  and  O_4 
REMARK    3  A    between atoms: O_4  and  C_5 
REMARK    4  A    between atoms: C_7  and  C_8 
REMARK       I    between atoms: C_8  and  N_9 
REMARK    5  A    between atoms: N_9  and  C_10 
REMARK    6  A    between atoms: C_10  and  N_11 
REMARK    7  A    between atoms: N_11  and  C_12 
REMARK    8  A    between atoms: C_15  and  N_16 
REMARK    9  A    between atoms: N_19  and  C_21 
REMARK   10  A    between atoms: C_21  and  C_22 
ROOT
HETATM    1  C   UNL     1      40.018 -11.668   5.391  1.00  0.00     0.034 A 
HETATM    2  C   UNL     1      41.312 -11.664   4.874  1.00  0.00     0.032 A 
HETATM    3  C   UNL     1      41.927 -12.861   4.486  1.00  0.00     0.031 A 
HETATM    4  C   UNL     1      41.290 -14.103   4.631  1.00  0.00     0.030 A 
HETATM    5  C   UNL     1      40.007 -14.087   5.199  1.00  0.00     0.031 A 
HETATM    6  C   UNL     1      39.379 -12.890   5.579  1.00  0.00     0.032 A 
ENDROOT
BRANCH   1   7
HETATM    7  N   UNL     1      39.460 -10.428   5.754  1.00  0.00    -0.333 N 
HETATM    8  H   UNL     1      38.954  -9.957   5.011  1.00  0.00     0.168 HD
BRANCH   7   9
HETATM    9  C   UNL     1      39.718  -9.635   6.817  1.00  0.00     0.179 C 
HETATM   10  S   UNL     1      39.087  -8.084   6.840  1.00  0.00    -0.040 SA
BRANCH   9  11
HETATM   11  N   UNL     1      40.397 -10.060   7.920  1.00  0.00    -0.299 N 
HETATM   12  C   UNL     1      39.950 -10.885   8.952  1.00  0.00     0.257 C 
HETATM   13  O   UNL     1      39.113 -11.773   8.885  1.00  0.00    -0.267 OA
HETATM   14  H   UNL     1      41.110  -9.392   8.183  1.00  0.00     0.171 HD
BRANCH  12  15
HETATM   15  C   UNL     1      40.660 -10.689  10.242  1.00  0.00     0.035 A 
HETATM   16  C   UNL     1      42.060 -10.695  10.308  1.00  0.00     0.053 A 
HETATM   17  C   UNL     1      42.686 -10.491  11.537  1.00  0.00     0.069 A 
HETATM   18  C   UNL     1      41.926 -10.321  12.695  1.00  0.00     0.037 A 
HETATM   19  C   UNL     1      40.534 -10.289  12.625  1.00  0.00     0.004 A 
HETATM   20  C   UNL     1      39.898 -10.461  11.395  1.00  0.00     0.017 A 
BRANCH  17  21
HETATM   21  O   UNL     1      44.043 -10.495  11.703  1.00  0.00    -0.351 OA
BRANCH  21  22
HETATM   22  C   UNL     1      44.697 -11.633  11.128  1.00  0.00     0.175 C 
BRANCH  22  23
HETATM   23  C   UNL     1      45.655 -11.124  10.055  1.00  0.00     0.022 C 
HETATM   24  C   UNL     1      45.624 -11.992   8.811  1.00  0.00     0.007 C 
ENDBRANCH  22  23
ENDBRANCH  21  22
ENDBRANCH  17  21
ENDBRANCH  12  15
ENDBRANCH   9  11
ENDBRANCH   7   9
ENDBRANCH   1   7
BRANCH   4  25
HETATM   25  N   UNL     1      41.906 -15.266   4.158  1.00  0.00    -0.378 N 
HETATM   26  C   UNL     1      43.263 -15.111   3.602  1.00  0.00     0.150 C 
HETATM   27  C   UNL     1      43.577 -16.286   2.651  1.00  0.00     0.255 C 
HETATM   28  N   UNL     1      43.370 -17.629   3.346  1.00  0.00    -0.064 N 
HETATM   29  H   UNL     1      44.048 -17.679   4.119  1.00  0.00     0.280 HD
HETATM   30  C   UNL     1      41.971 -17.726   3.952  1.00  0.00     0.255 C 
HETATM   31  C   UNL     1      41.682 -16.530   4.880  1.00  0.00     0.150 C 
BRANCH  28  32
HETATM   32  C   UNL     1      43.682 -18.781   2.420  1.00  0.00     0.276 C 
BRANCH  32  33
HETATM   33  C   UNL     1      44.109 -20.032   3.126  1.00  0.00     0.006 A 
HETATM   34  C   UNL     1      44.153 -21.242   2.425  1.00  0.00     0.124 A 
HETATM   35  F   UNL     1      43.849 -21.244   1.119  1.00  0.00    -0.206 F 
HETATM   36  C   UNL     1      44.538 -22.427   3.040  1.00  0.00     0.043 A 
HETATM   37  C   UNL     1      44.891 -22.412   4.388  1.00  0.00     0.003 A 
HETATM   38  C   UNL     1      44.853 -21.216   5.106  1.00  0.00     0.001 A 
HETATM   39  C   UNL     1      44.461 -20.029   4.482  1.00  0.00     0.012 A 
ENDBRANCH  32  33
ENDBRANCH  28  32
ENDBRANCH   4  25
TORSDOF 10
ENDMDL
MODEL 4
REMARK VINA RESULT:      -8.5      4.508     10.076
REMARK  10 active torsions:
REMARK  status: ('A' for Active; 'I' for Inactive)
REMARK    1  A    between atoms: C_2  and  C_3 
REMARK    2  A    between atoms: C_3  and  O_4 
REMARK    3  A    between atoms: O_4  and  C_5 
REMARK    4  A    between atoms: C_7  and  C_8 
REMARK       I    between atoms: C_8  and  N_9 
REMARK    5  A    between atoms: N_9  and  C_10 
REMARK    6  A    between atoms: C_10  and  N_11 
REMARK    7  A    between atoms: N_11  and  C_12 
REMARK    8  A    between atoms: C_15  and  N_16 
REMARK    9  A    between atoms: N_19  and  C_21 
REMARK   10  A    between atoms: C_21  and  C_22 
ROOT
HETATM    1  C   UNL     1      39.979 -13.187   3.358  1.00  0.00     0.034 A 
HETATM    2  C   UNL     1      40.015 -11.795   3.435  1.00  0.00     0.032 A 
HETATM    3  C   UNL     1      40.136 -11.154   4.675  1.00  0.00     0.031 A 
HETATM    4  C   UNL     1      40.191 -11.872   5.879  1.00  0.00     0.030 A 
HETATM    5  C   UNL     1      40.104 -13.269   5.780  1.00  0.00     0.031 A 
HETATM    6  C   UNL     1      39.994 -13.920   4.541  1.00  0.00     0.032 A 
ENDROOT
BRANCH   1   7
HETATM    7  N   UNL     1      39.862 -13.764   2.079  1.00  0.00    -0.333 N 
HETATM    8  H   UNL     1      38.909 -13.929   1.774  1.00  0.00     0.168 HD
BRANCH   7   9
HETATM    9  C   UNL     1      40.789 -14.388   1.320  1.00  0.00     0.179 C 
HETATM   10  S   UNL     1      41.219 -13.709  -0.149  1.00  0.00    -0.040 SA
BRANCH   9  11
HETATM   11  N   UNL     1      41.461 -15.503   1.723  1.00  0.00    -0.299 N 
HETATM   12  C   UNL     1      40.947 -16.674   2.280  1.00  0.00     0.257 C 
HETATM   13  O   UNL     1      39.846 -17.170   2.086  1.00  0.00    -0.267 OA
HETATM   14  H   UNL     1      42.405 -15.273   2.004  1.00  0.00     0.171 HD
BRANCH  12  15
HETATM   15  C   UNL     1      41.910 -17.421   3.130  1.00  0.00     0.035 A 
HETATM   16  C   UNL     1      42.834 -18.312   2.568  1.00  0.00     0.053 A 
HETATM   17  C   UNL     1      43.730 -18.981   3.401  1.00  0.00     0.069 A 
HETATM   18  C   UNL     1      43.684 -18.791   4.783  1.00  0.00     0.037 A 
HETATM   19  C   UNL     1      42.782 -17.883   5.338  1.00  0.00     0.004 A 
HETATM   20  C   UNL     1      41.901 -17.187   4.511  1.00  0.00     0.017 A 
BRANCH  17  21
HETATM   21  O   UNL     1      44.656 -19.879   2.948  1.00  0.00    -0.351 OA
BRANCH  21  22
HETATM   22  C   UNL     1      44.717 -21.088   3.714  1.00  0.00     0.175 C 
BRANCH  22  23
HETATM   23  C   UNL     1      44.497 -22.255   2.756  1.00  0.00     0.022 C 
HETATM   24  C   UNL     1      43.806 -21.815   1.478  1.00  0.00     0.007 C 
ENDBRANCH  22  23
ENDBRANCH  21  22
ENDBRANCH  17  21
ENDBRANCH  12  15
ENDBRANCH   9  11
ENDBRANCH   7   9
ENDBRANCH   1   7
BRANCH   4  25
HETATM   25  N   UNL     1      40.392 -11.198   7.088  1.00  0.00    -0.378 N 
HETATM   26  C   UNL     1      39.431 -11.486   8.168  1.00  0.00     0.150 C 
HETATM   27  C   UNL     1      39.422 -10.323   9.184  1.00  0.00     0.255 C 
HETATM   28  N   UNL     1      40.828 -10.033   9.703  1.00  0.00    -0.064 N 
HETATM   29  H   UNL     1      41.146 -10.871  10.208  1.00  0.00     0.280 HD
HETATM   30  C   UNL     1      41.802  -9.793   8.550  1.00  0.00     0.255 C 
HETATM   31  C   UNL     1      41.772 -10.961   7.544  1.00  0.00     0.150 C 
BRANCH  28  32
HETATM   32  C   UNL     1      40.822  -8.900  10.702  1.00  0.00     0.276 C 
BRANCH  32  33
HETATM   33  C   UNL     1      41.459  -9.242  12.015  1.00  0.00     0.006 A 
HETATM   34  C   UNL     1      40.766 -10.037  12.933  1.00  0.00     0.124 A 
HETATM   35  F   UNL     1      39.558 -10.513  12.596  1.00  0.00    -0.206 F 
HETATM   36  C   UNL     1      41.315 -10.376  14.164  1.00  0.00     0.043 A 
HETATM   37  C   UNL     1      42.587  -9.912  14.494  1.00  0.00     0.003 A 
HETATM   38  C   UNL     1      43.295  -9.116  13.593  1.00  0.00     0.001 A 
HETATM   39  C   UNL     1      42.735  -8.777  12.358  1.00  0.00     0.012 A 
ENDBRANCH  32  33
ENDBRANCH  28  32
ENDBRANCH   4  25
TORSDOF 10
ENDMDL
MODEL 5
REMARK VINA RESULT:      -8.5      4.264      9.785
REMARK  10 active torsions:
REMARK  status: ('A' for Active; 'I' for Inactive)
REMARK    1  A    between atoms: C_2  and  C_3 
REMARK    2  A    between atoms: C_3  and  O_4 
REMARK    3  A    between atoms: O_4  and  C_5 
REMARK    4  A    between atoms: C_7  and  C_8 
REMARK       I    between atoms: C_8  and  N_9 
REMARK    5  A    between atoms: N_9  and  C_10 
REMARK    6  A    between atoms: C_10  and  N_11 
REMARK    7  A    between atoms: N_11  and  C_12 
REMARK    8  A    between atoms: C_15  and  N_16 
REMARK    9  A    between atoms: N_19  and  C_21 
REMARK   10  A    between atoms: C_21  and  C_22 
ROOT
HETATM    1  C   UNL     1      39.923 -13.962   2.968  1.00  0.00     0.034 A 
HETATM    2  C   UNL     1      39.691 -12.589   3.036  1.00  0.00     0.032 A 
HETATM    3  C   UNL     1      39.806 -11.908   4.255  1.00  0.00     0.031 A 
HETATM    4  C   UNL     1      40.124 -12.574   5.449  1.00  0.00     0.030 A 
HETATM    5  C   UNL     1      40.306 -13.963   5.364  1.00  0.00     0.031 A 
HETATM    6  C   UNL     1      40.202 -14.650   4.144  1.00  0.00     0.032 A 
ENDROOT
BRANCH   1   7
HETATM    7  N   UNL     1      39.795 -14.580   1.709  1.00  0.00    -0.333 N 
HETATM    8  H   UNL     1      38.861 -14.914   1.494  1.00  0.00     0.168 HD
BRANCH   7   9
HETATM    9  C   UNL     1      40.744 -15.053   0.872  1.00  0.00     0.179 C 
HETATM   10  S   UNL     1      40.883 -14.378  -0.655  1.00  0.00    -0.040 SA
BRANCH   9  11
HETATM   11  N   UNL     1      41.658 -15.997   1.233  1.00  0.00    -0.299 N 
HETATM   12  C   UNL     1      41.460 -17.360   1.453  1.00  0.00     0.257 C 
HETATM   13  O   UNL     1      40.627 -18.085   0.928  1.00  0.00    -0.267 OA
HETATM   14  H   UNL     1      42.415 -15.583   1.761  1.00  0.00     0.171 HD
BRANCH  12  15
HETATM   15  C   UNL     1      42.449 -17.981   2.371  1.00  0.00     0.035 A 
HETATM   16  C   UNL     1      42.755 -17.400   3.609  1.00  0.00     0.053 A 
HETATM   17  C   UNL     1      43.678 -18.025   4.447  1.00  0.00     0.069 A 
HETATM   18  C   UNL     1      44.317 -19.197   4.040  1.00  0.00     0.037 A 
HETATM   19  C   UNL     1      43.993 -19.789   2.820  1.00  0.00     0.004 A 
HETATM   20  C   UNL     1      43.049 -19.188   1.987  1.00  0.00     0.017 A 
BRANCH  17  21
HETATM   21  O   UNL     1      44.050 -17.527   5.664  1.00  0.00    -0.351 OA
BRANCH  21  22
HETATM   22  C   UNL     1      43.233 -16.444   6.124  1.00  0.00     0.175 C 
BRANCH  22  23
HETATM   23  C   UNL     1      44.047 -15.651   7.144  1.00  0.00     0.022 C 
HETATM   24  C   UNL     1      44.537 -14.332   6.575  1.00  0.00     0.007 C 
ENDBRANCH  22  23
ENDBRANCH  21  22
ENDBRANCH  17  21
ENDBRANCH  12  15
ENDBRANCH   9  11
ENDBRANCH   7   9
ENDBRANCH   1   7
BRANCH   4  25
HETATM   25  N   UNL     1      40.309 -11.846   6.629  1.00  0.00    -0.378 N 
HETATM   26  C   UNL     1      39.412 -12.177   7.753  1.00  0.00     0.150 C 
HETATM   27  C   UNL     1      39.340 -10.987   8.733  1.00  0.00     0.255 C 
HETATM   28  N   UNL     1      40.733 -10.562   9.190  1.00  0.00    -0.064 N 
HETATM   29  H   UNL     1      41.138 -11.354   9.708  1.00  0.00     0.280 HD
HETATM   30  C   UNL     1      41.643 -10.280   7.995  1.00  0.00     0.255 C 
HETATM   31  C   UNL     1      41.678 -11.479   7.027  1.00  0.00     0.150 C 
BRANCH  28  32
HETATM   32  C   UNL     1      40.665  -9.402  10.154  1.00  0.00     0.276 C 
BRANCH  32  33
HETATM   33  C   UNL     1      41.412  -9.628  11.434  1.00  0.00     0.006 A 
HETATM   34  C   UNL     1      40.703  -9.847  12.619  1.00  0.00     0.124 A 
HETATM   35  F   UNL     1      39.363  -9.891  12.573  1.00  0.00    -0.206 F 
HETATM   36  C   UNL     1      41.352 -10.057  13.829  1.00  0.00     0.043 A 
HETATM   37  C   UNL     1      42.745 -10.050  13.866  1.00  0.00     0.003 A 
HETATM   38  C   UNL     1      43.472  -9.832  12.695  1.00  0.00     0.001 A 
HETATM   39  C   UNL     1      42.812  -9.618  11.482  1.00  0.00     0.012 A 
ENDBRANCH  32  33
ENDBRANCH  28  32
ENDBRANCH   4  25
TORSDOF 10
ENDMDL
MODEL 6
REMARK VINA RESULT:      -8.2      2.131      3.304
REMARK  10 active torsions:
REMARK  status: ('A' for Active; 'I' for Inactive)
REMARK    1  A    between atoms: C_2  and  C_3 
REMARK    2  A    between atoms: C_3  and  O_4 
REMARK    3  A    between atoms: O_4  and  C_5 
REMARK    4  A    between atoms: C_7  and  C_8 
REMARK       I    between atoms: C_8  and  N_9 
REMARK    5  A    between atoms: N_9  and  C_10 
REMARK    6  A    between atoms: C_10  and  N_11 
REMARK    7  A    between atoms: N_11  and  C_12 
REMARK    8  A    between atoms: C_15  and  N_16 
REMARK    9  A    between atoms: N_19  and  C_21 
REMARK   10  A    between atoms: C_21  and  C_22 
ROOT
HETATM    1  C   UNL     1      40.439 -11.786   4.552  1.00  0.00     0.034 A 
HETATM    2  C   UNL     1      41.749 -12.082   4.924  1.00  0.00     0.032 A 
HETATM    3  C   UNL     1      42.312 -13.327   4.616  1.00  0.00     0.031 A 
HETATM    4  C   UNL     1      41.582 -14.328   3.958  1.00  0.00     0.030 A 
HETATM    5  C   UNL     1      40.251 -14.025   3.635  1.00  0.00     0.031 A 
HETATM    6  C   UNL     1      39.683 -12.775   3.931  1.00  0.00     0.032 A 
ENDROOT
BRANCH   1   7
HETATM    7  N   UNL     1      39.940 -10.513   4.888  1.00  0.00    -0.333 N 
HETATM    8  H   UNL     1      39.294 -10.118   4.212  1.00  0.00     0.168 HD
BRANCH   7   9
HETATM    9  C   UNL     1      40.383  -9.618   5.798  1.00  0.00     0.179 C 
HETATM   10  S   UNL     1      40.792  -8.078   5.282  1.00  0.00    -0.040 SA
BRANCH   9  11
HETATM   11  N   UNL     1      40.435  -9.873   7.136  1.00  0.00    -0.299 N 
HETATM   12  C   UNL     1      39.631 -10.725   7.891  1.00  0.00     0.257 C 
HETATM   13  O   UNL     1      39.078 -11.751   7.519  1.00  0.00    -0.267 OA
HETATM   14  H   UNL     1      40.811  -9.080   7.640  1.00  0.00     0.171 HD
BRANCH  12  15
HETATM   15  C   UNL     1      39.529 -10.358   9.327  1.00  0.00     0.035 A 
HETATM   16  C   UNL     1      40.521 -10.734  10.243  1.00  0.00     0.053 A 
HETATM   17  C   UNL     1      40.394 -10.355  11.579  1.00  0.00     0.069 A 
HETATM   18  C   UNL     1      39.274  -9.641  12.006  1.00  0.00     0.037 A 
HETATM   19  C   UNL     1      38.301  -9.244  11.088  1.00  0.00     0.004 A 
HETATM   20  C   UNL     1      38.433  -9.593   9.744  1.00  0.00     0.017 A 
BRANCH  17  21
HETATM   21  O   UNL     1      41.301 -10.687  12.547  1.00  0.00    -0.351 OA
BRANCH  21  22
HETATM   22  C   UNL     1      42.658 -10.712  12.089  1.00  0.00     0.175 C 
BRANCH  22  23
HETATM   23  C   UNL     1      43.482  -9.845  13.037  1.00  0.00     0.022 C 
HETATM   24  C   UNL     1      42.706  -9.481  14.290  1.00  0.00     0.007 C 
ENDBRANCH  22  23
ENDBRANCH  21  22
ENDBRANCH  17  21
ENDBRANCH  12  15
ENDBRANCH   9  11
ENDBRANCH   7   9
ENDBRANCH   1   7
BRANCH   4  25
HETATM   25  N   UNL     1      42.206 -15.527   3.597  1.00  0.00    -0.378 N 
HETATM   26  C   UNL     1      43.531 -15.413   2.959  1.00  0.00     0.150 C 
HETATM   27  C   UNL     1      43.830 -16.687   2.141  1.00  0.00     0.255 C 
HETATM   28  N   UNL     1      43.692 -17.941   3.001  1.00  0.00    -0.064 N 
HETATM   29  H   UNL     1      44.406 -17.883   3.740  1.00  0.00     0.280 HD
HETATM   30  C   UNL     1      42.326 -17.992   3.684  1.00  0.00     0.255 C 
HETATM   31  C   UNL     1      42.049 -16.699   4.475  1.00  0.00     0.150 C 
BRANCH  28  32
HETATM   32  C   UNL     1      43.990 -19.189   2.205  1.00  0.00     0.276 C 
BRANCH  32  33
HETATM   33  C   UNL     1      44.321 -20.384   3.047  1.00  0.00     0.006 A 
HETATM   34  C   UNL     1      44.324 -21.658   2.470  1.00  0.00     0.124 A 
HETATM   35  F   UNL     1      44.070 -21.775   1.159  1.00  0.00    -0.206 F 
HETATM   36  C   UNL     1      44.622 -22.794   3.213  1.00  0.00     0.043 A 
HETATM   37  C   UNL     1      44.924 -22.663   4.567  1.00  0.00     0.003 A 
HETATM   38  C   UNL     1      44.925 -21.402   5.163  1.00  0.00     0.001 A 
HETATM   39  C   UNL     1      44.622 -20.264   4.410  1.00  0.00     0.012 A 
ENDBRANCH  32  33
ENDBRANCH  28  32
ENDBRANCH   4  25
TORSDOF 10
ENDMDL
MODEL 7
REMARK VINA RESULT:      -8.0      1.893      3.356
REMARK  10 active torsions:
REMARK  status: ('A' for Active; 'I' for Inactive)
REMARK    1  A    between atoms: C_2  and  C_3 
REMARK    2  A    between atoms: C_3  and  O_4 
REMARK    3  A    between atoms: O_4  and  C_5 
REMARK    4  A    between atoms: C_7  and  C_8 
REMARK       I    between atoms: C_8  and  N_9 
REMARK    5  A    between atoms: N_9  and  C_10 
REMARK    6  A    between atoms: C_10  and  N_11 
REMARK    7  A    between atoms: N_11  and  C_12 
REMARK    8  A    between atoms: C_15  and  N_16 
REMARK    9  A    between atoms: N_19  and  C_21 
REMARK   10  A    between atoms: C_21  and  C_22 
ROOT
HETATM    1  C   UNL     1      39.787 -11.713   5.300  1.00  0.00     0.034 A 
HETATM    2  C   UNL     1      41.135 -11.723   4.943  1.00  0.00     0.032 A 
HETATM    3  C   UNL     1      41.849 -12.928   4.895  1.00  0.00     0.031 A 
HETATM    4  C   UNL     1      41.256 -14.154   5.231  1.00  0.00     0.030 A 
HETATM    5  C   UNL     1      39.913 -14.113   5.634  1.00  0.00     0.031 A 
HETATM    6  C   UNL     1      39.188 -12.911   5.674  1.00  0.00     0.032 A 
ENDROOT
BRANCH   1   7
HETATM    7  N   UNL     1      39.131 -10.468   5.322  1.00  0.00    -0.333 N 
HETATM    8  H   UNL     1      38.610 -10.249   4.479  1.00  0.00     0.168 HD
BRANCH   7   9
HETATM    9  C   UNL     1      39.305  -9.407   6.140  1.00  0.00     0.179 C 
HETATM   10  S   UNL     1      38.629  -7.936   5.710  1.00  0.00    -0.040 SA
BRANCH   9  11
HETATM   11  N   UNL     1      39.932  -9.487   7.347  1.00  0.00    -0.299 N 
HETATM   12  C   UNL     1      41.252  -9.169   7.665  1.00  0.00     0.257 C 
HETATM   13  O   UNL     1      41.964  -8.330   7.130  1.00  0.00    -0.267 OA
HETATM   14  H   UNL     1      39.514 -10.206   7.924  1.00  0.00     0.171 HD
BRANCH  12  15
HETATM   15  C   UNL     1      41.788  -9.890   8.848  1.00  0.00     0.035 A 
HETATM   16  C   UNL     1      41.207  -9.739  10.114  1.00  0.00     0.053 A 
HETATM   17  C   UNL     1      41.731 -10.447  11.194  1.00  0.00     0.069 A 
HETATM   18  C   UNL     1      42.847 -11.269  11.023  1.00  0.00     0.037 A 
HETATM   19  C   UNL     1      43.408 -11.438   9.758  1.00  0.00     0.004 A 
HETATM   20  C   UNL     1      42.872 -10.758   8.665  1.00  0.00     0.017 A 
BRANCH  17  21
HETATM   21  O   UNL     1      41.242 -10.354  12.467  1.00  0.00    -0.351 OA
BRANCH  21  22
HETATM   22  C   UNL     1      41.214  -9.018  12.983  1.00  0.00     0.175 C 
BRANCH  22  23
HETATM   23  C   UNL     1      42.525  -8.783  13.730  1.00  0.00     0.022 C 
HETATM   24  C   UNL     1      42.467  -9.306  15.153  1.00  0.00     0.007 C 
ENDBRANCH  22  23
ENDBRANCH  21  22
ENDBRANCH  17  21
ENDBRANCH  12  15
ENDBRANCH   9  11
ENDBRANCH   7   9
ENDBRANCH   1   7
BRANCH   4  25
HETATM   25  N   UNL     1      41.981 -15.343   5.093  1.00  0.00    -0.378 N 
HETATM   26  C   UNL     1      41.712 -16.396   6.090  1.00  0.00     0.150 C 
HETATM   27  C   UNL     1      42.912 -17.365   6.164  1.00  0.00     0.255 C 
HETATM   28  N   UNL     1      43.255 -17.926   4.787  1.00  0.00    -0.064 N 
HETATM   29  H   UNL     1      42.444 -18.475   4.471  1.00  0.00     0.280 HD
HETATM   30  C   UNL     1      43.473 -16.803   3.774  1.00  0.00     0.255 C 
HETATM   31  C   UNL     1      42.268 -15.843   3.738  1.00  0.00     0.150 C 
BRANCH  28  32
HETATM   32  C   UNL     1      44.425 -18.878   4.857  1.00  0.00     0.276 C 
BRANCH  32  33
HETATM   33  C   UNL     1      44.347 -20.013   3.880  1.00  0.00     0.006 A 
HETATM   34  C   UNL     1      44.684 -21.306   4.293  1.00  0.00     0.124 A 
HETATM   35  F   UNL     1      45.031 -21.507   5.572  1.00  0.00    -0.206 F 
HETATM   36  C   UNL     1      44.630 -22.387   3.421  1.00  0.00     0.043 A 
HETATM   37  C   UNL     1      44.230 -22.179   2.102  1.00  0.00     0.003 A 
HETATM   38  C   UNL     1      43.890 -20.897   1.670  1.00  0.00     0.001 A 
HETATM   39  C   UNL     1      43.950 -19.815   2.551  1.00  0.00     0.012 A 
ENDBRANCH  32  33
ENDBRANCH  28  32
ENDBRANCH   4  25
TORSDOF 10
ENDMDL
MODEL 8
REMARK VINA RESULT:      -8.0      4.535      9.974
REMARK  10 active torsions:
REMARK  status: ('A' for Active; 'I' for Inactive)
REMARK    1  A    between atoms: C_2  and  C_3 
REMARK    2  A    between atoms: C_3  and  O_4 
REMARK    3  A    between atoms: O_4  and  C_5 
REMARK    4  A    between atoms: C_7  and  C_8 
REMARK       I    between atoms: C_8  and  N_9 
REMARK    5  A    between atoms: N_9  and  C_10 
REMARK    6  A    between atoms: C_10  and  N_11 
REMARK    7  A    between atoms: N_11  and  C_12 
REMARK    8  A    between atoms: C_15  and  N_16 
REMARK    9  A    between atoms: N_19  and  C_21 
REMARK   10  A    between atoms: C_21  and  C_22 
ROOT
HETATM    1  C   UNL     1      39.403 -12.763   3.216  1.00  0.00     0.034 A 
HETATM    2  C   UNL     1      40.478 -13.175   4.001  1.00  0.00     0.032 A 
HETATM    3  C   UNL     1      40.779 -12.513   5.199  1.00  0.00     0.031 A 
HETATM    4  C   UNL     1      40.042 -11.402   5.637  1.00  0.00     0.030 A 
HETATM    5  C   UNL     1      38.994 -10.977   4.807  1.00  0.00     0.031 A 
HETATM    6  C   UNL     1      38.680 -11.642   3.611  1.00  0.00     0.032 A 
ENDROOT
BRANCH   1   7
HETATM    7  N   UNL     1      39.155 -13.478   2.029  1.00  0.00    -0.333 N 
HETATM    8  H   UNL     1      38.294 -14.015   2.029  1.00  0.00     0.168 HD
BRANCH   7   9
HETATM    9  C   UNL     1      39.989 -13.796   1.015  1.00  0.00     0.179 C 
HETATM   10  S   UNL     1      40.234 -12.680  -0.210  1.00  0.00    -0.040 SA
BRANCH   9  11
HETATM   11  N   UNL     1      40.715 -14.949   0.976  1.00  0.00    -0.299 N 
HETATM   12  C   UNL     1      40.525 -16.122   1.706  1.00  0.00     0.257 C 
HETATM   13  O   UNL     1      39.470 -16.570   2.132  1.00  0.00    -0.267 OA
HETATM   14  H   UNL     1      41.672 -14.763   0.704  1.00  0.00     0.171 HD
BRANCH  12  15
HETATM   15  C   UNL     1      41.755 -16.934   1.890  1.00  0.00     0.035 A 
HETATM   16  C   UNL     1      42.038 -17.554   3.114  1.00  0.00     0.053 A 
HETATM   17  C   UNL     1      43.196 -18.321   3.239  1.00  0.00     0.069 A 
HETATM   18  C   UNL     1      44.082 -18.439   2.167  1.00  0.00     0.037 A 
HETATM   19  C   UNL     1      43.787 -17.843   0.942  1.00  0.00     0.004 A 
HETATM   20  C   UNL     1      42.616 -17.098   0.797  1.00  0.00     0.017 A 
BRANCH  17  21
HETATM   21  O   UNL     1      43.563 -18.951   4.395  1.00  0.00    -0.351 OA
BRANCH  21  22
HETATM   22  C   UNL     1      44.120 -18.076   5.383  1.00  0.00     0.175 C 
BRANCH  22  23
HETATM   23  C   UNL     1      44.559 -18.934   6.567  1.00  0.00     0.022 C 
HETATM   24  C   UNL     1      43.774 -20.230   6.648  1.00  0.00     0.007 C 
ENDBRANCH  22  23
ENDBRANCH  21  22
ENDBRANCH  17  21
ENDBRANCH  12  15
ENDBRANCH   9  11
ENDBRANCH   7   9
ENDBRANCH   1   7
BRANCH   4  25
HETATM   25  N   UNL     1      40.324 -10.820   6.878  1.00  0.00    -0.378 N 
HETATM   26  C   UNL     1      39.307 -10.996   7.932  1.00  0.00     0.150 C 
HETATM   27  C   UNL     1      39.462  -9.891   8.999  1.00  0.00     0.255 C 
HETATM   28  N   UNL     1      40.886  -9.849   9.548  1.00  0.00    -0.064 N 
HETATM   29  H   UNL     1      41.058 -10.748  10.019  1.00  0.00     0.280 HD
HETATM   30  C   UNL     1      41.908  -9.719   8.419  1.00  0.00     0.255 C 
HETATM   31  C   UNL     1      41.714 -10.823   7.362  1.00  0.00     0.150 C 
BRANCH  28  32
HETATM   32  C   UNL     1      41.039  -8.773  10.596  1.00  0.00     0.276 C 
BRANCH  32  33
HETATM   33  C   UNL     1      41.591  -9.266  11.900  1.00  0.00     0.006 A 
HETATM   34  C   UNL     1      40.779 -10.018  12.754  1.00  0.00     0.124 A 
HETATM   35  F   UNL     1      39.531 -10.318  12.364  1.00  0.00    -0.206 F 
HETATM   36  C   UNL     1      41.246 -10.493  13.974  1.00  0.00     0.043 A 
HETATM   37  C   UNL     1      42.556 -10.212  14.358  1.00  0.00     0.003 A 
HETATM   38  C   UNL     1      43.383  -9.462  13.521  1.00  0.00     0.001 A 
HETATM   39  C   UNL     1      42.904  -8.985  12.297  1.00  0.00     0.012 A 
ENDBRANCH  32  33
ENDBRANCH  28  32
ENDBRANCH   4  25
TORSDOF 10
ENDMDL
MODEL 9
REMARK VINA RESULT:      -7.8      2.212      3.321
REMARK  10 active torsions:
REMARK  status: ('A' for Active; 'I' for Inactive)
REMARK    1  A    between atoms: C_2  and  C_3 
REMARK    2  A    between atoms: C_3  and  O_4 
REMARK    3  A    between atoms: O_4  and  C_5 
REMARK    4  A    between atoms: C_7  and  C_8 
REMARK       I    between atoms: C_8  and  N_9 
REMARK    5  A    between atoms: N_9  and  C_10 
REMARK    6  A    between atoms: C_10  and  N_11 
REMARK    7  A    between atoms: N_11  and  C_12 
REMARK    8  A    between atoms: C_15  and  N_16 
REMARK    9  A    between atoms: N_19  and  C_21 
REMARK   10  A    between atoms: C_21  and  C_22 
ROOT
HETATM    1  C   UNL     1      39.814 -11.780   2.625  1.00  0.00     0.034 A 
HETATM    2  C   UNL     1      39.097 -12.971   2.714  1.00  0.00     0.032 A 
HETATM    3  C   UNL     1      39.746 -14.205   2.571  1.00  0.00     0.031 A 
HETATM    4  C   UNL     1      41.120 -14.292   2.302  1.00  0.00     0.030 A 
HETATM    5  C   UNL     1      41.812 -13.079   2.169  1.00  0.00     0.031 A 
HETATM    6  C   UNL     1      41.170 -11.839   2.322  1.00  0.00     0.032 A 
ENDROOT
BRANCH   1   7
HETATM    7  N   UNL     1      39.098 -10.578   2.785  1.00  0.00    -0.333 N 
HETATM    8  H   UNL     1      38.464 -10.357   2.024  1.00  0.00     0.168 HD
BRANCH   7   9
HETATM    9  C   UNL     1      39.315  -9.542   3.624  1.00  0.00     0.179 C 
HETATM   10  S   UNL     1      38.691  -8.039   3.229  1.00  0.00    -0.040 SA
BRANCH   9  11
HETATM   11  N   UNL     1      39.945  -9.670   4.826  1.00  0.00    -0.299 N 
HETATM   12  C   UNL     1      39.557 -10.419   5.935  1.00  0.00     0.257 C 
HETATM   13  O   UNL     1      38.910 -11.457   5.943  1.00  0.00    -0.267 OA
HETATM   14  H   UNL     1      40.493  -8.845   5.036  1.00  0.00     0.171 HD
BRANCH  12  15
HETATM   15  C   UNL     1      40.084  -9.914   7.229  1.00  0.00     0.035 A 
HETATM   16  C   UNL     1      41.369 -10.257   7.673  1.00  0.00     0.053 A 
HETATM   17  C   UNL     1      41.830  -9.748   8.886  1.00  0.00     0.069 A 
HETATM   18  C   UNL     1      41.008  -8.936   9.668  1.00  0.00     0.037 A 
HETATM   19  C   UNL     1      39.740  -8.574   9.214  1.00  0.00     0.004 A 
HETATM   20  C   UNL     1      39.280  -9.054   7.987  1.00  0.00     0.017 A 
BRANCH  17  21
HETATM   21  O   UNL     1      43.061 -10.037   9.407  1.00  0.00    -0.351 OA
BRANCH  21  22
HETATM   22  C   UNL     1      43.029 -10.976  10.488  1.00  0.00     0.175 C 
BRANCH  22  23
HETATM   23  C   UNL     1      44.342 -10.845  11.254  1.00  0.00     0.022 C 
HETATM   24  C   UNL     1      45.543 -11.138  10.373  1.00  0.00     0.007 C 
ENDBRANCH  22  23
ENDBRANCH  21  22
ENDBRANCH  17  21
ENDBRANCH  12  15
ENDBRANCH   9  11
ENDBRANCH   7   9
ENDBRANCH   1   7
BRANCH   4  25
HETATM   25  N   UNL     1      41.745 -15.542   2.246  1.00  0.00    -0.378 N 
HETATM   26  C   UNL     1      43.050 -15.656   2.923  1.00  0.00     0.150 C 
HETATM   27  C   UNL     1      43.846 -16.840   2.332  1.00  0.00     0.255 C 
HETATM   28  N   UNL     1      43.035 -18.132   2.387  1.00  0.00    -0.064 N 
HETATM   29  H   UNL     1      42.870 -18.346   3.380  1.00  0.00     0.280 HD
HETATM   30  C   UNL     1      41.671 -17.955   1.722  1.00  0.00     0.255 C 
HETATM   31  C   UNL     1      40.911 -16.754   2.320  1.00  0.00     0.150 C 
BRANCH  28  32
HETATM   32  C   UNL     1      43.813 -19.293   1.815  1.00  0.00     0.276 C 
BRANCH  32  33
HETATM   33  C   UNL     1      44.182 -20.336   2.826  1.00  0.00     0.006 A 
HETATM   34  C   UNL     1      44.333 -21.667   2.424  1.00  0.00     0.124 A 
HETATM   35  F   UNL     1      44.185 -21.972   1.127  1.00  0.00    -0.206 F 
HETATM   36  C   UNL     1      44.671 -22.668   3.327  1.00  0.00     0.043 A 
HETATM   37  C   UNL     1      44.863 -22.340   4.668  1.00  0.00     0.003 A 
HETATM   38  C   UNL     1      44.715 -21.018   5.091  1.00  0.00     0.001 A 
HETATM   39  C   UNL     1      44.373 -20.018   4.177  1.00  0.00     0.012 A 
ENDBRANCH  32  33
ENDBRANCH  28  32
ENDBRANCH   4  25
TORSDOF 10
ENDMDL
MODEL 10
REMARK VINA RESULT:      -7.8      5.737      8.123
REMARK  10 active torsions:
REMARK  status: ('A' for Active; 'I' for Inactive)
REMARK    1  A    between atoms: C_2  and  C_3 
REMARK    2  A    between atoms: C_3  and  O_4 
REMARK    3  A    between atoms: O_4  and  C_5 
REMARK    4  A    between atoms: C_7  and  C_8 
REMARK       I    between atoms: C_8  and  N_9 
REMARK    5  A    between atoms: N_9  and  C_10 
REMARK    6  A    between atoms: C_10  and  N_11 
REMARK    7  A    between atoms: N_11  and  C_12 
REMARK    8  A    between atoms: C_15  and  N_16 
REMARK    9  A    between atoms: N_19  and  C_21 
REMARK   10  A    between atoms: C_21  and  C_22 
ROOT
HETATM    1  C   UNL     1      38.667 -12.361   2.024  1.00  0.00     0.034 A 
HETATM    2  C   UNL     1      39.848 -12.371   2.766  1.00  0.00     0.032 A 
HETATM    3  C   UNL     1      40.644 -13.522   2.819  1.00  0.00     0.031 A 
HETATM    4  C   UNL     1      40.277 -14.708   2.166  1.00  0.00     0.030 A 
HETATM    5  C   UNL     1      39.062 -14.689   1.466  1.00  0.00     0.031 A 
HETATM    6  C   UNL     1      38.263 -13.536   1.399  1.00  0.00     0.032 A 
ENDROOT
BRANCH   1   7
HETATM    7  N   UNL     1      37.920 -11.168   2.010  1.00  0.00    -0.333 N 
HETATM    8  H   UNL     1      37.178 -11.124   2.701  1.00  0.00     0.168 HD
BRANCH   7   9
HETATM    9  C   UNL     1      37.834 -10.207   1.065  1.00  0.00     0.179 C 
HETATM   10  S   UNL     1      36.993  -8.802   1.417  1.00  0.00    -0.040 SA
BRANCH   9  11
HETATM   11  N   UNL     1      38.472 -10.279  -0.138  1.00  0.00    -0.299 N 
HETATM   12  C   UNL     1      38.082 -10.964  -1.288  1.00  0.00     0.257 C 
HETATM   13  O   UNL     1      36.943 -11.213  -1.656  1.00  0.00    -0.267 OA
HETATM   14  H   UNL     1      39.471 -10.166  -0.024  1.00  0.00     0.171 HD
BRANCH  12  15
HETATM   15  C   UNL     1      39.204 -11.340  -2.186  1.00  0.00     0.035 A 
HETATM   16  C   UNL     1      39.358 -12.656  -2.642  1.00  0.00     0.053 A 
HETATM   17  C   UNL     1      40.417 -12.963  -3.496  1.00  0.00     0.069 A 
HETATM   18  C   UNL     1      41.334 -11.977  -3.864  1.00  0.00     0.037 A 
HETATM   19  C   UNL     1      41.165 -10.662  -3.431  1.00  0.00     0.004 A 
HETATM   20  C   UNL     1      40.092 -10.338  -2.600  1.00  0.00     0.017 A 
BRANCH  17  21
HETATM   21  O   UNL     1      40.657 -14.218  -3.980  1.00  0.00    -0.351 OA
BRANCH  21  22
HETATM   22  C   UNL     1      40.904 -15.197  -2.963  1.00  0.00     0.175 C 
BRANCH  22  23
HETATM   23  C   UNL     1      40.073 -16.432  -3.298  1.00  0.00     0.022 C 
HETATM   24  C   UNL     1      38.952 -16.114  -4.271  1.00  0.00     0.007 C 
ENDBRANCH  22  23
ENDBRANCH  21  22
ENDBRANCH  17  21
ENDBRANCH  12  15
ENDBRANCH   9  11
ENDBRANCH   7   9
ENDBRANCH   1   7
BRANCH   4  25
HETATM   25  N   UNL     1      41.140 -15.810   2.178  1.00  0.00    -0.378 N 
HETATM   26  C   UNL     1      42.181 -15.818   3.222  1.00  0.00     0.150 C 
HETATM   27  C   UNL     1      43.346 -16.735   2.793  1.00  0.00     0.255 C 
HETATM   28  N   UNL     1      42.847 -18.134   2.442  1.00  0.00    -0.064 N 
HETATM   29  H   UNL     1      42.446 -18.539   3.299  1.00  0.00     0.280 HD
HETATM   30  C   UNL     1      41.734 -18.076   1.396  1.00  0.00     0.255 C 
HETATM   31  C   UNL     1      40.597 -17.137   1.845  1.00  0.00     0.150 C 
BRANCH  28  32
HETATM   32  C   UNL     1      43.986 -19.036   2.027  1.00  0.00     0.276 C 
BRANCH  32  33
HETATM   33  C   UNL     1      44.270 -20.144   2.996  1.00  0.00     0.006 A 
HETATM   34  C   UNL     1      44.317 -21.465   2.542  1.00  0.00     0.124 A 
HETATM   35  F   UNL     1      44.148 -21.706   1.233  1.00  0.00    -0.206 F 
HETATM   36  C   UNL     1      44.573 -22.524   3.404  1.00  0.00     0.043 A 
HETATM   37  C   UNL     1      44.787 -22.265   4.757  1.00  0.00     0.003 A 
HETATM   38  C   UNL     1      44.743 -20.954   5.232  1.00  0.00     0.001 A 
HETATM   39  C   UNL     1      44.482 -19.895   4.358  1.00  0.00     0.012 A 
ENDBRANCH  32  33
ENDBRANCH  28  32
ENDBRANCH   4  25
TORSDOF 10
ENDMDL
