MODEL 1
REMARK VINA RESULT:      -8.9      0.000      0.000
REMARK  8 active torsions:
REMARK  status: ('A' for Active; 'I' for Inactive)
REMARK    1  A    between atoms: C_2  and  O_3 
REMARK    2  A    between atoms: O_3  and  C_4 
REMARK    3  A    between atoms: C_5  and  C_6 
REMARK    4  A    between atoms: C_6  and  N_7 
REMARK    5  A    between atoms: C_9  and  C_10 
REMARK    6  A    between atoms: C_10  and  C_11 
REMARK       I    between atoms: C_11  and  N_12 
REMARK    7  A    between atoms: N_12  and  C_13 
REMARK    8  A    between atoms: C_13  and  C_14 
ROOT
HETATM    1  N   UNL     1      41.444 -14.331   5.280  1.00  0.00    -0.052 N 
HETATM    2  H   UNL     1      42.370 -13.972   5.553  1.00  0.00     0.281 HD
HETATM    3  C   UNL     1      41.719 -14.639   3.793  1.00  0.00     0.288 C 
HETATM    4  C   UNL     1      42.211 -13.384   3.040  1.00  0.00     0.249 C 
HETATM    5  O   UNL     1      42.719 -13.447   1.926  1.00  0.00    -0.271 OA
HETATM    6  N   UNL     1      42.135 -12.186   3.705  1.00  0.00    -0.358 N 
HETATM    7  C   UNL     1      41.211 -11.890   4.795  1.00  0.00     0.150 C 
HETATM    8  C   UNL     1      40.601 -13.105   5.519  1.00  0.00     0.256 C 
HETATM    9  H   UNL     1      42.447 -11.403   3.135  1.00  0.00     0.162 HD
ENDROOT
BRANCH   3  10
HETATM   10  C   UNL     1      40.644 -15.377   2.993  1.00  0.00     0.145 C 
BRANCH  10  11
HETATM   11  C   UNL     1      41.177 -16.357   1.977  1.00  0.00     0.220 C 
HETATM   12  N   UNL     1      42.544 -16.390   1.887  1.00  0.00    -0.355 N 
HETATM   13  H   UNL     1      43.110 -15.683   2.344  1.00  0.00     0.162 HD
HETATM   14  O   UNL     1      40.444 -17.079   1.309  1.00  0.00    -0.274 OA
BRANCH  12  15
HETATM   15  C   UNL     1      43.242 -17.339   1.051  1.00  0.00     0.179 C 
BRANCH  15  16
HETATM   16  C   UNL     1      43.689 -18.471   1.891  1.00  0.00     0.028 A 
HETATM   17  N   UNL     1      43.728 -19.762   1.418  1.00  0.00    -0.357 N 
HETATM   18  H   UNL     1      43.488 -20.043   0.475  1.00  0.00     0.166 HD
HETATM   19  C   UNL     1      44.113 -20.630   2.414  1.00  0.00     0.043 A 
HETATM   20  C   UNL     1      44.327 -19.866   3.562  1.00  0.00    -0.005 A 
HETATM   21  C   UNL     1      44.273 -22.021   2.389  1.00  0.00     0.033 A 
HETATM   22  C   UNL     1      44.069 -18.511   3.218  1.00  0.00     0.040 A 
HETATM   23  C   UNL     1      44.712 -20.515   4.748  1.00  0.00     0.056 A 
HETATM   24  C   UNL     1      44.868 -21.900   4.732  1.00  0.00     0.117 A 
HETATM   25  C   UNL     1      44.657 -22.646   3.579  1.00  0.00     0.044 A 
HETATM   26  F   UNL     1      45.227 -22.529   5.860  1.00  0.00    -0.206 F 
ENDBRANCH  15  16
ENDBRANCH  12  15
ENDBRANCH  10  11
ENDBRANCH   3  10
BRANCH   1  27
HETATM   27  C   UNL     1      41.291 -15.476   6.252  1.00  0.00     0.277 C 
BRANCH  27  28
HETATM   28  C   UNL     1      42.442 -16.401   6.550  1.00  0.00     0.001 A 
HETATM   29  C   UNL     1      43.734 -15.848   6.682  1.00  0.00     0.076 A 
HETATM   30  C   UNL     1      44.845 -16.666   6.907  1.00  0.00     0.037 A 
HETATM   31  C   UNL     1      44.677 -18.036   7.087  1.00  0.00     0.003 A 
HETATM   32  C   UNL     1      43.400 -18.583   7.062  1.00  0.00     0.001 A 
HETATM   33  C   UNL     1      42.290 -17.770   6.811  1.00  0.00     0.012 A 
BRANCH  29  34
HETATM   34  O   UNL     1      43.831 -14.484   6.563  1.00  0.00    -0.351 OA
BRANCH  34  35
HETATM   35  C   UNL     1      45.064 -13.917   7.030  1.00  0.00     0.171 C 
HETATM   36  C   UNL     1      44.749 -13.040   8.228  1.00  0.00     0.034 C 
ENDBRANCH  34  35
ENDBRANCH  29  34
ENDBRANCH  27  28
ENDBRANCH   1  27
TORSDOF 8
ENDMDL
MODEL 2
REMARK VINA RESULT:      -8.6      3.966      6.907
REMARK  8 active torsions:
REMARK  status: ('A' for Active; 'I' for Inactive)
REMARK    1  A    between atoms: C_2  and  O_3 
REMARK    2  A    between atoms: O_3  and  C_4 
REMARK    3  A    between atoms: C_5  and  C_6 
REMARK    4  A    between atoms: C_6  and  N_7 
REMARK    5  A    between atoms: C_9  and  C_10 
REMARK    6  A    between atoms: C_10  and  C_11 
REMARK       I    between atoms: C_11  and  N_12 
REMARK    7  A    between atoms: N_12  and  C_13 
REMARK    8  A    between atoms: C_13  and  C_14 
ROOT
HETATM    1  N   UNL     1      42.678 -17.357   2.564  1.00  0.00    -0.052 N 
HETATM    2  H   UNL     1      42.165 -18.093   3.069  1.00  0.00     0.281 HD
HETATM    3  C   UNL     1      42.678 -16.257   3.645  1.00  0.00     0.288 C 
HETATM    4  C   UNL     1      41.241 -15.903   4.086  1.00  0.00     0.249 C 
HETATM    5  O   UNL     1      41.010 -15.244   5.094  1.00  0.00    -0.271 OA
HETATM    6  N   UNL     1      40.212 -16.430   3.346  1.00  0.00    -0.358 N 
HETATM    7  C   UNL     1      40.311 -16.844   1.950  1.00  0.00     0.150 C 
HETATM    8  C   UNL     1      41.732 -17.110   1.418  1.00  0.00     0.256 C 
HETATM    9  H   UNL     1      39.298 -16.128   3.677  1.00  0.00     0.162 HD
ENDROOT
BRANCH   3  10
HETATM   10  C   UNL     1      43.506 -14.995   3.398  1.00  0.00     0.145 C 
BRANCH  10  11
HETATM   11  C   UNL     1      42.716 -13.813   2.890  1.00  0.00     0.220 C 
HETATM   12  N   UNL     1      42.345 -13.906   1.575  1.00  0.00    -0.355 N 
HETATM   13  H   UNL     1      42.732 -14.628   0.977  1.00  0.00     0.162 HD
HETATM   14  O   UNL     1      42.415 -12.864   3.607  1.00  0.00    -0.274 OA
BRANCH  12  15
HETATM   15  C   UNL     1      41.494 -12.927   0.940  1.00  0.00     0.179 C 
BRANCH  15  16
HETATM   16  C   UNL     1      40.884 -13.536  -0.262  1.00  0.00     0.028 A 
HETATM   17  N   UNL     1      39.564 -13.337  -0.593  1.00  0.00    -0.357 N 
HETATM   18  H   UNL     1      38.918 -12.752  -0.079  1.00  0.00     0.166 HD
HETATM   19  C   UNL     1      39.232 -14.066  -1.712  1.00  0.00     0.043 A 
HETATM   20  C   UNL     1      40.380 -14.755  -2.107  1.00  0.00    -0.005 A 
HETATM   21  C   UNL     1      38.011 -14.177  -2.389  1.00  0.00     0.033 A 
HETATM   22  C   UNL     1      41.413 -14.405  -1.196  1.00  0.00     0.040 A 
HETATM   23  C   UNL     1      40.311 -15.605  -3.226  1.00  0.00     0.056 A 
HETATM   24  C   UNL     1      39.098 -15.724  -3.901  1.00  0.00     0.117 A 
HETATM   25  C   UNL     1      37.966 -15.026  -3.499  1.00  0.00     0.044 A 
HETATM   26  F   UNL     1      39.021 -16.536  -4.964  1.00  0.00    -0.206 F 
ENDBRANCH  15  16
ENDBRANCH  12  15
ENDBRANCH  10  11
ENDBRANCH   3  10
BRANCH   1  27
HETATM   27  C   UNL     1      43.967 -18.080   2.251  1.00  0.00     0.277 C 
BRANCH  27  28
HETATM   28  C   UNL     1      44.134 -19.543   2.571  1.00  0.00     0.001 A 
HETATM   29  C   UNL     1      44.576 -19.905   3.862  1.00  0.00     0.076 A 
HETATM   30  C   UNL     1      44.796 -21.245   4.196  1.00  0.00     0.037 A 
HETATM   31  C   UNL     1      44.501 -22.249   3.278  1.00  0.00     0.003 A 
HETATM   32  C   UNL     1      43.969 -21.916   2.039  1.00  0.00     0.001 A 
HETATM   33  C   UNL     1      43.772 -20.575   1.693  1.00  0.00     0.012 A 
BRANCH  29  34
HETATM   34  O   UNL     1      44.786 -18.877   4.747  1.00  0.00    -0.351 OA
BRANCH  34  35
HETATM   35  C   UNL     1      44.062 -18.979   5.983  1.00  0.00     0.171 C 
HETATM   36  C   UNL     1      44.749 -18.087   7.000  1.00  0.00     0.034 C 
ENDBRANCH  34  35
ENDBRANCH  29  34
ENDBRANCH  27  28
ENDBRANCH   1  27
TORSDOF 8
ENDMDL
MODEL 3
REMARK VINA RESULT:      -8.6      3.808      8.136
REMARK  8 active torsions:
REMARK  status: ('A' for Active; 'I' for Inactive)
REMARK    1  A    between atoms: C_2  and  O_3 
REMARK    2  A    between atoms: O_3  and  C_4 
REMARK    3  A    between atoms: C_5  and  C_6 
REMARK    4  A    between atoms: C_6  and  N_7 
REMARK    5  A    between atoms: C_9  and  C_10 
REMARK    6  A    between atoms: C_10  and  C_11 
REMARK       I    between atoms: C_11  and  N_12 
REMARK    7  A    between atoms: N_12  and  C_13 
REMARK    8  A    between atoms: C_13  and  C_14 
ROOT
HETATM    1  N   UNL     1      42.686 -16.764   3.298  1.00  0.00    -0.052 N 
HETATM    2  H   UNL     1      42.027 -17.556   3.283  1.00  0.00     0.281 HD
HETATM    3  C   UNL     1      42.463 -16.275   4.745  1.00  0.00     0.288 C 
HETATM    4  C   UNL     1      40.981 -15.929   4.999  1.00  0.00     0.249 C 
HETATM    5  O   UNL     1      40.533 -15.759   6.128  1.00  0.00    -0.271 OA
HETATM    6  N   UNL     1      40.148 -15.901   3.908  1.00  0.00    -0.358 N 
HETATM    7  C   UNL     1      40.578 -15.662   2.534  1.00  0.00     0.150 C 
HETATM    8  C   UNL     1      42.073 -15.886   2.239  1.00  0.00     0.256 C 
HETATM    9  H   UNL     1      39.196 -15.636   4.149  1.00  0.00     0.162 HD
ENDROOT
BRANCH   3  10
HETATM   10  C   UNL     1      43.386 -15.185   5.292  1.00  0.00     0.145 C 
BRANCH  10  11
HETATM   11  C   UNL     1      42.869 -13.777   5.120  1.00  0.00     0.220 C 
HETATM   12  N   UNL     1      42.315 -13.237   6.250  1.00  0.00    -0.355 N 
HETATM   13  H   UNL     1      42.123 -13.816   7.060  1.00  0.00     0.162 HD
HETATM   14  O   UNL     1      42.962 -13.165   4.061  1.00  0.00    -0.274 OA
BRANCH  12  15
HETATM   15  C   UNL     1      41.865 -11.866   6.313  1.00  0.00     0.179 C 
BRANCH  15  16
HETATM   16  C   UNL     1      42.256 -11.297   7.621  1.00  0.00     0.028 A 
HETATM   17  N   UNL     1      43.345 -11.759   8.323  1.00  0.00    -0.357 N 
HETATM   18  H   UNL     1      43.974 -12.488   8.008  1.00  0.00     0.166 HD
HETATM   19  C   UNL     1      43.449 -11.112   9.533  1.00  0.00     0.043 A 
HETATM   20  C   UNL     1      42.390 -10.206   9.605  1.00  0.00    -0.005 A 
HETATM   21  C   UNL     1      44.383 -11.268  10.564  1.00  0.00     0.033 A 
HETATM   22  C   UNL     1      41.655 -10.323   8.394  1.00  0.00     0.040 A 
HETATM   23  C   UNL     1      42.245  -9.420  10.762  1.00  0.00     0.056 A 
HETATM   24  C   UNL     1      43.168  -9.575  11.794  1.00  0.00     0.117 A 
HETATM   25  C   UNL     1      44.222 -10.476  11.704  1.00  0.00     0.044 A 
HETATM   26  F   UNL     1      43.034  -8.836  12.904  1.00  0.00    -0.206 F 
ENDBRANCH  15  16
ENDBRANCH  12  15
ENDBRANCH  10  11
ENDBRANCH   3  10
BRANCH   1  27
HETATM   27  C   UNL     1      43.976 -17.469   2.951  1.00  0.00     0.277 C 
BRANCH  27  28
HETATM   28  C   UNL     1      44.044 -18.971   2.874  1.00  0.00     0.001 A 
HETATM   29  C   UNL     1      44.537 -19.682   3.990  1.00  0.00     0.076 A 
HETATM   30  C   UNL     1      44.669 -21.073   3.954  1.00  0.00     0.037 A 
HETATM   31  C   UNL     1      44.235 -21.785   2.840  1.00  0.00     0.003 A 
HETATM   32  C   UNL     1      43.653 -21.111   1.774  1.00  0.00     0.001 A 
HETATM   33  C   UNL     1      43.544 -19.717   1.797  1.00  0.00     0.012 A 
BRANCH  29  34
HETATM   34  O   UNL     1      44.886 -18.933   5.087  1.00  0.00    -0.351 OA
BRANCH  34  35
HETATM   35  C   UNL     1      44.147 -19.222   6.283  1.00  0.00     0.171 C 
HETATM   36  C   UNL     1      44.532 -18.191   7.328  1.00  0.00     0.034 C 
ENDBRANCH  34  35
ENDBRANCH  29  34
ENDBRANCH  27  28
ENDBRANCH   1  27
TORSDOF 8
ENDMDL
MODEL 4
REMARK VINA RESULT:      -8.5      2.241      5.367
REMARK  8 active torsions:
REMARK  status: ('A' for Active; 'I' for Inactive)
REMARK    1  A    between atoms: C_2  and  O_3 
REMARK    2  A    between atoms: O_3  and  C_4 
REMARK    3  A    between atoms: C_5  and  C_6 
REMARK    4  A    between atoms: C_6  and  N_7 
REMARK    5  A    between atoms: C_9  and  C_10 
REMARK    6  A    between atoms: C_10  and  C_11 
REMARK       I    between atoms: C_11  and  N_12 
REMARK    7  A    between atoms: N_12  and  C_13 
REMARK    8  A    between atoms: C_13  and  C_14 
ROOT
HETATM    1  N   UNL     1      41.477 -13.543   3.922  1.00  0.00    -0.052 N 
HETATM    2  H   UNL     1      40.880 -14.187   3.384  1.00  0.00     0.281 HD
HETATM    3  C   UNL     1      41.961 -14.507   5.026  1.00  0.00     0.288 C 
HETATM    4  C   UNL     1      40.772 -15.129   5.789  1.00  0.00     0.249 C 
HETATM    5  O   UNL     1      40.906 -16.096   6.532  1.00  0.00    -0.271 OA
HETATM    6  N   UNL     1      39.527 -14.608   5.541  1.00  0.00    -0.358 N 
HETATM    7  C   UNL     1      39.267 -13.257   5.053  1.00  0.00     0.150 C 
HETATM    8  C   UNL     1      40.449 -12.539   4.374  1.00  0.00     0.256 C 
HETATM    9  H   UNL     1      38.801 -15.046   6.103  1.00  0.00     0.162 HD
ENDROOT
BRANCH   3  10
HETATM   10  C   UNL     1      43.044 -14.021   5.990  1.00  0.00     0.145 C 
BRANCH  10  11
HETATM   11  C   UNL     1      43.822 -15.121   6.670  1.00  0.00     0.220 C 
HETATM   12  N   UNL     1      43.864 -16.298   5.969  1.00  0.00    -0.355 N 
HETATM   13  H   UNL     1      43.269 -16.440   5.160  1.00  0.00     0.162 HD
HETATM   14  O   UNL     1      44.387 -14.962   7.747  1.00  0.00    -0.274 OA
BRANCH  12  15
HETATM   15  C   UNL     1      44.649 -17.430   6.404  1.00  0.00     0.179 C 
BRANCH  15  16
HETATM   16  C   UNL     1      44.488 -18.524   5.422  1.00  0.00     0.028 A 
HETATM   17  N   UNL     1      44.780 -19.832   5.730  1.00  0.00    -0.357 N 
HETATM   18  H   UNL     1      45.096 -20.160   6.634  1.00  0.00     0.166 HD
HETATM   19  C   UNL     1      44.611 -20.637   4.626  1.00  0.00     0.043 A 
HETATM   20  C   UNL     1      44.196 -19.814   3.578  1.00  0.00    -0.005 A 
HETATM   21  C   UNL     1      44.804 -22.016   4.474  1.00  0.00     0.033 A 
HETATM   22  C   UNL     1      44.111 -18.491   4.094  1.00  0.00     0.040 A 
HETATM   23  C   UNL     1      43.969 -20.385   2.314  1.00  0.00     0.056 A 
HETATM   24  C   UNL     1      44.165 -21.755   2.155  1.00  0.00     0.117 A 
HETATM   25  C   UNL     1      44.571 -22.563   3.209  1.00  0.00     0.044 A 
HETATM   26  F   UNL     1      43.958 -22.307   0.951  1.00  0.00    -0.206 F 
ENDBRANCH  15  16
ENDBRANCH  12  15
ENDBRANCH  10  11
ENDBRANCH   3  10
BRANCH   1  27
HETATM   27  C   UNL     1      42.448 -13.105   2.851  1.00  0.00     0.277 C 
BRANCH  27  28
HETATM   28  C   UNL     1      42.076 -13.167   1.393  1.00  0.00     0.001 A 
HETATM   29  C   UNL     1      41.763 -14.423   0.830  1.00  0.00     0.076 A 
HETATM   30  C   UNL     1      41.461 -14.545  -0.530  1.00  0.00     0.037 A 
HETATM   31  C   UNL     1      41.385 -13.410  -1.331  1.00  0.00     0.003 A 
HETATM   32  C   UNL     1      41.590 -12.155  -0.771  1.00  0.00     0.001 A 
HETATM   33  C   UNL     1      41.918 -12.033   0.583  1.00  0.00     0.012 A 
BRANCH  29  34
HETATM   34  O   UNL     1      41.788 -15.499   1.683  1.00  0.00    -0.351 OA
BRANCH  34  35
HETATM   35  C   UNL     1      42.404 -16.682   1.154  1.00  0.00     0.171 C 
HETATM   36  C   UNL     1      41.383 -17.804   1.208  1.00  0.00     0.034 C 
ENDBRANCH  34  35
ENDBRANCH  29  34
ENDBRANCH  27  28
ENDBRANCH   1  27
TORSDOF 8
ENDMDL
MODEL 5
REMARK VINA RESULT:      -8.5      3.634      6.430
REMARK  8 active torsions:
REMARK  status: ('A' for Active; 'I' for Inactive)
REMARK    1  A    between atoms: C_2  and  O_3 
REMARK    2  A    between atoms: O_3  and  C_4 
REMARK    3  A    between atoms: C_5  and  C_6 
REMARK    4  A    between atoms: C_6  and  N_7 
REMARK    5  A    between atoms: C_9  and  C_10 
REMARK    6  A    between atoms: C_10  and  C_11 
REMARK       I    between atoms: C_11  and  N_12 
REMARK    7  A    between atoms: N_12  and  C_13 
REMARK    8  A    between atoms: C_13  and  C_14 
ROOT
HETATM    1  N   UNL     1      43.181 -16.477   5.712  1.00  0.00    -0.052 N 
HETATM    2  H   UNL     1      44.039 -16.499   5.143  1.00  0.00     0.281 HD
HETATM    3  C   UNL     1      42.439 -15.320   5.010  1.00  0.00     0.288 C 
HETATM    4  C   UNL     1      43.285 -14.029   5.009  1.00  0.00     0.249 C 
HETATM    5  O   UNL     1      43.008 -13.066   4.302  1.00  0.00    -0.271 OA
HETATM    6  N   UNL     1      44.425 -14.026   5.774  1.00  0.00    -0.358 N 
HETATM    7  C   UNL     1      44.651 -14.873   6.941  1.00  0.00     0.150 C 
HETATM    8  C   UNL     1      43.761 -16.125   7.057  1.00  0.00     0.256 C 
HETATM    9  H   UNL     1      44.912 -13.133   5.747  1.00  0.00     0.162 HD
ENDROOT
BRANCH   3  10
HETATM   10  C   UNL     1      40.993 -15.032   5.418  1.00  0.00     0.145 C 
BRANCH  10  11
HETATM   11  C   UNL     1      40.095 -14.597   4.286  1.00  0.00     0.220 C 
HETATM   12  N   UNL     1      40.040 -15.479   3.239  1.00  0.00    -0.355 N 
HETATM   13  H   UNL     1      40.690 -16.255   3.181  1.00  0.00     0.162 HD
HETATM   14  O   UNL     1      39.452 -13.553   4.317  1.00  0.00    -0.274 OA
BRANCH  12  15
HETATM   15  C   UNL     1      39.153 -15.291   2.114  1.00  0.00     0.179 C 
BRANCH  15  16
HETATM   16  C   UNL     1      39.891 -14.594   1.039  1.00  0.00     0.028 A 
HETATM   17  N   UNL     1      40.070 -15.151  -0.206  1.00  0.00    -0.357 N 
HETATM   18  H   UNL     1      39.702 -16.047  -0.500  1.00  0.00     0.166 HD
HETATM   19  C   UNL     1      40.846 -14.332  -0.994  1.00  0.00     0.043 A 
HETATM   20  C   UNL     1      41.173 -13.214  -0.225  1.00  0.00    -0.005 A 
HETATM   21  C   UNL     1      41.289 -14.500  -2.312  1.00  0.00     0.033 A 
HETATM   22  C   UNL     1      40.559 -13.385   1.045  1.00  0.00     0.040 A 
HETATM   23  C   UNL     1      41.989 -12.217  -0.789  1.00  0.00     0.056 A 
HETATM   24  C   UNL     1      42.437 -12.381  -2.098  1.00  0.00     0.117 A 
HETATM   25  C   UNL     1      42.097 -13.497  -2.853  1.00  0.00     0.044 A 
HETATM   26  F   UNL     1      43.221 -11.439  -2.641  1.00  0.00    -0.206 F 
ENDBRANCH  15  16
ENDBRANCH  12  15
ENDBRANCH  10  11
ENDBRANCH   3  10
BRANCH   1  27
HETATM   27  C   UNL     1      42.685 -17.891   5.522  1.00  0.00     0.277 C 
BRANCH  27  28
HETATM   28  C   UNL     1      43.418 -18.857   4.629  1.00  0.00     0.001 A 
HETATM   29  C   UNL     1      43.116 -18.865   3.250  1.00  0.00     0.076 A 
HETATM   30  C   UNL     1      43.729 -19.775   2.385  1.00  0.00     0.037 A 
HETATM   31  C   UNL     1      44.713 -20.636   2.864  1.00  0.00     0.003 A 
HETATM   32  C   UNL     1      45.096 -20.573   4.198  1.00  0.00     0.001 A 
HETATM   33  C   UNL     1      44.465 -19.680   5.070  1.00  0.00     0.012 A 
BRANCH  29  34
HETATM   34  O   UNL     1      42.187 -17.948   2.823  1.00  0.00    -0.351 OA
BRANCH  34  35
HETATM   35  C   UNL     1      42.315 -17.545   1.451  1.00  0.00     0.171 C 
HETATM   36  C   UNL     1      43.145 -16.275   1.414  1.00  0.00     0.034 C 
ENDBRANCH  34  35
ENDBRANCH  29  34
ENDBRANCH  27  28
ENDBRANCH   1  27
TORSDOF 8
ENDMDL
MODEL 6
REMARK VINA RESULT:      -8.3      3.334      6.533
REMARK  8 active torsions:
REMARK  status: ('A' for Active; 'I' for Inactive)
REMARK    1  A    between atoms: C_2  and  O_3 
REMARK    2  A    between atoms: O_3  and  C_4 
REMARK    3  A    between atoms: C_5  and  C_6 
REMARK    4  A    between atoms: C_6  and  N_7 
REMARK    5  A    between atoms: C_9  and  C_10 
REMARK    6  A    between atoms: C_10  and  C_11 
REMARK       I    between atoms: C_11  and  N_12 
REMARK    7  A    between atoms: N_12  and  C_13 
REMARK    8  A    between atoms: C_13  and  C_14 
ROOT
HETATM    1  N   UNL     1      41.087 -13.244   0.980  1.00  0.00    -0.052 N 
HETATM    2  H   UNL     1      41.124 -13.917   0.202  1.00  0.00     0.281 HD
HETATM    3  C   UNL     1      41.327 -14.208   2.162  1.00  0.00     0.288 C 
HETATM    4  C   UNL     1      40.274 -15.336   2.189  1.00  0.00     0.249 C 
HETATM    5  O   UNL     1      40.409 -16.340   2.880  1.00  0.00    -0.271 OA
HETATM    6  N   UNL     1      39.204 -15.215   1.338  1.00  0.00    -0.358 N 
HETATM    7  C   UNL     1      38.697 -13.954   0.805  1.00  0.00     0.150 C 
HETATM    8  C   UNL     1      39.668 -12.758   0.847  1.00  0.00     0.256 C 
HETATM    9  H   UNL     1      38.538 -15.978   1.436  1.00  0.00     0.162 HD
ENDROOT
BRANCH   3  10
HETATM   10  C   UNL     1      41.534 -13.611   3.555  1.00  0.00     0.145 C 
BRANCH  10  11
HETATM   11  C   UNL     1      42.705 -14.182   4.317  1.00  0.00     0.220 C 
HETATM   12  N   UNL     1      42.449 -15.380   4.930  1.00  0.00    -0.355 N 
HETATM   13  H   UNL     1      41.502 -15.736   4.996  1.00  0.00     0.162 HD
HETATM   14  O   UNL     1      43.798 -13.627   4.360  1.00  0.00    -0.274 OA
BRANCH  12  15
HETATM   15  C   UNL     1      43.474 -16.134   5.614  1.00  0.00     0.179 C 
BRANCH  15  16
HETATM   16  C   UNL     1      43.724 -17.384   4.864  1.00  0.00     0.028 A 
HETATM   17  N   UNL     1      43.131 -17.638   3.649  1.00  0.00    -0.357 N 
HETATM   18  H   UNL     1      42.512 -17.004   3.159  1.00  0.00     0.166 HD
HETATM   19  C   UNL     1      43.474 -18.892   3.198  1.00  0.00     0.043 A 
HETATM   20  C   UNL     1      44.315 -19.457   4.158  1.00  0.00    -0.005 A 
HETATM   21  C   UNL     1      43.098 -19.568   2.030  1.00  0.00     0.033 A 
HETATM   22  C   UNL     1      44.473 -18.496   5.194  1.00  0.00     0.040 A 
HETATM   23  C   UNL     1      44.799 -20.761   3.955  1.00  0.00     0.056 A 
HETATM   24  C   UNL     1      44.424 -21.441   2.798  1.00  0.00     0.117 A 
HETATM   25  C   UNL     1      43.592 -20.862   1.847  1.00  0.00     0.044 A 
HETATM   26  F   UNL     1      44.875 -22.687   2.599  1.00  0.00    -0.206 F 
ENDBRANCH  15  16
ENDBRANCH  12  15
ENDBRANCH  10  11
ENDBRANCH   3  10
BRANCH   1  27
HETATM   27  C   UNL     1      42.186 -12.290   0.575  1.00  0.00     0.277 C 
BRANCH  27  28
HETATM   28  C   UNL     1      42.279 -11.767  -0.834  1.00  0.00     0.001 A 
HETATM   29  C   UNL     1      42.119 -12.676  -1.903  1.00  0.00     0.076 A 
HETATM   30  C   UNL     1      42.247 -12.254  -3.229  1.00  0.00     0.037 A 
HETATM   31  C   UNL     1      42.453 -10.907  -3.515  1.00  0.00     0.003 A 
HETATM   32  C   UNL     1      42.511  -9.983  -2.479  1.00  0.00     0.001 A 
HETATM   33  C   UNL     1      42.409 -10.407  -1.150  1.00  0.00     0.012 A 
BRANCH  29  34
HETATM   34  O   UNL     1      41.850 -13.979  -1.563  1.00  0.00    -0.351 OA
BRANCH  34  35
HETATM   35  C   UNL     1      40.667 -14.533  -2.158  1.00  0.00     0.171 C 
HETATM   36  C   UNL     1      41.078 -15.750  -2.965  1.00  0.00     0.034 C 
ENDBRANCH  34  35
ENDBRANCH  29  34
ENDBRANCH  27  28
ENDBRANCH   1  27
TORSDOF 8
ENDMDL
MODEL 7
REMARK VINA RESULT:      -8.3      2.255      4.148
REMARK  8 active torsions:
REMARK  status: ('A' for Active; 'I' for Inactive)
REMARK    1  A    between atoms: C_2  and  O_3 
REMARK    2  A    between atoms: O_3  and  C_4 
REMARK    3  A    between atoms: C_5  and  C_6 
REMARK    4  A    between atoms: C_6  and  N_7 
REMARK    5  A    between atoms: C_9  and  C_10 
REMARK    6  A    between atoms: C_10  and  C_11 
REMARK       I    between atoms: C_11  and  N_12 
REMARK    7  A    between atoms: N_12  and  C_13 
REMARK    8  A    between atoms: C_13  and  C_14 
ROOT
HETATM    1  N   UNL     1      42.380 -13.454   6.383  1.00  0.00    -0.052 N 
HETATM    2  H   UNL     1      42.206 -13.633   7.382  1.00  0.00     0.281 HD
HETATM    3  C   UNL     1      41.390 -14.464   5.766  1.00  0.00     0.288 C 
HETATM    4  C   UNL     1      41.673 -15.899   6.257  1.00  0.00     0.249 C 
HETATM    5  O   UNL     1      40.873 -16.815   6.096  1.00  0.00    -0.271 OA
HETATM    6  N   UNL     1      42.831 -16.102   6.965  1.00  0.00    -0.358 N 
HETATM    7  C   UNL     1      44.026 -15.270   6.871  1.00  0.00     0.150 C 
HETATM    8  C   UNL     1      43.828 -13.858   6.287  1.00  0.00     0.256 C 
HETATM    9  H   UNL     1      42.964 -17.076   7.227  1.00  0.00     0.162 HD
ENDROOT
BRANCH   3  10
HETATM   10  C   UNL     1      41.168 -14.431   4.253  1.00  0.00     0.145 C 
BRANCH  10  11
HETATM   11  C   UNL     1      42.322 -14.959   3.436  1.00  0.00     0.220 C 
HETATM   12  N   UNL     1      42.066 -16.144   2.797  1.00  0.00    -0.355 N 
HETATM   13  H   UNL     1      41.234 -16.680   3.016  1.00  0.00     0.162 HD
HETATM   14  O   UNL     1      43.389 -14.361   3.337  1.00  0.00    -0.274 OA
BRANCH  12  15
HETATM   15  C   UNL     1      43.007 -16.750   1.884  1.00  0.00     0.179 C 
BRANCH  15  16
HETATM   16  C   UNL     1      43.506 -18.007   2.482  1.00  0.00     0.028 A 
HETATM   17  N   UNL     1      43.563 -19.183   1.772  1.00  0.00    -0.357 N 
HETATM   18  H   UNL     1      43.303 -19.288   0.799  1.00  0.00     0.166 HD
HETATM   19  C   UNL     1      43.999 -20.212   2.576  1.00  0.00     0.043 A 
HETATM   20  C   UNL     1      44.227 -19.673   3.843  1.00  0.00    -0.005 A 
HETATM   21  C   UNL     1      44.193 -21.568   2.284  1.00  0.00     0.033 A 
HETATM   22  C   UNL     1      43.926 -18.286   3.768  1.00  0.00     0.040 A 
HETATM   23  C   UNL     1      44.662 -20.523   4.875  1.00  0.00     0.056 A 
HETATM   24  C   UNL     1      44.852 -21.874   4.592  1.00  0.00     0.117 A 
HETATM   25  C   UNL     1      44.627 -22.394   3.323  1.00  0.00     0.044 A 
HETATM   26  F   UNL     1      45.260 -22.693   5.571  1.00  0.00    -0.206 F 
ENDBRANCH  15  16
ENDBRANCH  12  15
ENDBRANCH  10  11
ENDBRANCH   3  10
BRANCH   1  27
HETATM   27  C   UNL     1      42.068 -11.978   6.307  1.00  0.00     0.277 C 
BRANCH  27  28
HETATM   28  C   UNL     1      41.350 -11.278   7.431  1.00  0.00     0.001 A 
HETATM   29  C   UNL     1      42.107 -10.810   8.528  1.00  0.00     0.076 A 
HETATM   30  C   UNL     1      41.485 -10.199   9.621  1.00  0.00     0.037 A 
HETATM   31  C   UNL     1      40.113  -9.970   9.602  1.00  0.00     0.003 A 
HETATM   32  C   UNL     1      39.367 -10.331   8.487  1.00  0.00     0.001 A 
HETATM   33  C   UNL     1      39.983 -10.966   7.403  1.00  0.00     0.012 A 
BRANCH  29  34
HETATM   34  O   UNL     1      43.464 -11.003   8.460  1.00  0.00    -0.351 OA
BRANCH  34  35
HETATM   35  C   UNL     1      44.044 -11.659   9.598  1.00  0.00     0.171 C 
HETATM   36  C   UNL     1      45.297 -10.896   9.987  1.00  0.00     0.034 C 
ENDBRANCH  34  35
ENDBRANCH  29  34
ENDBRANCH  27  28
ENDBRANCH   1  27
TORSDOF 8
ENDMDL
MODEL 8
REMARK VINA RESULT:      -8.3      3.907      8.492
REMARK  8 active torsions:
REMARK  status: ('A' for Active; 'I' for Inactive)
REMARK    1  A    between atoms: C_2  and  O_3 
REMARK    2  A    between atoms: O_3  and  C_4 
REMARK    3  A    between atoms: C_5  and  C_6 
REMARK    4  A    between atoms: C_6  and  N_7 
REMARK    5  A    between atoms: C_9  and  C_10 
REMARK    6  A    between atoms: C_10  and  C_11 
REMARK       I    between atoms: C_11  and  N_12 
REMARK    7  A    between atoms: N_12  and  C_13 
REMARK    8  A    between atoms: C_13  and  C_14 
ROOT
HETATM    1  N   UNL     1      42.375 -17.005   5.762  1.00  0.00    -0.052 N 
HETATM    2  H   UNL     1      43.370 -17.233   5.628  1.00  0.00     0.281 HD
HETATM    3  C   UNL     1      42.448 -15.467   5.656  1.00  0.00     0.288 C 
HETATM    4  C   UNL     1      43.426 -14.879   6.696  1.00  0.00     0.249 C 
HETATM    5  O   UNL     1      43.826 -13.721   6.636  1.00  0.00    -0.271 OA
HETATM    6  N   UNL     1      43.905 -15.732   7.658  1.00  0.00    -0.358 N 
HETATM    7  C   UNL     1      43.234 -16.948   8.108  1.00  0.00     0.150 C 
HETATM    8  C   UNL     1      42.168 -17.527   7.160  1.00  0.00     0.256 C 
HETATM    9  H   UNL     1      44.517 -15.266   8.324  1.00  0.00     0.162 HD
ENDROOT
BRANCH   3  10
HETATM   10  C   UNL     1      41.138 -14.679   5.622  1.00  0.00     0.145 C 
BRANCH  10  11
HETATM   11  C   UNL     1      41.305 -13.188   5.456  1.00  0.00     0.220 C 
HETATM   12  N   UNL     1      40.970 -12.456   6.565  1.00  0.00    -0.355 N 
HETATM   13  H   UNL     1      40.489 -12.889   7.345  1.00  0.00     0.162 HD
HETATM   14  O   UNL     1      41.728 -12.682   4.422  1.00  0.00    -0.274 OA
BRANCH  12  15
HETATM   15  C   UNL     1      41.165 -11.026   6.637  1.00  0.00     0.179 C 
BRANCH  15  16
HETATM   16  C   UNL     1      41.782 -10.697   7.940  1.00  0.00     0.028 A 
HETATM   17  N   UNL     1      42.891 -11.360   8.412  1.00  0.00    -0.357 N 
HETATM   18  H   UNL     1      43.387 -12.090   7.917  1.00  0.00     0.166 HD
HETATM   19  C   UNL     1      43.222 -10.911   9.670  1.00  0.00     0.043 A 
HETATM   20  C   UNL     1      42.291  -9.928  10.013  1.00  0.00    -0.005 A 
HETATM   21  C   UNL     1      44.256 -11.306  10.529  1.00  0.00     0.033 A 
HETATM   22  C   UNL     1      41.400  -9.795   8.913  1.00  0.00     0.040 A 
HETATM   23  C   UNL     1      42.386  -9.312  11.273  1.00  0.00     0.056 A 
HETATM   24  C   UNL     1      43.409  -9.704  12.133  1.00  0.00     0.117 A 
HETATM   25  C   UNL     1      44.332 -10.679  11.775  1.00  0.00     0.044 A 
HETATM   26  F   UNL     1      43.503  -9.128  13.339  1.00  0.00    -0.206 F 
ENDBRANCH  15  16
ENDBRANCH  12  15
ENDBRANCH  10  11
ENDBRANCH   3  10
BRANCH   1  27
HETATM   27  C   UNL     1      41.754 -17.791   4.631  1.00  0.00     0.277 C 
BRANCH  27  28
HETATM   28  C   UNL     1      42.358 -17.774   3.252  1.00  0.00     0.001 A 
HETATM   29  C   UNL     1      43.486 -18.583   2.998  1.00  0.00     0.076 A 
HETATM   30  C   UNL     1      44.117 -18.567   1.750  1.00  0.00     0.037 A 
HETATM   31  C   UNL     1      43.585 -17.808   0.712  1.00  0.00     0.003 A 
HETATM   32  C   UNL     1      42.416 -17.084   0.914  1.00  0.00     0.001 A 
HETATM   33  C   UNL     1      41.799 -17.079   2.169  1.00  0.00     0.012 A 
BRANCH  29  34
HETATM   34  O   UNL     1      43.926 -19.363   4.039  1.00  0.00    -0.351 OA
BRANCH  34  35
HETATM   35  C   UNL     1      44.886 -20.369   3.685  1.00  0.00     0.171 C 
HETATM   36  C   UNL     1      44.841 -21.451   4.749  1.00  0.00     0.034 C 
ENDBRANCH  34  35
ENDBRANCH  29  34
ENDBRANCH  27  28
ENDBRANCH   1  27
TORSDOF 8
ENDMDL
MODEL 9
REMARK VINA RESULT:      -8.1      4.397      9.306
REMARK  8 active torsions:
REMARK  status: ('A' for Active; 'I' for Inactive)
REMARK    1  A    between atoms: C_2  and  O_3 
REMARK    2  A    between atoms: O_3  and  C_4 
REMARK    3  A    between atoms: C_5  and  C_6 
REMARK    4  A    between atoms: C_6  and  N_7 
REMARK    5  A    between atoms: C_9  and  C_10 
REMARK    6  A    between atoms: C_10  and  C_11 
REMARK       I    between atoms: C_11  and  N_12 
REMARK    7  A    between atoms: N_12  and  C_13 
REMARK    8  A    between atoms: C_13  and  C_14 
ROOT
HETATM    1  N   UNL     1      42.709 -16.140   4.713  1.00  0.00    -0.052 N 
HETATM    2  H   UNL     1      43.194 -16.610   3.936  1.00  0.00     0.281 HD
HETATM    3  C   UNL     1      43.846 -16.134   5.757  1.00  0.00     0.288 C 
HETATM    4  C   UNL     1      44.357 -17.563   6.039  1.00  0.00     0.249 C 
HETATM    5  O   UNL     1      45.406 -17.776   6.638  1.00  0.00    -0.271 OA
HETATM    6  N   UNL     1      43.630 -18.603   5.516  1.00  0.00    -0.358 N 
HETATM    7  C   UNL     1      42.212 -18.546   5.177  1.00  0.00     0.150 C 
HETATM    8  C   UNL     1      41.614 -17.138   4.986  1.00  0.00     0.256 C 
HETATM    9  H   UNL     1      44.010 -19.512   5.770  1.00  0.00     0.162 HD
ENDROOT
BRANCH   3  10
HETATM   10  C   UNL     1      43.633 -15.356   7.057  1.00  0.00     0.145 C 
BRANCH  10  11
HETATM   11  C   UNL     1      44.542 -14.164   7.233  1.00  0.00     0.220 C 
HETATM   12  N   UNL     1      44.327 -13.457   8.386  1.00  0.00    -0.355 N 
HETATM   13  H   UNL     1      43.510 -13.636   8.959  1.00  0.00     0.162 HD
HETATM   14  O   UNL     1      45.413 -13.873   6.420  1.00  0.00    -0.274 OA
BRANCH  12  15
HETATM   15  C   UNL     1      45.167 -12.350   8.783  1.00  0.00     0.179 C 
BRANCH  15  16
HETATM   16  C   UNL     1      44.605 -11.744  10.009  1.00  0.00     0.028 A 
HETATM   17  N   UNL     1      43.617 -12.359  10.742  1.00  0.00    -0.357 N 
HETATM   18  H   UNL     1      43.216 -13.265  10.533  1.00  0.00     0.166 HD
HETATM   19  C   UNL     1      43.224 -11.558  11.790  1.00  0.00     0.043 A 
HETATM   20  C   UNL     1      43.988 -10.392  11.723  1.00  0.00    -0.005 A 
HETATM   21  C   UNL     1      42.251 -11.770  12.775  1.00  0.00     0.033 A 
HETATM   22  C   UNL     1      44.859 -10.525  10.607  1.00  0.00     0.040 A 
HETATM   23  C   UNL     1      43.771  -9.381  12.676  1.00  0.00     0.056 A 
HETATM   24  C   UNL     1      42.800  -9.583  13.655  1.00  0.00     0.117 A 
HETATM   25  C   UNL     1      42.052 -10.753  13.713  1.00  0.00     0.044 A 
HETATM   26  F   UNL     1      42.581  -8.622  14.563  1.00  0.00    -0.206 F 
ENDBRANCH  15  16
ENDBRANCH  12  15
ENDBRANCH  10  11
ENDBRANCH   3  10
BRANCH   1  27
HETATM   27  C   UNL     1      42.312 -14.842   4.051  1.00  0.00     0.277 C 
BRANCH  27  28
HETATM   28  C   UNL     1      41.720 -14.827   2.666  1.00  0.00     0.001 A 
HETATM   29  C   UNL     1      42.368 -15.560   1.647  1.00  0.00     0.076 A 
HETATM   30  C   UNL     1      41.891 -15.539   0.333  1.00  0.00     0.037 A 
HETATM   31  C   UNL     1      40.716 -14.857   0.030  1.00  0.00     0.003 A 
HETATM   32  C   UNL     1      40.009 -14.216   1.040  1.00  0.00     0.001 A 
HETATM   33  C   UNL     1      40.499 -14.214   2.350  1.00  0.00     0.012 A 
BRANCH  29  34
HETATM   34  O   UNL     1      43.483 -16.268   2.019  1.00  0.00    -0.351 OA
BRANCH  34  35
HETATM   35  C   UNL     1      43.859 -17.327   1.125  1.00  0.00     0.171 C 
HETATM   36  C   UNL     1      43.930 -18.612   1.930  1.00  0.00     0.034 C 
ENDBRANCH  34  35
ENDBRANCH  29  34
ENDBRANCH  27  28
ENDBRANCH   1  27
TORSDOF 8
ENDMDL
MODEL 10
REMARK VINA RESULT:      -8.1      4.651      7.024
REMARK  8 active torsions:
REMARK  status: ('A' for Active; 'I' for Inactive)
REMARK    1  A    between atoms: C_2  and  O_3 
REMARK    2  A    between atoms: O_3  and  C_4 
REMARK    3  A    between atoms: C_5  and  C_6 
REMARK    4  A    between atoms: C_6  and  N_7 
REMARK    5  A    between atoms: C_9  and  C_10 
REMARK    6  A    between atoms: C_10  and  C_11 
REMARK       I    between atoms: C_11  and  N_12 
REMARK    7  A    between atoms: N_12  and  C_13 
REMARK    8  A    between atoms: C_13  and  C_14 
ROOT
HETATM    1  N   UNL     1      41.780 -16.259   4.480  1.00  0.00    -0.052 N 
HETATM    2  H   UNL     1      42.720 -16.059   4.851  1.00  0.00     0.281 HD
HETATM    3  C   UNL     1      41.957 -15.732   3.041  1.00  0.00     0.288 C 
HETATM    4  C   UNL     1      42.388 -14.249   3.035  1.00  0.00     0.249 C 
HETATM    5  O   UNL     1      42.821 -13.698   2.028  1.00  0.00    -0.271 OA
HETATM    6  N   UNL     1      42.350 -13.581   4.233  1.00  0.00    -0.358 N 
HETATM    7  C   UNL     1      41.499 -13.938   5.364  1.00  0.00     0.150 C 
HETATM    8  C   UNL     1      40.947 -15.377   5.373  1.00  0.00     0.256 C 
HETATM    9  H   UNL     1      42.618 -12.604   4.144  1.00  0.00     0.162 HD
ENDROOT
BRANCH   3  10
HETATM   10  C   UNL     1      40.835 -15.984   2.032  1.00  0.00     0.145 C 
BRANCH  10  11
HETATM   11  C   UNL     1      41.305 -16.271   0.627  1.00  0.00     0.220 C 
HETATM   12  N   UNL     1      40.631 -15.581  -0.346  1.00  0.00    -0.355 N 
HETATM   13  H   UNL     1      39.783 -15.070  -0.124  1.00  0.00     0.162 HD
HETATM   14  O   UNL     1      42.230 -17.039   0.384  1.00  0.00    -0.274 OA
BRANCH  12  15
HETATM   15  C   UNL     1      41.007 -15.639  -1.739  1.00  0.00     0.179 C 
BRANCH  15  16
HETATM   16  C   UNL     1      41.479 -14.302  -2.159  1.00  0.00     0.028 A 
HETATM   17  N   UNL     1      42.141 -13.456  -1.299  1.00  0.00    -0.357 N 
HETATM   18  H   UNL     1      42.381 -13.674  -0.340  1.00  0.00     0.166 HD
HETATM   19  C   UNL     1      42.409 -12.255  -1.914  1.00  0.00     0.043 A 
HETATM   20  C   UNL     1      41.900 -12.337  -3.212  1.00  0.00    -0.005 A 
HETATM   21  C   UNL     1      43.044 -11.108  -1.422  1.00  0.00     0.033 A 
HETATM   22  C   UNL     1      41.330 -13.631  -3.357  1.00  0.00     0.040 A 
HETATM   23  C   UNL     1      42.021 -11.223  -4.061  1.00  0.00     0.056 A 
HETATM   24  C   UNL     1      42.648 -10.077  -3.575  1.00  0.00     0.117 A 
HETATM   25  C   UNL     1      43.155 -10.013  -2.283  1.00  0.00     0.044 A 
HETATM   26  F   UNL     1      42.761  -9.008  -4.374  1.00  0.00    -0.206 F 
ENDBRANCH  15  16
ENDBRANCH  12  15
ENDBRANCH  10  11
ENDBRANCH   3  10
BRANCH   1  27
HETATM   27  C   UNL     1      41.700 -17.750   4.712  1.00  0.00     0.277 C 
BRANCH  27  28
HETATM   28  C   UNL     1      42.878 -18.644   4.426  1.00  0.00     0.001 A 
HETATM   29  C   UNL     1      43.566 -19.222   5.515  1.00  0.00     0.076 A 
HETATM   30  C   UNL     1      44.696 -20.019   5.309  1.00  0.00     0.037 A 
HETATM   31  C   UNL     1      45.110 -20.319   4.014  1.00  0.00     0.003 A 
HETATM   32  C   UNL     1      44.384 -19.842   2.930  1.00  0.00     0.001 A 
HETATM   33  C   UNL     1      43.269 -19.024   3.134  1.00  0.00     0.012 A 
BRANCH  29  34
HETATM   34  O   UNL     1      43.073 -18.947   6.766  1.00  0.00    -0.351 OA
BRANCH  34  35
HETATM   35  C   UNL     1      44.011 -18.350   7.674  1.00  0.00     0.171 C 
HETATM   36  C   UNL     1      43.406 -17.056   8.185  1.00  0.00     0.034 C 
ENDBRANCH  34  35
ENDBRANCH  29  34
ENDBRANCH  27  28
ENDBRANCH   1  27
TORSDOF 8
ENDMDL
