MODEL 1
REMARK VINA RESULT:      -9.1      0.000      0.000
REMARK  9 active torsions:
REMARK  status: ('A' for Active; 'I' for Inactive)
REMARK    1  A    between atoms: C_3  and  C_4 
REMARK    2  A    between atoms: C_4  and  C_5 
REMARK       I    between atoms: C_5  and  N_6 
REMARK    3  A    between atoms: N_6  and  C_7 
REMARK    4  A    between atoms: C_7  and  C_8 
REMARK    5  A    between atoms: C_17  and  N_18 
REMARK       I    between atoms: N_18  and  C_19 
REMARK    6  A    between atoms: C_19  and  C_20 
REMARK    7  A    between atoms: C_28  and  C_29 
REMARK    8  A    between atoms: C_29  and  O_30 
REMARK    9  A    between atoms: C_32  and  O_33 
ROOT
HETATM    1  C   UNL     1      39.190 -12.853   4.174  1.00  0.00     0.016 C 
HETATM    2  C   UNL     1      40.335 -12.765   3.114  1.00  0.00    -0.030 C 
HETATM    3  C   UNL     1      41.547 -13.709   3.548  1.00  0.00     0.056 C 
HETATM    4  C   UNL     1      41.266 -15.148   3.166  1.00  0.00     0.056 C 
HETATM    5  C   UNL     1      40.196 -15.545   2.388  1.00  0.00     0.012 C 
HETATM    6  S   UNL     1      40.215 -17.233   2.166  1.00  0.00    -0.055 SA
HETATM    7  C   UNL     1      41.777 -17.258   2.856  1.00  0.00     0.173 C 
HETATM    8  N   UNL     1      42.185 -16.151   3.426  1.00  0.00    -0.227 NA
HETATM    9  C   UNL     1      39.192 -14.651   1.756  1.00  0.00     0.055 C 
HETATM   10  C   UNL     1      39.736 -13.195   1.708  1.00  0.00     0.012 C 
HETATM   11  C   UNL     1      40.632 -12.840   0.436  1.00  0.00     0.008 C 
HETATM   12  C   UNL     1      39.648 -12.603  -0.749  1.00  0.00     0.020 C 
HETATM   13  C   UNL     1      41.412 -11.505   0.659  1.00  0.00     0.128 C 
HETATM   14  C   UNL     1      40.755 -10.619   1.708  1.00  0.00     0.033 C 
HETATM   15  C   UNL     1      40.796 -11.273   3.088  1.00  0.00     0.013 C 
ENDROOT
BRANCH   3  16
HETATM   16  C   UNL     1      41.891 -13.575   5.043  1.00  0.00     0.114 C 
BRANCH  16  17
HETATM   17  C   UNL     1      43.377 -13.660   5.331  1.00  0.00     0.218 C 
HETATM   18  N   UNL     1      43.689 -13.764   6.660  1.00  0.00    -0.355 N 
HETATM   19  H   UNL     1      43.016 -14.270   7.238  1.00  0.00     0.162 HD
HETATM   20  O   UNL     1      44.209 -13.584   4.431  1.00  0.00    -0.274 OA
BRANCH  18  21
HETATM   21  C   UNL     1      45.062 -13.800   7.103  1.00  0.00     0.187 C 
BRANCH  21  22
HETATM   22  C   UNL     1      45.205 -12.914   8.287  1.00  0.00     0.070 A 
HETATM   23  O   UNL     1      44.384 -13.166   9.351  1.00  0.00    -0.325 OA
HETATM   24  C   UNL     1      44.681 -12.251  10.308  1.00  0.00     0.142 A 
HETATM   25  C   UNL     1      45.679 -11.408   9.878  1.00  0.00     0.027 A 
HETATM   26  C   UNL     1      46.013 -11.831   8.570  1.00  0.00     0.036 A 
ENDBRANCH  21  22
ENDBRANCH  18  21
ENDBRANCH  16  17
ENDBRANCH   3  16
BRANCH  11  27
HETATM   27  C   UNL     1      41.642 -13.928  -0.023  1.00  0.00     0.176 C 
BRANCH  27  28
HETATM   28  O   UNL     1      42.227 -13.637  -1.288  1.00  0.00    -0.400 OA
HETATM   29  H   UNL     1      43.125 -14.011  -1.260  1.00  0.00     0.209 HD
ENDBRANCH  27  28
ENDBRANCH  11  27
BRANCH   7  30
HETATM   30  N   UNL     1      42.438 -18.431   2.626  1.00  0.00    -0.305 N 
HETATM   31  C   UNL     1      43.466 -18.855   3.438  1.00  0.00     0.227 C 
HETATM   32  O   UNL     1      43.717 -18.399   4.556  1.00  0.00    -0.273 OA
HETATM   33  H   UNL     1      42.335 -18.804   1.696  1.00  0.00     0.171 HD
BRANCH  31  34
HETATM   34  C   UNL     1      44.344 -19.962   2.793  1.00  0.00     0.078 C 
HETATM   35  C   UNL     1      44.710 -21.245   3.598  1.00  0.00     0.014 C 
HETATM   36  C   UNL     1      44.571 -22.037   2.287  1.00  0.00     0.002 C 
HETATM   37  C   UNL     1      43.623 -20.926   1.803  1.00  0.00     0.014 C 
ENDBRANCH  31  34
ENDBRANCH   7  30
BRANCH  13  38
HETATM   38  O   UNL     1      42.757 -11.762   1.063  1.00  0.00    -0.395 OA
HETATM   39  H   UNL     1      43.336 -11.634   0.290  1.00  0.00     0.210 HD
ENDBRANCH  13  38
TORSDOF 9
ENDMDL
MODEL 2
REMARK VINA RESULT:      -9.1      1.749      2.506
REMARK  9 active torsions:
REMARK  status: ('A' for Active; 'I' for Inactive)
REMARK    1  A    between atoms: C_3  and  C_4 
REMARK    2  A    between atoms: C_4  and  C_5 
REMARK       I    between atoms: C_5  and  N_6 
REMARK    3  A    between atoms: N_6  and  C_7 
REMARK    4  A    between atoms: C_7  and  C_8 
REMARK    5  A    between atoms: C_17  and  N_18 
REMARK       I    between atoms: N_18  and  C_19 
REMARK    6  A    between atoms: C_19  and  C_20 
REMARK    7  A    between atoms: C_28  and  C_29 
REMARK    8  A    between atoms: C_29  and  O_30 
REMARK    9  A    between atoms: C_32  and  O_33 
ROOT
HETATM    1  C   UNL     1      39.180 -12.768   4.074  1.00  0.00     0.016 C 
HETATM    2  C   UNL     1      40.328 -12.691   3.018  1.00  0.00    -0.030 C 
HETATM    3  C   UNL     1      41.605 -13.488   3.548  1.00  0.00     0.056 C 
HETATM    4  C   UNL     1      41.445 -14.976   3.306  1.00  0.00     0.056 C 
HETATM    5  C   UNL     1      40.420 -15.531   2.563  1.00  0.00     0.012 C 
HETATM    6  S   UNL     1      40.577 -17.225   2.507  1.00  0.00    -0.055 SA
HETATM    7  C   UNL     1      42.126 -17.057   3.205  1.00  0.00     0.173 C 
HETATM    8  N   UNL     1      42.437 -15.872   3.668  1.00  0.00    -0.227 NA
HETATM    9  C   UNL     1      39.357 -14.785   1.842  1.00  0.00     0.055 C 
HETATM   10  C   UNL     1      39.784 -13.301   1.656  1.00  0.00     0.012 C 
HETATM   11  C   UNL     1      40.666 -12.999   0.361  1.00  0.00     0.008 C 
HETATM   12  C   UNL     1      39.683 -12.957  -0.847  1.00  0.00     0.020 C 
HETATM   13  C   UNL     1      41.335 -11.591   0.459  1.00  0.00     0.128 C 
HETATM   14  C   UNL     1      40.595 -10.664   1.412  1.00  0.00     0.033 C 
HETATM   15  C   UNL     1      40.669 -11.176   2.850  1.00  0.00     0.013 C 
ENDROOT
BRANCH   3  16
HETATM   16  C   UNL     1      41.917 -13.184   5.025  1.00  0.00     0.114 C 
BRANCH  16  17
HETATM   17  C   UNL     1      43.228 -13.778   5.501  1.00  0.00     0.218 C 
HETATM   18  N   UNL     1      43.109 -14.619   6.574  1.00  0.00    -0.355 N 
HETATM   19  H   UNL     1      42.244 -15.158   6.625  1.00  0.00     0.162 HD
HETATM   20  O   UNL     1      44.297 -13.469   4.982  1.00  0.00    -0.274 OA
BRANCH  18  21
HETATM   21  C   UNL     1      44.272 -15.223   7.180  1.00  0.00     0.187 C 
BRANCH  21  22
HETATM   22  C   UNL     1      44.194 -16.695   6.997  1.00  0.00     0.070 A 
HETATM   23  O   UNL     1      43.465 -17.395   7.918  1.00  0.00    -0.325 OA
HETATM   24  C   UNL     1      43.528 -18.704   7.564  1.00  0.00     0.142 A 
HETATM   25  C   UNL     1      44.290 -18.862   6.431  1.00  0.00     0.027 A 
HETATM   26  C   UNL     1      44.727 -17.566   6.069  1.00  0.00     0.036 A 
ENDBRANCH  21  22
ENDBRANCH  18  21
ENDBRANCH  16  17
ENDBRANCH   3  16
BRANCH  11  27
HETATM   27  C   UNL     1      41.766 -14.041   0.016  1.00  0.00     0.176 C 
BRANCH  27  28
HETATM   28  O   UNL     1      42.238 -13.921  -1.322  1.00  0.00    -0.400 OA
HETATM   29  H   UNL     1      41.640 -14.463  -1.866  1.00  0.00     0.209 HD
ENDBRANCH  27  28
ENDBRANCH  11  27
BRANCH   7  30
HETATM   30  N   UNL     1      42.881 -18.190   3.093  1.00  0.00    -0.305 N 
HETATM   31  C   UNL     1      43.858 -18.318   2.131  1.00  0.00     0.227 C 
HETATM   32  O   UNL     1      44.328 -17.386   1.474  1.00  0.00    -0.273 OA
HETATM   33  H   UNL     1      42.497 -19.006   3.543  1.00  0.00     0.171 HD
BRANCH  31  34
HETATM   34  C   UNL     1      44.304 -19.787   1.898  1.00  0.00     0.078 C 
HETATM   35  C   UNL     1      44.853 -20.640   3.081  1.00  0.00     0.014 C 
HETATM   36  C   UNL     1      44.131 -21.851   2.466  1.00  0.00     0.002 C 
HETATM   37  C   UNL     1      43.165 -20.849   1.810  1.00  0.00     0.014 C 
ENDBRANCH  31  34
ENDBRANCH   7  30
BRANCH  13  38
HETATM   38  O   UNL     1      42.690 -11.699   0.894  1.00  0.00    -0.395 OA
HETATM   39  H   UNL     1      43.097 -12.458   0.437  1.00  0.00     0.210 HD
ENDBRANCH  13  38
TORSDOF 9
ENDMDL
MODEL 3
REMARK VINA RESULT:      -8.4      3.188      7.156
REMARK  9 active torsions:
REMARK  status: ('A' for Active; 'I' for Inactive)
REMARK    1  A    between atoms: C_3  and  C_4 
REMARK    2  A    between atoms: C_4  and  C_5 
REMARK       I    between atoms: C_5  and  N_6 
REMARK    3  A    between atoms: N_6  and  C_7 
REMARK    4  A    between atoms: C_7  and  C_8 
REMARK    5  A    between atoms: C_17  and  N_18 
REMARK       I    between atoms: N_18  and  C_19 
REMARK    6  A    between atoms: C_19  and  C_20 
REMARK    7  A    between atoms: C_28  and  C_29 
REMARK    8  A    between atoms: C_29  and  O_30 
REMARK    9  A    between atoms: C_32  and  O_33 
ROOT
HETATM    1  C   UNL     1      39.579 -17.086   2.182  1.00  0.00     0.016 C 
HETATM    2  C   UNL     1      40.679 -16.126   2.740  1.00  0.00    -0.030 C 
HETATM    3  C   UNL     1      41.781 -15.857   1.618  1.00  0.00     0.056 C 
HETATM    4  C   UNL     1      41.307 -14.793   0.647  1.00  0.00     0.056 C 
HETATM    5  C   UNL     1      40.162 -14.041   0.827  1.00  0.00     0.012 C 
HETATM    6  S   UNL     1      39.962 -12.948  -0.463  1.00  0.00    -0.055 SA
HETATM    7  C   UNL     1      41.537 -13.349  -0.986  1.00  0.00     0.173 C 
HETATM    8  N   UNL     1      42.104 -14.378  -0.406  1.00  0.00    -0.227 NA
HETATM    9  C   UNL     1      39.252 -14.096   1.998  1.00  0.00     0.055 C 
HETATM   10  C   UNL     1      39.969 -14.780   3.196  1.00  0.00     0.012 C 
HETATM   11  C   UNL     1      40.847 -13.811   4.113  1.00  0.00     0.008 C 
HETATM   12  C   UNL     1      39.849 -13.050   5.036  1.00  0.00     0.020 C 
HETATM   13  C   UNL     1      41.796 -14.633   5.042  1.00  0.00     0.128 C 
HETATM   14  C   UNL     1      41.301 -16.056   5.264  1.00  0.00     0.033 C 
HETATM   15  C   UNL     1      41.320 -16.857   3.963  1.00  0.00     0.013 C 
ENDROOT
BRANCH   3  16
HETATM   16  C   UNL     1      42.204 -17.144   0.887  1.00  0.00     0.114 C 
BRANCH  16  17
HETATM   17  C   UNL     1      43.488 -17.748   1.421  1.00  0.00     0.218 C 
HETATM   18  N   UNL     1      43.345 -19.004   1.948  1.00  0.00    -0.355 N 
HETATM   19  H   UNL     1      42.634 -19.592   1.511  1.00  0.00     0.162 HD
HETATM   20  O   UNL     1      44.542 -17.118   1.417  1.00  0.00    -0.274 OA
BRANCH  18  21
HETATM   21  C   UNL     1      44.463 -19.693   2.545  1.00  0.00     0.187 C 
BRANCH  21  22
HETATM   22  C   UNL     1      44.375 -19.557   4.021  1.00  0.00     0.070 A 
HETATM   23  O   UNL     1      44.333 -20.714   4.748  1.00  0.00    -0.325 OA
HETATM   24  C   UNL     1      44.254 -20.360   6.056  1.00  0.00     0.142 A 
HETATM   25  C   UNL     1      44.241 -18.991   6.187  1.00  0.00     0.027 A 
HETATM   26  C   UNL     1      44.312 -18.472   4.872  1.00  0.00     0.036 A 
ENDBRANCH  21  22
ENDBRANCH  18  21
ENDBRANCH  16  17
ENDBRANCH   3  16
BRANCH  11  27
HETATM   27  C   UNL     1      41.692 -12.738   3.373  1.00  0.00     0.176 C 
BRANCH  27  28
HETATM   28  O   UNL     1      42.151 -11.706   4.239  1.00  0.00    -0.400 OA
HETATM   29  H   UNL     1      42.642 -11.083   3.675  1.00  0.00     0.209 HD
ENDBRANCH  27  28
ENDBRANCH  11  27
BRANCH   7  30
HETATM   30  N   UNL     1      42.035 -12.458  -1.893  1.00  0.00    -0.305 N 
HETATM   31  C   UNL     1      42.749 -11.347  -1.501  1.00  0.00     0.227 C 
HETATM   32  O   UNL     1      43.230 -11.177  -0.378  1.00  0.00    -0.273 OA
HETATM   33  H   UNL     1      41.615 -12.498  -2.808  1.00  0.00     0.171 HD
BRANCH  31  34
HETATM   34  C   UNL     1      42.865 -10.266  -2.610  1.00  0.00     0.078 C 
HETATM   35  C   UNL     1      42.467 -10.601  -4.080  1.00  0.00     0.014 C 
HETATM   36  C   UNL     1      41.904  -9.174  -4.190  1.00  0.00     0.002 C 
HETATM   37  C   UNL     1      41.723  -9.206  -2.662  1.00  0.00     0.014 C 
ENDBRANCH  31  34
ENDBRANCH   7  30
BRANCH  13  38
HETATM   38  O   UNL     1      43.115 -14.694   4.498  1.00  0.00    -0.395 OA
HETATM   39  H   UNL     1      43.594 -13.891   4.773  1.00  0.00     0.210 HD
ENDBRANCH  13  38
TORSDOF 9
ENDMDL
MODEL 4
REMARK VINA RESULT:      -8.2      2.314      3.089
REMARK  9 active torsions:
REMARK  status: ('A' for Active; 'I' for Inactive)
REMARK    1  A    between atoms: C_3  and  C_4 
REMARK    2  A    between atoms: C_4  and  C_5 
REMARK       I    between atoms: C_5  and  N_6 
REMARK    3  A    between atoms: N_6  and  C_7 
REMARK    4  A    between atoms: C_7  and  C_8 
REMARK    5  A    between atoms: C_17  and  N_18 
REMARK       I    between atoms: N_18  and  C_19 
REMARK    6  A    between atoms: C_19  and  C_20 
REMARK    7  A    between atoms: C_28  and  C_29 
REMARK    8  A    between atoms: C_29  and  O_30 
REMARK    9  A    between atoms: C_32  and  O_33 
ROOT
HETATM    1  C   UNL     1      38.539 -12.055   0.685  1.00  0.00     0.016 C 
HETATM    2  C   UNL     1      40.057 -11.789   0.431  1.00  0.00    -0.030 C 
HETATM    3  C   UNL     1      40.936 -12.693   1.410  1.00  0.00     0.056 C 
HETATM    4  C   UNL     1      41.064 -14.101   0.865  1.00  0.00     0.056 C 
HETATM    5  C   UNL     1      40.634 -14.485  -0.391  1.00  0.00     0.012 C 
HETATM    6  S   UNL     1      40.952 -16.137  -0.649  1.00  0.00    -0.055 SA
HETATM    7  C   UNL     1      41.885 -16.132   0.781  1.00  0.00     0.173 C 
HETATM    8  N   UNL     1      41.798 -15.066   1.536  1.00  0.00    -0.227 NA
HETATM    9  C   UNL     1      40.041 -13.597  -1.423  1.00  0.00     0.055 C 
HETATM   10  C   UNL     1      40.363 -12.112  -1.093  1.00  0.00     0.012 C 
HETATM   11  C   UNL     1      41.761 -11.575  -1.648  1.00  0.00     0.008 C 
HETATM   12  C   UNL     1      41.554 -11.282  -3.164  1.00  0.00     0.020 C 
HETATM   13  C   UNL     1      42.146 -10.223  -0.968  1.00  0.00     0.128 C 
HETATM   14  C   UNL     1      40.936  -9.490  -0.407  1.00  0.00     0.033 C 
HETATM   15  C   UNL     1      40.295 -10.275   0.736  1.00  0.00     0.013 C 
ENDROOT
BRANCH   3  16
HETATM   16  C   UNL     1      40.401 -12.689   2.854  1.00  0.00     0.114 C 
BRANCH  16  17
HETATM   17  C   UNL     1      41.463 -12.381   3.891  1.00  0.00     0.218 C 
HETATM   18  N   UNL     1      42.108 -13.484   4.383  1.00  0.00    -0.355 N 
HETATM   19  H   UNL     1      42.227 -14.259   3.729  1.00  0.00     0.162 HD
HETATM   20  O   UNL     1      41.667 -11.233   4.278  1.00  0.00    -0.274 OA
BRANCH  18  21
HETATM   21  C   UNL     1      43.108 -13.363   5.416  1.00  0.00     0.187 C 
BRANCH  21  22
HETATM   22  C   UNL     1      43.514 -14.724   5.848  1.00  0.00     0.070 A 
HETATM   23  O   UNL     1      42.939 -15.778   5.195  1.00  0.00    -0.325 OA
HETATM   24  C   UNL     1      43.447 -16.912   5.743  1.00  0.00     0.142 A 
HETATM   25  C   UNL     1      44.339 -16.607   6.742  1.00  0.00     0.027 A 
HETATM   26  C   UNL     1      44.378 -15.195   6.816  1.00  0.00     0.036 A 
ENDBRANCH  21  22
ENDBRANCH  18  21
ENDBRANCH  16  17
ENDBRANCH   3  16
BRANCH  11  27
HETATM   27  C   UNL     1      42.969 -12.545  -1.532  1.00  0.00     0.176 C 
BRANCH  27  28
HETATM   28  O   UNL     1      43.215 -13.263  -2.737  1.00  0.00    -0.400 OA
HETATM   29  H   UNL     1      42.495 -13.021  -3.344  1.00  0.00     0.209 HD
ENDBRANCH  27  28
ENDBRANCH  11  27
BRANCH   7  30
HETATM   30  N   UNL     1      42.688 -17.232   0.892  1.00  0.00    -0.305 N 
HETATM   31  C   UNL     1      42.625 -18.068   1.985  1.00  0.00     0.227 C 
HETATM   32  O   UNL     1      41.710 -18.082   2.811  1.00  0.00    -0.273 OA
HETATM   33  H   UNL     1      43.500 -17.230   0.296  1.00  0.00     0.171 HD
BRANCH  31  34
HETATM   34  C   UNL     1      43.865 -18.991   2.126  1.00  0.00     0.078 C 
HETATM   35  C   UNL     1      44.320 -19.490   3.531  1.00  0.00     0.014 C 
HETATM   36  C   UNL     1      44.686 -20.831   2.871  1.00  0.00     0.002 C 
HETATM   37  C   UNL     1      43.646 -20.497   1.787  1.00  0.00     0.014 C 
ENDBRANCH  31  34
ENDBRANCH   7  30
BRANCH  13  38
HETATM   38  O   UNL     1      43.079 -10.434   0.093  1.00  0.00    -0.395 OA
HETATM   39  H   UNL     1      43.864 -10.878  -0.275  1.00  0.00     0.210 HD
ENDBRANCH  13  38
TORSDOF 9
ENDMDL
MODEL 5
REMARK VINA RESULT:      -8.0      3.944      7.739
REMARK  9 active torsions:
REMARK  status: ('A' for Active; 'I' for Inactive)
REMARK    1  A    between atoms: C_3  and  C_4 
REMARK    2  A    between atoms: C_4  and  C_5 
REMARK       I    between atoms: C_5  and  N_6 
REMARK    3  A    between atoms: N_6  and  C_7 
REMARK    4  A    between atoms: C_7  and  C_8 
REMARK    5  A    between atoms: C_17  and  N_18 
REMARK       I    between atoms: N_18  and  C_19 
REMARK    6  A    between atoms: C_19  and  C_20 
REMARK    7  A    between atoms: C_28  and  C_29 
REMARK    8  A    between atoms: C_29  and  O_30 
REMARK    9  A    between atoms: C_32  and  O_33 
ROOT
HETATM    1  C   UNL     1      42.166 -12.062  -0.850  1.00  0.00     0.016 C 
HETATM    2  C   UNL     1      40.830 -12.693  -0.342  1.00  0.00    -0.030 C 
HETATM    3  C   UNL     1      40.842 -14.267  -0.603  1.00  0.00     0.056 C 
HETATM    4  C   UNL     1      41.624 -14.982   0.481  1.00  0.00     0.056 C 
HETATM    5  C   UNL     1      42.096 -14.368   1.625  1.00  0.00     0.012 C 
HETATM    6  S   UNL     1      42.918 -15.490   2.606  1.00  0.00    -0.055 SA
HETATM    7  C   UNL     1      42.330 -16.734   1.594  1.00  0.00     0.173 C 
HETATM    8  N   UNL     1      41.759 -16.361   0.476  1.00  0.00    -0.227 NA
HETATM    9  C   UNL     1      41.875 -12.952   2.014  1.00  0.00     0.055 C 
HETATM   10  C   UNL     1      40.688 -12.359   1.204  1.00  0.00     0.012 C 
HETATM   11  C   UNL     1      39.240 -12.600   1.834  1.00  0.00     0.008 C 
HETATM   12  C   UNL     1      39.080 -11.567   2.989  1.00  0.00     0.020 C 
HETATM   13  C   UNL     1      38.121 -12.297   0.788  1.00  0.00     0.128 C 
HETATM   14  C   UNL     1      38.596 -11.363  -0.315  1.00  0.00     0.033 C 
HETATM   15  C   UNL     1      39.686 -12.018  -1.163  1.00  0.00     0.013 C 
ENDROOT
BRANCH   3  16
HETATM   16  C   UNL     1      41.359 -14.627  -2.008  1.00  0.00     0.114 C 
BRANCH  16  17
HETATM   17  C   UNL     1      40.297 -15.227  -2.907  1.00  0.00     0.218 C 
HETATM   18  N   UNL     1      39.012 -14.994  -2.497  1.00  0.00    -0.355 N 
HETATM   19  H   UNL     1      38.851 -14.105  -2.020  1.00  0.00     0.162 HD
HETATM   20  O   UNL     1      40.596 -15.907  -3.886  1.00  0.00    -0.274 OA
BRANCH  18  21
HETATM   21  C   UNL     1      37.889 -15.544  -3.216  1.00  0.00     0.187 C 
BRANCH  21  22
HETATM   22  C   UNL     1      37.138 -14.431  -3.853  1.00  0.00     0.070 A 
HETATM   23  O   UNL     1      36.169 -14.774  -4.754  1.00  0.00    -0.325 OA
HETATM   24  C   UNL     1      35.619 -13.618  -5.206  1.00  0.00     0.142 A 
HETATM   25  C   UNL     1      36.218 -12.533  -4.613  1.00  0.00     0.027 A 
HETATM   26  C   UNL     1      37.205 -13.057  -3.744  1.00  0.00     0.036 A 
ENDBRANCH  21  22
ENDBRANCH  18  21
ENDBRANCH  16  17
ENDBRANCH   3  16
BRANCH  11  27
HETATM   27  C   UNL     1      38.977 -14.006   2.441  1.00  0.00     0.176 C 
BRANCH  27  28
HETATM   28  O   UNL     1      39.453 -14.126   3.778  1.00  0.00    -0.400 OA
HETATM   29  H   UNL     1      39.795 -15.033   3.859  1.00  0.00     0.209 HD
ENDBRANCH  27  28
ENDBRANCH  11  27
BRANCH   7  30
HETATM   30  N   UNL     1      42.456 -17.974   2.153  1.00  0.00    -0.305 N 
HETATM   31  C   UNL     1      43.629 -18.692   2.068  1.00  0.00     0.227 C 
HETATM   32  O   UNL     1      44.721 -18.222   1.739  1.00  0.00    -0.273 OA
HETATM   33  H   UNL     1      41.588 -18.438   2.364  1.00  0.00     0.171 HD
BRANCH  31  34
HETATM   34  C   UNL     1      43.451 -20.201   2.385  1.00  0.00     0.078 C 
HETATM   35  C   UNL     1      43.922 -21.280   1.364  1.00  0.00     0.014 C 
HETATM   36  C   UNL     1      44.359 -22.140   2.563  1.00  0.00     0.002 C 
HETATM   37  C   UNL     1      44.495 -20.829   3.358  1.00  0.00     0.014 C 
ENDBRANCH  31  34
ENDBRANCH   7  30
BRANCH  13  38
HETATM   38  O   UNL     1      37.645 -13.502   0.187  1.00  0.00    -0.395 OA
HETATM   39  H   UNL     1      37.258 -13.277  -0.679  1.00  0.00     0.210 HD
ENDBRANCH  13  38
TORSDOF 9
ENDMDL
MODEL 6
REMARK VINA RESULT:      -7.8      3.456      4.717
REMARK  9 active torsions:
REMARK  status: ('A' for Active; 'I' for Inactive)
REMARK    1  A    between atoms: C_3  and  C_4 
REMARK    2  A    between atoms: C_4  and  C_5 
REMARK       I    between atoms: C_5  and  N_6 
REMARK    3  A    between atoms: N_6  and  C_7 
REMARK    4  A    between atoms: C_7  and  C_8 
REMARK    5  A    between atoms: C_17  and  N_18 
REMARK       I    between atoms: N_18  and  C_19 
REMARK    6  A    between atoms: C_19  and  C_20 
REMARK    7  A    between atoms: C_28  and  C_29 
REMARK    8  A    between atoms: C_29  and  O_30 
REMARK    9  A    between atoms: C_32  and  O_33 
ROOT
HETATM    1  C   UNL     1      37.773 -10.951  -1.205  1.00  0.00     0.016 C 
HETATM    2  C   UNL     1      39.210 -10.718  -0.637  1.00  0.00    -0.030 C 
HETATM    3  C   UNL     1      39.580 -11.879   0.393  1.00  0.00     0.056 C 
HETATM    4  C   UNL     1      40.043 -13.119  -0.343  1.00  0.00     0.056 C 
HETATM    5  C   UNL     1      40.285 -13.164  -1.703  1.00  0.00     0.012 C 
HETATM    6  S   UNL     1      40.796 -14.721  -2.165  1.00  0.00    -0.055 SA
HETATM    7  C   UNL     1      40.940 -15.113  -0.509  1.00  0.00     0.173 C 
HETATM    8  N   UNL     1      40.436 -14.256   0.344  1.00  0.00    -0.227 NA
HETATM    9  C   UNL     1      40.193 -12.022  -2.647  1.00  0.00     0.055 C 
HETATM   10  C   UNL     1      40.221 -10.681  -1.862  1.00  0.00     0.012 C 
HETATM   11  C   UNL     1      41.675 -10.105  -1.541  1.00  0.00     0.008 C 
HETATM   12  C   UNL     1      42.191  -9.445  -2.855  1.00  0.00     0.020 C 
HETATM   13  C   UNL     1      41.603  -8.981  -0.460  1.00  0.00     0.128 C 
HETATM   14  C   UNL     1      40.225  -8.337  -0.384  1.00  0.00     0.033 C 
HETATM   15  C   UNL     1      39.174  -9.338   0.094  1.00  0.00     0.013 C 
ENDROOT
BRANCH   3  16
HETATM   16  C   UNL     1      38.427 -12.192   1.365  1.00  0.00     0.114 C 
BRANCH  16  17
HETATM   17  C   UNL     1      38.861 -12.262   2.815  1.00  0.00     0.218 C 
HETATM   18  N   UNL     1      39.615 -13.362   3.127  1.00  0.00    -0.355 N 
HETATM   19  H   UNL     1      40.221 -13.711   2.384  1.00  0.00     0.162 HD
HETATM   20  O   UNL     1      38.505 -11.416   3.632  1.00  0.00    -0.274 OA
BRANCH  18  21
HETATM   21  C   UNL     1      40.060 -13.601   4.478  1.00  0.00     0.187 C 
BRANCH  21  22
HETATM   22  C   UNL     1      41.341 -14.351   4.432  1.00  0.00     0.070 A 
HETATM   23  O   UNL     1      42.282 -13.916   3.540  1.00  0.00    -0.325 OA
HETATM   24  C   UNL     1      43.358 -14.734   3.665  1.00  0.00     0.142 A 
HETATM   25  C   UNL     1      43.127 -15.694   4.622  1.00  0.00     0.027 A 
HETATM   26  C   UNL     1      41.822 -15.452   5.113  1.00  0.00     0.036 A 
ENDBRANCH  21  22
ENDBRANCH  18  21
ENDBRANCH  16  17
ENDBRANCH   3  16
BRANCH  11  27
HETATM   27  C   UNL     1      42.747 -11.141  -1.102  1.00  0.00     0.176 C 
BRANCH  27  28
HETATM   28  O   UNL     1      44.023 -10.551  -0.879  1.00  0.00    -0.400 OA
HETATM   29  H   UNL     1      44.582 -10.831  -1.625  1.00  0.00     0.209 HD
ENDBRANCH  27  28
ENDBRANCH  11  27
BRANCH   7  30
HETATM   30  N   UNL     1      41.666 -16.250  -0.297  1.00  0.00    -0.305 N 
HETATM   31  C   UNL     1      41.547 -16.980   0.866  1.00  0.00     0.227 C 
HETATM   32  O   UNL     1      40.633 -16.859   1.685  1.00  0.00    -0.273 OA
HETATM   33  H   UNL     1      42.477 -16.356  -0.885  1.00  0.00     0.171 HD
BRANCH  31  34
HETATM   34  C   UNL     1      42.722 -17.969   1.095  1.00  0.00     0.078 C 
HETATM   35  C   UNL     1      44.137 -17.437   1.472  1.00  0.00     0.014 C 
HETATM   36  C   UNL     1      44.289 -18.661   2.391  1.00  0.00     0.002 C 
HETATM   37  C   UNL     1      42.752 -18.697   2.473  1.00  0.00     0.014 C 
ENDBRANCH  31  34
ENDBRANCH   7  30
BRANCH  13  38
HETATM   38  O   UNL     1      41.934  -9.493   0.831  1.00  0.00    -0.395 OA
HETATM   39  H   UNL     1      42.833  -9.190   1.057  1.00  0.00     0.210 HD
ENDBRANCH  13  38
TORSDOF 9
ENDMDL
MODEL 7
REMARK VINA RESULT:      -7.7      2.510      3.675
REMARK  9 active torsions:
REMARK  status: ('A' for Active; 'I' for Inactive)
REMARK    1  A    between atoms: C_3  and  C_4 
REMARK    2  A    between atoms: C_4  and  C_5 
REMARK       I    between atoms: C_5  and  N_6 
REMARK    3  A    between atoms: N_6  and  C_7 
REMARK    4  A    between atoms: C_7  and  C_8 
REMARK    5  A    between atoms: C_17  and  N_18 
REMARK       I    between atoms: N_18  and  C_19 
REMARK    6  A    between atoms: C_19  and  C_20 
REMARK    7  A    between atoms: C_28  and  C_29 
REMARK    8  A    between atoms: C_29  and  O_30 
REMARK    9  A    between atoms: C_32  and  O_33 
ROOT
HETATM    1  C   UNL     1      38.924 -11.256   0.277  1.00  0.00     0.016 C 
HETATM    2  C   UNL     1      39.967 -11.995  -0.622  1.00  0.00    -0.030 C 
HETATM    3  C   UNL     1      41.211 -12.459   0.264  1.00  0.00     0.056 C 
HETATM    4  C   UNL     1      40.893 -13.746   0.999  1.00  0.00     0.056 C 
HETATM    5  C   UNL     1      39.754 -14.498   0.781  1.00  0.00     0.012 C 
HETATM    6  S   UNL     1      39.749 -15.873   1.785  1.00  0.00    -0.055 SA
HETATM    7  C   UNL     1      41.367 -15.519   2.198  1.00  0.00     0.173 C 
HETATM    8  N   UNL     1      41.829 -14.353   1.820  1.00  0.00    -0.227 NA
HETATM    9  C   UNL     1      38.700 -14.219  -0.226  1.00  0.00     0.055 C 
HETATM   10  C   UNL     1      39.240 -13.233  -1.301  1.00  0.00     0.012 C 
HETATM   11  C   UNL     1      40.017 -13.909  -2.521  1.00  0.00     0.008 C 
HETATM   12  C   UNL     1      38.929 -14.486  -3.475  1.00  0.00     0.020 C 
HETATM   13  C   UNL     1      40.818 -12.840  -3.330  1.00  0.00     0.128 C 
HETATM   14  C   UNL     1      40.262 -11.435  -3.144  1.00  0.00     0.033 C 
HETATM   15  C   UNL     1      40.428 -10.963  -1.700  1.00  0.00     0.013 C 
ENDROOT
BRANCH   3  16
HETATM   16  C   UNL     1      41.691 -11.358   1.227  1.00  0.00     0.114 C 
BRANCH  16  17
HETATM   17  C   UNL     1      41.187 -11.533   2.645  1.00  0.00     0.218 C 
HETATM   18  N   UNL     1      42.121 -12.016   3.522  1.00  0.00    -0.355 N 
HETATM   19  H   UNL     1      43.087 -11.736   3.342  1.00  0.00     0.162 HD
HETATM   20  O   UNL     1      40.017 -11.304   2.942  1.00  0.00    -0.274 OA
BRANCH  18  21
HETATM   21  C   UNL     1      41.782 -12.289   4.897  1.00  0.00     0.187 C 
BRANCH  21  22
HETATM   22  C   UNL     1      42.395 -13.583   5.293  1.00  0.00     0.070 A 
HETATM   23  O   UNL     1      41.557 -14.533   5.807  1.00  0.00    -0.325 OA
HETATM   24  C   UNL     1      42.317 -15.620   6.096  1.00  0.00     0.142 A 
HETATM   25  C   UNL     1      43.634 -15.386   5.781  1.00  0.00     0.027 A 
HETATM   26  C   UNL     1      43.687 -14.069   5.268  1.00  0.00     0.036 A 
ENDBRANCH  21  22
ENDBRANCH  18  21
ENDBRANCH  16  17
ENDBRANCH   3  16
BRANCH  11  27
HETATM   27  C   UNL     1      40.978 -15.077  -2.166  1.00  0.00     0.176 C 
BRANCH  27  28
HETATM   28  O   UNL     1      41.720 -15.540  -3.290  1.00  0.00    -0.400 OA
HETATM   29  H   UNL     1      41.061 -15.766  -3.970  1.00  0.00     0.209 HD
ENDBRANCH  27  28
ENDBRANCH  11  27
BRANCH   7  30
HETATM   30  N   UNL     1      42.001 -16.569   2.799  1.00  0.00    -0.305 N 
HETATM   31  C   UNL     1      42.692 -17.512   2.070  1.00  0.00     0.227 C 
HETATM   32  O   UNL     1      43.033 -17.382   0.892  1.00  0.00    -0.273 OA
HETATM   33  H   UNL     1      41.697 -16.772   3.738  1.00  0.00     0.171 HD
BRANCH  31  34
HETATM   34  C   UNL     1      42.976 -18.817   2.863  1.00  0.00     0.078 C 
HETATM   35  C   UNL     1      43.890 -19.923   2.255  1.00  0.00     0.014 C 
HETATM   36  C   UNL     1      44.435 -20.169   3.673  1.00  0.00     0.002 C 
HETATM   37  C   UNL     1      44.042 -18.717   3.996  1.00  0.00     0.014 C 
ENDBRANCH  31  34
ENDBRANCH   7  30
BRANCH  13  38
HETATM   38  O   UNL     1      42.194 -12.836  -2.949  1.00  0.00    -0.395 OA
HETATM   39  H   UNL     1      42.591 -12.000  -3.252  1.00  0.00     0.210 HD
ENDBRANCH  13  38
TORSDOF 9
ENDMDL
MODEL 8
REMARK VINA RESULT:      -7.5      4.418      7.851
REMARK  9 active torsions:
REMARK  status: ('A' for Active; 'I' for Inactive)
REMARK    1  A    between atoms: C_3  and  C_4 
REMARK    2  A    between atoms: C_4  and  C_5 
REMARK       I    between atoms: C_5  and  N_6 
REMARK    3  A    between atoms: N_6  and  C_7 
REMARK    4  A    between atoms: C_7  and  C_8 
REMARK    5  A    between atoms: C_17  and  N_18 
REMARK       I    between atoms: N_18  and  C_19 
REMARK    6  A    between atoms: C_19  and  C_20 
REMARK    7  A    between atoms: C_28  and  C_29 
REMARK    8  A    between atoms: C_29  and  O_30 
REMARK    9  A    between atoms: C_32  and  O_33 
ROOT
HETATM    1  C   UNL     1      38.077 -13.976  -2.192  1.00  0.00     0.016 C 
HETATM    2  C   UNL     1      38.937 -12.883  -1.480  1.00  0.00    -0.030 C 
HETATM    3  C   UNL     1      38.472 -12.735   0.040  1.00  0.00     0.056 C 
HETATM    4  C   UNL     1      39.092 -13.820   0.897  1.00  0.00     0.056 C 
HETATM    5  C   UNL     1      40.065 -14.694   0.451  1.00  0.00     0.012 C 
HETATM    6  S   UNL     1      40.520 -15.763   1.695  1.00  0.00    -0.055 SA
HETATM    7  C   UNL     1      39.623 -14.802   2.784  1.00  0.00     0.173 C 
HETATM    8  N   UNL     1      38.848 -13.886   2.259  1.00  0.00    -0.227 NA
HETATM    9  C   UNL     1      40.700 -14.687  -0.892  1.00  0.00     0.055 C 
HETATM   10  C   UNL     1      40.462 -13.315  -1.583  1.00  0.00     0.012 C 
HETATM   11  C   UNL     1      41.528 -12.178  -1.238  1.00  0.00     0.008 C 
HETATM   12  C   UNL     1      42.796 -12.484  -2.090  1.00  0.00     0.020 C 
HETATM   13  C   UNL     1      41.006 -10.774  -1.678  1.00  0.00     0.128 C 
HETATM   14  C   UNL     1      39.948 -10.864  -2.768  1.00  0.00     0.033 C 
HETATM   15  C   UNL     1      38.683 -11.551  -2.254  1.00  0.00     0.013 C 
ENDROOT
BRANCH   3  16
HETATM   16  C   UNL     1      36.940 -12.702   0.186  1.00  0.00     0.114 C 
BRANCH  16  17
HETATM   17  C   UNL     1      36.413 -11.393   0.739  1.00  0.00     0.218 C 
HETATM   18  N   UNL     1      35.072 -11.395   1.014  1.00  0.00    -0.355 N 
HETATM   19  H   UNL     1      34.683 -12.286   1.324  1.00  0.00     0.162 HD
HETATM   20  O   UNL     1      37.141 -10.412   0.866  1.00  0.00    -0.274 OA
BRANCH  18  21
HETATM   21  C   UNL     1      34.408 -10.208   1.496  1.00  0.00     0.187 C 
BRANCH  21  22
HETATM   22  C   UNL     1      32.951 -10.481   1.592  1.00  0.00     0.070 A 
HETATM   23  O   UNL     1      32.494 -10.988   2.777  1.00  0.00    -0.325 OA
HETATM   24  C   UNL     1      31.154 -11.160   2.646  1.00  0.00     0.142 A 
HETATM   25  C   UNL     1      30.738 -10.775   1.394  1.00  0.00     0.027 A 
HETATM   26  C   UNL     1      31.899 -10.344   0.710  1.00  0.00     0.036 A 
ENDBRANCH  21  22
ENDBRANCH  18  21
ENDBRANCH  16  17
ENDBRANCH   3  16
BRANCH  11  27
HETATM   27  C   UNL     1      41.987 -12.089   0.244  1.00  0.00     0.176 C 
BRANCH  27  28
HETATM   28  O   UNL     1      42.916 -11.035   0.470  1.00  0.00    -0.400 OA
HETATM   29  H   UNL     1      42.910 -10.874   1.430  1.00  0.00     0.209 HD
ENDBRANCH  27  28
ENDBRANCH  11  27
BRANCH   7  30
HETATM   30  N   UNL     1      39.920 -15.066   4.091  1.00  0.00    -0.305 N 
HETATM   31  C   UNL     1      41.119 -14.686   4.652  1.00  0.00     0.227 C 
HETATM   32  O   UNL     1      41.904 -13.874   4.158  1.00  0.00    -0.273 OA
HETATM   33  H   UNL     1      39.362 -15.787   4.519  1.00  0.00     0.171 HD
BRANCH  31  34
HETATM   34  C   UNL     1      41.437 -15.422   5.982  1.00  0.00     0.078 C 
HETATM   35  C   UNL     1      41.177 -16.953   6.116  1.00  0.00     0.014 C 
HETATM   36  C   UNL     1      42.455 -17.037   6.967  1.00  0.00     0.002 C 
HETATM   37  C   UNL     1      42.935 -15.769   6.238  1.00  0.00     0.014 C 
ENDBRANCH  31  34
ENDBRANCH   7  30
BRANCH  13  38
HETATM   38  O   UNL     1      40.454 -10.064  -0.568  1.00  0.00    -0.395 OA
HETATM   39  H   UNL     1      40.628 -10.580   0.240  1.00  0.00     0.210 HD
ENDBRANCH  13  38
TORSDOF 9
ENDMDL
MODEL 9
REMARK VINA RESULT:      -7.4      3.581      6.640
REMARK  9 active torsions:
REMARK  status: ('A' for Active; 'I' for Inactive)
REMARK    1  A    between atoms: C_3  and  C_4 
REMARK    2  A    between atoms: C_4  and  C_5 
REMARK       I    between atoms: C_5  and  N_6 
REMARK    3  A    between atoms: N_6  and  C_7 
REMARK    4  A    between atoms: C_7  and  C_8 
REMARK    5  A    between atoms: C_17  and  N_18 
REMARK       I    between atoms: N_18  and  C_19 
REMARK    6  A    between atoms: C_19  and  C_20 
REMARK    7  A    between atoms: C_28  and  C_29 
REMARK    8  A    between atoms: C_29  and  O_30 
REMARK    9  A    between atoms: C_32  and  O_33 
ROOT
HETATM    1  C   UNL     1      44.036 -14.014   5.121  1.00  0.00     0.016 C 
HETATM    2  C   UNL     1      42.783 -14.937   4.982  1.00  0.00    -0.030 C 
HETATM    3  C   UNL     1      41.495 -14.053   4.657  1.00  0.00     0.056 C 
HETATM    4  C   UNL     1      41.440 -13.711   3.182  1.00  0.00     0.056 C 
HETATM    5  C   UNL     1      42.289 -14.248   2.233  1.00  0.00     0.012 C 
HETATM    6  S   UNL     1      41.920 -13.633   0.689  1.00  0.00    -0.055 SA
HETATM    7  C   UNL     1      40.502 -12.950   1.352  1.00  0.00     0.173 C 
HETATM    8  N   UNL     1      40.399 -12.963   2.658  1.00  0.00    -0.227 NA
HETATM    9  C   UNL     1      43.336 -15.272   2.475  1.00  0.00     0.055 C 
HETATM   10  C   UNL     1      43.075 -15.989   3.829  1.00  0.00     0.012 C 
HETATM   11  C   UNL     1      42.081 -17.237   3.763  1.00  0.00     0.008 C 
HETATM   12  C   UNL     1      42.905 -18.431   3.193  1.00  0.00     0.020 C 
HETATM   13  C   UNL     1      41.608 -17.648   5.194  1.00  0.00     0.128 C 
HETATM   14  C   UNL     1      42.569 -17.181   6.278  1.00  0.00     0.033 C 
HETATM   15  C   UNL     1      42.612 -15.656   6.359  1.00  0.00     0.013 C 
ENDROOT
BRANCH   3  16
HETATM   16  C   UNL     1      41.408 -12.793   5.537  1.00  0.00     0.114 C 
BRANCH  16  17
HETATM   17  C   UNL     1      40.123 -12.698   6.333  1.00  0.00     0.218 C 
HETATM   18  N   UNL     1      40.244 -12.031   7.523  1.00  0.00    -0.355 N 
HETATM   19  H   UNL     1      40.926 -11.271   7.541  1.00  0.00     0.162 HD
HETATM   20  O   UNL     1      39.087 -13.231   5.945  1.00  0.00    -0.274 OA
BRANCH  18  21
HETATM   21  C   UNL     1      39.123 -11.902   8.422  1.00  0.00     0.187 C 
BRANCH  21  22
HETATM   22  C   UNL     1      39.041 -10.492   8.884  1.00  0.00     0.070 A 
HETATM   23  O   UNL     1      38.682  -9.556   7.954  1.00  0.00    -0.325 OA
HETATM   24  C   UNL     1      38.671  -8.354   8.584  1.00  0.00     0.142 A 
HETATM   25  C   UNL     1      39.020  -8.497   9.905  1.00  0.00     0.027 A 
HETATM   26  C   UNL     1      39.267  -9.876  10.098  1.00  0.00     0.036 A 
ENDBRANCH  21  22
ENDBRANCH  18  21
ENDBRANCH  16  17
ENDBRANCH   3  16
BRANCH  11  27
HETATM   27  C   UNL     1      40.828 -17.076   2.859  1.00  0.00     0.176 C 
BRANCH  27  28
HETATM   28  O   UNL     1      41.022 -17.602   1.551  1.00  0.00    -0.400 OA
HETATM   29  H   UNL     1      41.984 -17.712   1.447  1.00  0.00     0.209 HD
ENDBRANCH  27  28
ENDBRANCH  11  27
BRANCH   7  30
HETATM   30  N   UNL     1      39.606 -12.562   0.397  1.00  0.00    -0.305 N 
HETATM   31  C   UNL     1      38.499 -13.322   0.090  1.00  0.00     0.227 C 
HETATM   32  O   UNL     1      38.061 -14.243   0.784  1.00  0.00    -0.273 OA
HETATM   33  H   UNL     1      39.945 -11.870  -0.251  1.00  0.00     0.171 HD
BRANCH  31  34
HETATM   34  C   UNL     1      37.849 -12.943  -1.268  1.00  0.00     0.078 C 
HETATM   35  C   UNL     1      38.608 -12.029  -2.276  1.00  0.00     0.014 C 
HETATM   36  C   UNL     1      38.016 -12.885  -3.409  1.00  0.00     0.002 C 
HETATM   37  C   UNL     1      37.904 -14.029  -2.386  1.00  0.00     0.014 C 
ENDBRANCH  31  34
ENDBRANCH   7  30
BRANCH  13  38
HETATM   38  O   UNL     1      40.314 -17.114   5.476  1.00  0.00    -0.395 OA
HETATM   39  H   UNL     1      39.676 -17.850   5.482  1.00  0.00     0.210 HD
ENDBRANCH  13  38
TORSDOF 9
ENDMDL
MODEL 10
REMARK VINA RESULT:      -7.4      3.833      8.306
REMARK  9 active torsions:
REMARK  status: ('A' for Active; 'I' for Inactive)
REMARK    1  A    between atoms: C_3  and  C_4 
REMARK    2  A    between atoms: C_4  and  C_5 
REMARK       I    between atoms: C_5  and  N_6 
REMARK    3  A    between atoms: N_6  and  C_7 
REMARK    4  A    between atoms: C_7  and  C_8 
REMARK    5  A    between atoms: C_17  and  N_18 
REMARK       I    between atoms: N_18  and  C_19 
REMARK    6  A    between atoms: C_19  and  C_20 
REMARK    7  A    between atoms: C_28  and  C_29 
REMARK    8  A    between atoms: C_29  and  O_30 
REMARK    9  A    between atoms: C_32  and  O_33 
ROOT
HETATM    1  C   UNL     1      41.944 -11.762  -2.082  1.00  0.00     0.016 C 
HETATM    2  C   UNL     1      40.585 -12.144  -1.411  1.00  0.00    -0.030 C 
HETATM    3  C   UNL     1      40.472 -13.730  -1.285  1.00  0.00     0.056 C 
HETATM    4  C   UNL     1      41.239 -14.227  -0.076  1.00  0.00     0.056 C 
HETATM    5  C   UNL     1      41.798 -13.397   0.877  1.00  0.00     0.012 C 
HETATM    6  S   UNL     1      42.572 -14.314   2.084  1.00  0.00    -0.055 SA
HETATM    7  C   UNL     1      41.856 -15.712   1.414  1.00  0.00     0.173 C 
HETATM    8  N   UNL     1      41.272 -15.572   0.250  1.00  0.00    -0.227 NA
HETATM    9  C   UNL     1      41.697 -11.916   0.917  1.00  0.00     0.055 C 
HETATM   10  C   UNL     1      40.526 -11.440   0.011  1.00  0.00     0.012 C 
HETATM   11  C   UNL     1      39.090 -11.406   0.708  1.00  0.00     0.008 C 
HETATM   12  C   UNL     1      39.051 -10.117   1.583  1.00  0.00     0.020 C 
HETATM   13  C   UNL     1      37.957 -11.273  -0.358  1.00  0.00     0.128 C 
HETATM   14  C   UNL     1      38.458 -10.671  -1.663  1.00  0.00     0.033 C 
HETATM   15  C   UNL     1      39.463 -11.595  -2.349  1.00  0.00     0.013 C 
ENDROOT
BRANCH   3  16
HETATM   16  C   UNL     1      40.907 -14.456  -2.571  1.00  0.00     0.114 C 
BRANCH  16  17
HETATM   17  C   UNL     1      39.755 -15.082  -3.331  1.00  0.00     0.218 C 
HETATM   18  N   UNL     1      38.516 -14.755  -2.849  1.00  0.00    -0.355 N 
HETATM   19  H   UNL     1      38.428 -13.822  -2.444  1.00  0.00     0.162 HD
HETATM   20  O   UNL     1      39.949 -15.858  -4.264  1.00  0.00    -0.274 OA
BRANCH  18  21
HETATM   21  C   UNL     1      37.319 -15.313  -3.431  1.00  0.00     0.187 C 
BRANCH  21  22
HETATM   22  C   UNL     1      36.643 -14.261  -4.233  1.00  0.00     0.070 A 
HETATM   23  O   UNL     1      35.948 -14.674  -5.335  1.00  0.00    -0.325 OA
HETATM   24  C   UNL     1      35.419 -13.565  -5.911  1.00  0.00     0.142 A 
HETATM   25  C   UNL     1      35.763 -12.440  -5.201  1.00  0.00     0.027 A 
HETATM   26  C   UNL     1      36.560 -12.888  -4.121  1.00  0.00     0.036 A 
ENDBRANCH  21  22
ENDBRANCH  18  21
ENDBRANCH  16  17
ENDBRANCH   3  16
BRANCH  11  27
HETATM   27  C   UNL     1      38.748 -12.600   1.642  1.00  0.00     0.176 C 
BRANCH  27  28
HETATM   28  O   UNL     1      38.867 -12.272   3.022  1.00  0.00    -0.400 OA
HETATM   29  H   UNL     1      39.371 -12.999   3.427  1.00  0.00     0.209 HD
ENDBRANCH  27  28
ENDBRANCH  11  27
BRANCH   7  30
HETATM   30  N   UNL     1      41.912 -16.789   2.253  1.00  0.00    -0.305 N 
HETATM   31  C   UNL     1      41.345 -16.760   3.508  1.00  0.00     0.227 C 
HETATM   32  O   UNL     1      40.534 -15.916   3.897  1.00  0.00    -0.273 OA
HETATM   33  H   UNL     1      42.619 -17.470   2.028  1.00  0.00     0.171 HD
BRANCH  31  34
HETATM   34  C   UNL     1      41.861 -17.887   4.443  1.00  0.00     0.078 C 
HETATM   35  C   UNL     1      43.209 -18.607   4.138  1.00  0.00     0.014 C 
HETATM   36  C   UNL     1      43.460 -18.653   5.655  1.00  0.00     0.002 C 
HETATM   37  C   UNL     1      42.537 -17.427   5.770  1.00  0.00     0.014 C 
ENDBRANCH  31  34
ENDBRANCH   7  30
BRANCH  13  38
HETATM   38  O   UNL     1      37.372 -12.544  -0.642  1.00  0.00    -0.395 OA
HETATM   39  H   UNL     1      36.819 -12.801   0.118  1.00  0.00     0.210 HD
ENDBRANCH  13  38
TORSDOF 9
ENDMDL
