MODEL 1
REMARK VINA RESULT:      -8.1      0.000      0.000
REMARK  6 active torsions:
REMARK  status: ('A' for Active; 'I' for Inactive)
REMARK    1  A    between atoms: C_8  and  C_9 
REMARK    2  A    between atoms: C_9  and  C_10 
REMARK       I    between atoms: C_10  and  N_11 
REMARK    3  A    between atoms: N_11  and  C_12 
REMARK    4  A    between atoms: C_12  and  C_13 
REMARK    5  A    between atoms: C_13  and  N_14 
REMARK    6  A    between atoms: C_13  and  C_20 
ROOT
HETATM    1  C   UNL     1      43.601 -16.639   1.372  1.00  0.00     0.160 C 
ENDROOT
BRANCH   1   2
HETATM    2  N   UNL     1      42.340 -16.310   0.714  1.00  0.00    -0.358 N 
HETATM    3  C   UNL     1      41.833 -15.019   0.750  1.00  0.00     0.226 C 
HETATM    4  O   UNL     1      42.274 -14.185   1.536  1.00  0.00    -0.273 OA
HETATM    5  H   UNL     1      42.159 -16.803  -0.156  1.00  0.00     0.162 HD
BRANCH   3   6
HETATM    6  C   UNL     1      40.662 -14.771  -0.208  1.00  0.00     0.111 C 
HETATM    7  C   UNL     1      39.695 -13.747   0.383  1.00  0.00     0.025 C 
BRANCH   6   8
HETATM    8  C   UNL     1      41.163 -14.390  -1.571  1.00  0.00     0.004 A 
HETATM    9  C   UNL     1      41.934 -13.304  -1.957  1.00  0.00     0.033 A 
HETATM   10  C   UNL     1      42.531 -12.170  -1.209  1.00  0.00     0.070 C 
HETATM   11  N   UNL     1      42.103 -13.421  -3.309  1.00  0.00    -0.282 N 
HETATM   12  H   UNL     1      42.602 -12.797  -3.937  1.00  0.00     0.189 HD
HETATM   13  N   UNL     1      41.527 -14.510  -3.827  1.00  0.00    -0.179 NA
HETATM   14  C   UNL     1      40.924 -15.094  -2.790  1.00  0.00     0.060 A 
HETATM   15  C   UNL     1      40.134 -16.333  -3.009  1.00  0.00     0.073 C 
ENDBRANCH   6   8
ENDBRANCH   3   6
ENDBRANCH   1   2
BRANCH   1  16
HETATM   16  C   UNL     1      43.590 -16.919   2.915  1.00  0.00     0.238 C 
BRANCH  16  17
HETATM   17  N   UNL     1      42.276 -16.571   3.629  1.00  0.00    -0.061 N 
HETATM   18  H   UNL     1      41.702 -16.159   2.883  1.00  0.00     0.280 HD
HETATM   19  C   UNL     1      42.305 -15.553   4.737  1.00  0.00     0.236 C 
HETATM   20  C   UNL     1      42.067 -16.358   5.995  1.00  0.00     0.029 C 
HETATM   21  C   UNL     1      41.080 -17.418   5.552  1.00  0.00     0.029 C 
HETATM   22  C   UNL     1      41.480 -17.761   4.128  1.00  0.00     0.236 C 
ENDBRANCH  16  17
BRANCH  16  23
HETATM   23  C   UNL     1      43.994 -18.356   3.249  1.00  0.00    -0.024 A 
HETATM   24  C   UNL     1      43.890 -19.407   2.321  1.00  0.00     0.033 A 
HETATM   25  C   UNL     1      44.238 -20.712   2.684  1.00  0.00     0.034 A 
HETATM   26 CL   UNL     1      44.087 -21.976   1.528  1.00  0.00    -0.084 Cl
HETATM   27  C   UNL     1      44.696 -20.994   3.965  1.00  0.00     0.024 A 
HETATM   28  C   UNL     1      44.804 -19.964   4.896  1.00  0.00     0.002 A 
HETATM   29  C   UNL     1      44.453 -18.658   4.545  1.00  0.00     0.009 A 
ENDBRANCH  16  23
ENDBRANCH   1  16
TORSDOF 6
ENDMDL
MODEL 2
REMARK VINA RESULT:      -8.1      2.222      3.041
REMARK  6 active torsions:
REMARK  status: ('A' for Active; 'I' for Inactive)
REMARK    1  A    between atoms: C_8  and  C_9 
REMARK    2  A    between atoms: C_9  and  C_10 
REMARK       I    between atoms: C_10  and  N_11 
REMARK    3  A    between atoms: N_11  and  C_12 
REMARK    4  A    between atoms: C_12  and  C_13 
REMARK    5  A    between atoms: C_13  and  N_14 
REMARK    6  A    between atoms: C_13  and  C_20 
ROOT
HETATM    1  C   UNL     1      43.643 -17.372   1.061  1.00  0.00     0.160 C 
ENDROOT
BRANCH   1   2
HETATM    2  N   UNL     1      42.654 -16.322   0.832  1.00  0.00    -0.358 N 
HETATM    3  C   UNL     1      41.299 -16.577   0.976  1.00  0.00     0.226 C 
HETATM    4  O   UNL     1      40.872 -17.727   1.039  1.00  0.00    -0.273 OA
HETATM    5  H   UNL     1      42.934 -15.388   1.120  1.00  0.00     0.162 HD
BRANCH   3   6
HETATM    6  C   UNL     1      40.414 -15.324   0.977  1.00  0.00     0.111 C 
HETATM    7  C   UNL     1      39.198 -15.527   1.877  1.00  0.00     0.025 C 
BRANCH   6   8
HETATM    8  C   UNL     1      41.217 -14.108   1.337  1.00  0.00     0.004 A 
HETATM    9  C   UNL     1      41.523 -13.588   2.586  1.00  0.00     0.033 A 
HETATM   10  C   UNL     1      41.193 -14.017   3.968  1.00  0.00     0.070 C 
HETATM   11  N   UNL     1      42.273 -12.468   2.357  1.00  0.00    -0.282 N 
HETATM   12  H   UNL     1      42.662 -11.822   3.038  1.00  0.00     0.189 HD
HETATM   13  N   UNL     1      42.502 -12.234   1.062  1.00  0.00    -0.179 NA
HETATM   14  C   UNL     1      41.842 -13.203   0.425  1.00  0.00     0.060 A 
HETATM   15  C   UNL     1      41.841 -13.232  -1.060  1.00  0.00     0.073 C 
ENDBRANCH   6   8
ENDBRANCH   3   6
ENDBRANCH   1   2
BRANCH   1  16
HETATM   16  C   UNL     1      43.949 -17.805   2.536  1.00  0.00     0.238 C 
BRANCH  16  17
HETATM   17  N   UNL     1      43.008 -17.213   3.595  1.00  0.00    -0.061 N 
HETATM   18  H   UNL     1      42.430 -16.555   3.057  1.00  0.00     0.280 HD
HETATM   19  C   UNL     1      43.604 -16.413   4.722  1.00  0.00     0.236 C 
HETATM   20  C   UNL     1      43.433 -17.292   5.940  1.00  0.00     0.029 C 
HETATM   21  C   UNL     1      42.095 -17.961   5.705  1.00  0.00     0.029 C 
HETATM   22  C   UNL     1      42.027 -18.194   4.206  1.00  0.00     0.236 C 
ENDBRANCH  16  17
BRANCH  16  23
HETATM   23  C   UNL     1      44.013 -19.325   2.695  1.00  0.00    -0.024 A 
HETATM   24  C   UNL     1      44.588 -19.946   3.817  1.00  0.00     0.033 A 
HETATM   25  C   UNL     1      44.656 -21.340   3.900  1.00  0.00     0.034 A 
HETATM   26 CL   UNL     1      45.377 -22.068   5.282  1.00  0.00    -0.084 Cl
HETATM   27  C   UNL     1      44.155 -22.138   2.879  1.00  0.00     0.024 A 
HETATM   28  C   UNL     1      43.582 -21.538   1.760  1.00  0.00     0.002 A 
HETATM   29  C   UNL     1      43.515 -20.146   1.665  1.00  0.00     0.009 A 
ENDBRANCH  16  23
ENDBRANCH   1  16
TORSDOF 6
ENDMDL
MODEL 3
REMARK VINA RESULT:      -8.0      1.515      2.354
REMARK  6 active torsions:
REMARK  status: ('A' for Active; 'I' for Inactive)
REMARK    1  A    between atoms: C_8  and  C_9 
REMARK    2  A    between atoms: C_9  and  C_10 
REMARK       I    between atoms: C_10  and  N_11 
REMARK    3  A    between atoms: N_11  and  C_12 
REMARK    4  A    between atoms: C_12  and  C_13 
REMARK    5  A    between atoms: C_13  and  N_14 
REMARK    6  A    between atoms: C_13  and  C_20 
ROOT
HETATM    1  C   UNL     1      41.390 -17.292   2.613  1.00  0.00     0.160 C 
ENDROOT
BRANCH   1   2
HETATM    2  N   UNL     1      40.904 -16.122   1.885  1.00  0.00    -0.358 N 
HETATM    3  C   UNL     1      41.346 -15.849   0.600  1.00  0.00     0.226 C 
HETATM    4  O   UNL     1      42.334 -16.411   0.135  1.00  0.00    -0.273 OA
HETATM    5  H   UNL     1      39.931 -15.877   2.051  1.00  0.00     0.162 HD
BRANCH   3   6
HETATM    6  C   UNL     1      40.548 -14.760  -0.128  1.00  0.00     0.111 C 
HETATM    7  C   UNL     1      39.319 -14.363   0.686  1.00  0.00     0.025 C 
BRANCH   6   8
HETATM    8  C   UNL     1      41.431 -13.595  -0.469  1.00  0.00     0.004 A 
HETATM    9  C   UNL     1      41.893 -13.168  -1.705  1.00  0.00     0.033 A 
HETATM   10  C   UNL     1      41.695 -13.671  -3.087  1.00  0.00     0.070 C 
HETATM   11  N   UNL     1      42.667 -12.067  -1.461  1.00  0.00    -0.282 N 
HETATM   12  H   UNL     1      43.181 -11.499  -2.128  1.00  0.00     0.189 HD
HETATM   13  N   UNL     1      42.722 -11.729  -0.169  1.00  0.00    -0.179 NA
HETATM   14  C   UNL     1      42.002 -12.665   0.453  1.00  0.00     0.060 A 
HETATM   15  C   UNL     1      41.879 -12.627   1.933  1.00  0.00     0.073 C 
ENDBRANCH   6   8
ENDBRANCH   3   6
ENDBRANCH   1   2
BRANCH   1  16
HETATM   16  C   UNL     1      42.735 -17.173   3.409  1.00  0.00     0.238 C 
BRANCH  16  17
HETATM   17  N   UNL     1      42.613 -16.533   4.800  1.00  0.00    -0.061 N 
HETATM   18  H   UNL     1      43.287 -17.066   5.365  1.00  0.00     0.280 HD
HETATM   19  C   UNL     1      41.298 -16.631   5.525  1.00  0.00     0.236 C 
HETATM   20  C   UNL     1      40.749 -15.223   5.499  1.00  0.00     0.029 C 
HETATM   21  C   UNL     1      41.984 -14.361   5.652  1.00  0.00     0.029 C 
HETATM   22  C   UNL     1      43.074 -15.092   4.889  1.00  0.00     0.236 C 
ENDBRANCH  16  17
BRANCH  16  23
HETATM   23  C   UNL     1      43.466 -18.512   3.519  1.00  0.00    -0.024 A 
HETATM   24  C   UNL     1      43.436 -19.478   2.499  1.00  0.00     0.033 A 
HETATM   25  C   UNL     1      44.090 -20.703   2.660  1.00  0.00     0.034 A 
HETATM   26 CL   UNL     1      44.024 -21.867   1.396  1.00  0.00    -0.084 Cl
HETATM   27  C   UNL     1      44.784 -20.989   3.830  1.00  0.00     0.024 A 
HETATM   28  C   UNL     1      44.823 -20.042   4.852  1.00  0.00     0.002 A 
HETATM   29  C   UNL     1      44.167 -18.818   4.701  1.00  0.00     0.009 A 
ENDBRANCH  16  23
ENDBRANCH   1  16
TORSDOF 6
ENDMDL
MODEL 4
REMARK VINA RESULT:      -8.0      1.663      2.450
REMARK  6 active torsions:
REMARK  status: ('A' for Active; 'I' for Inactive)
REMARK    1  A    between atoms: C_8  and  C_9 
REMARK    2  A    between atoms: C_9  and  C_10 
REMARK       I    between atoms: C_10  and  N_11 
REMARK    3  A    between atoms: N_11  and  C_12 
REMARK    4  A    between atoms: C_12  and  C_13 
REMARK    5  A    between atoms: C_13  and  N_14 
REMARK    6  A    between atoms: C_13  and  C_20 
ROOT
HETATM    1  C   UNL     1      41.826 -17.191   2.349  1.00  0.00     0.160 C 
ENDROOT
BRANCH   1   2
HETATM    2  N   UNL     1      41.569 -16.015   1.522  1.00  0.00    -0.358 N 
HETATM    3  C   UNL     1      40.334 -15.386   1.544  1.00  0.00     0.226 C 
HETATM    4  O   UNL     1      39.352 -15.930   2.042  1.00  0.00    -0.273 OA
HETATM    5  H   UNL     1      42.356 -15.382   1.405  1.00  0.00     0.162 HD
BRANCH   3   6
HETATM    6  C   UNL     1      40.305 -14.021   0.844  1.00  0.00     0.111 C 
HETATM    7  C   UNL     1      41.722 -13.491   0.645  1.00  0.00     0.025 C 
BRANCH   6   8
HETATM    8  C   UNL     1      39.519 -14.097  -0.433  1.00  0.00     0.004 A 
HETATM    9  C   UNL     1      39.848 -14.698  -1.639  1.00  0.00     0.033 A 
HETATM   10  C   UNL     1      41.036 -15.460  -2.098  1.00  0.00     0.070 C 
HETATM   11  N   UNL     1      38.791 -14.471  -2.477  1.00  0.00    -0.282 N 
HETATM   12  H   UNL     1      38.686 -14.752  -3.447  1.00  0.00     0.189 HD
HETATM   13  N   UNL     1      37.792 -13.793  -1.903  1.00  0.00    -0.179 NA
HETATM   14  C   UNL     1      38.230 -13.530  -0.671  1.00  0.00     0.060 A 
HETATM   15  C   UNL     1      37.377 -12.740   0.254  1.00  0.00     0.073 C 
ENDBRANCH   6   8
ENDBRANCH   3   6
ENDBRANCH   1   2
BRANCH   1  16
HETATM   16  C   UNL     1      43.049 -17.164   3.330  1.00  0.00     0.238 C 
BRANCH  16  17
HETATM   17  N   UNL     1      42.762 -16.556   4.710  1.00  0.00    -0.061 N 
HETATM   18  H   UNL     1      43.351 -17.114   5.342  1.00  0.00     0.280 HD
HETATM   19  C   UNL     1      41.365 -16.648   5.262  1.00  0.00     0.236 C 
HETATM   20  C   UNL     1      40.843 -15.230   5.204  1.00  0.00     0.029 C 
HETATM   21  C   UNL     1      42.062 -14.394   5.533  1.00  0.00     0.029 C 
HETATM   22  C   UNL     1      43.229 -15.126   4.894  1.00  0.00     0.236 C 
ENDBRANCH  16  17
BRANCH  16  23
HETATM   23  C   UNL     1      43.692 -18.542   3.496  1.00  0.00    -0.024 A 
HETATM   24  C   UNL     1      43.663 -19.518   2.486  1.00  0.00     0.033 A 
HETATM   25  C   UNL     1      44.233 -20.777   2.698  1.00  0.00     0.034 A 
HETATM   26 CL   UNL     1      44.170 -21.953   1.444  1.00  0.00    -0.084 Cl
HETATM   27  C   UNL     1      44.842 -21.087   3.909  1.00  0.00     0.024 A 
HETATM   28  C   UNL     1      44.877 -20.130   4.921  1.00  0.00     0.002 A 
HETATM   29  C   UNL     1      44.305 -18.871   4.720  1.00  0.00     0.009 A 
ENDBRANCH  16  23
ENDBRANCH   1  16
TORSDOF 6
ENDMDL
MODEL 5
REMARK VINA RESULT:      -8.0      2.011      2.789
REMARK  6 active torsions:
REMARK  status: ('A' for Active; 'I' for Inactive)
REMARK    1  A    between atoms: C_8  and  C_9 
REMARK    2  A    between atoms: C_9  and  C_10 
REMARK       I    between atoms: C_10  and  N_11 
REMARK    3  A    between atoms: N_11  and  C_12 
REMARK    4  A    between atoms: C_12  and  C_13 
REMARK    5  A    between atoms: C_13  and  N_14 
REMARK    6  A    between atoms: C_13  and  C_20 
ROOT
HETATM    1  C   UNL     1      41.559 -16.908   2.061  1.00  0.00     0.160 C 
ENDROOT
BRANCH   1   2
HETATM    2  N   UNL     1      41.126 -15.990   1.011  1.00  0.00    -0.358 N 
HETATM    3  C   UNL     1      40.025 -15.167   1.194  1.00  0.00     0.226 C 
HETATM    4  O   UNL     1      39.234 -15.360   2.113  1.00  0.00    -0.273 OA
HETATM    5  H   UNL     1      41.872 -15.570   0.462  1.00  0.00     0.162 HD
BRANCH   3   6
HETATM    6  C   UNL     1      39.864 -14.076   0.128  1.00  0.00     0.111 C 
HETATM    7  C   UNL     1      38.394 -13.700  -0.035  1.00  0.00     0.025 C 
BRANCH   6   8
HETATM    8  C   UNL     1      40.743 -12.899   0.438  1.00  0.00     0.004 A 
HETATM    9  C   UNL     1      40.658 -11.981   1.474  1.00  0.00     0.033 A 
HETATM   10  C   UNL     1      39.721 -11.827   2.614  1.00  0.00     0.070 C 
HETATM   11  N   UNL     1      41.694 -11.108   1.292  1.00  0.00    -0.282 N 
HETATM   12  H   UNL     1      41.938 -10.295   1.851  1.00  0.00     0.189 HD
HETATM   13  N   UNL     1      42.461 -11.400   0.237  1.00  0.00    -0.179 NA
HETATM   14  C   UNL     1      41.879 -12.468  -0.313  1.00  0.00     0.060 A 
HETATM   15  C   UNL     1      42.449 -13.051  -1.555  1.00  0.00     0.073 C 
ENDBRANCH   6   8
ENDBRANCH   3   6
ENDBRANCH   1   2
BRANCH   1  16
HETATM   16  C   UNL     1      43.032 -16.802   2.588  1.00  0.00     0.238 C 
BRANCH  16  17
HETATM   17  N   UNL     1      43.243 -15.797   3.729  1.00  0.00    -0.061 N 
HETATM   18  H   UNL     1      44.039 -16.190   4.246  1.00  0.00     0.280 HD
HETATM   19  C   UNL     1      42.144 -15.614   4.741  1.00  0.00     0.236 C 
HETATM   20  C   UNL     1      41.588 -14.238   4.448  1.00  0.00     0.029 C 
HETATM   21  C   UNL     1      42.814 -13.441   4.055  1.00  0.00     0.029 C 
HETATM   22  C   UNL     1      43.695 -14.416   3.296  1.00  0.00     0.236 C 
ENDBRANCH  16  17
BRANCH  16  23
HETATM   23  C   UNL     1      43.606 -18.163   2.986  1.00  0.00    -0.024 A 
HETATM   24  C   UNL     1      43.594 -19.272   2.124  1.00  0.00     0.033 A 
HETATM   25  C   UNL     1      44.098 -20.506   2.545  1.00  0.00     0.034 A 
HETATM   26 CL   UNL     1      44.057 -21.847   1.469  1.00  0.00    -0.084 Cl
HETATM   27  C   UNL     1      44.625 -20.659   3.823  1.00  0.00     0.024 A 
HETATM   28  C   UNL     1      44.643 -19.569   4.690  1.00  0.00     0.002 A 
HETATM   29  C   UNL     1      44.136 -18.333   4.279  1.00  0.00     0.009 A 
ENDBRANCH  16  23
ENDBRANCH   1  16
TORSDOF 6
ENDMDL
MODEL 6
REMARK VINA RESULT:      -8.0      2.973      5.127
REMARK  6 active torsions:
REMARK  status: ('A' for Active; 'I' for Inactive)
REMARK    1  A    between atoms: C_8  and  C_9 
REMARK    2  A    between atoms: C_9  and  C_10 
REMARK       I    between atoms: C_10  and  N_11 
REMARK    3  A    between atoms: N_11  and  C_12 
REMARK    4  A    between atoms: C_12  and  C_13 
REMARK    5  A    between atoms: C_13  and  N_14 
REMARK    6  A    between atoms: C_13  and  C_20 
ROOT
HETATM    1  C   UNL     1      43.074 -18.418   1.916  1.00  0.00     0.160 C 
ENDROOT
BRANCH   1   2
HETATM    2  N   UNL     1      43.081 -16.963   1.798  1.00  0.00    -0.358 N 
HETATM    3  C   UNL     1      42.139 -16.306   1.020  1.00  0.00     0.226 C 
HETATM    4  O   UNL     1      41.446 -16.918   0.211  1.00  0.00    -0.273 OA
HETATM    5  H   UNL     1      43.351 -16.457   2.638  1.00  0.00     0.162 HD
BRANCH   3   6
HETATM    6  C   UNL     1      42.104 -14.786   1.215  1.00  0.00     0.111 C 
HETATM    7  C   UNL     1      41.615 -14.094  -0.055  1.00  0.00     0.025 C 
BRANCH   6   8
HETATM    8  C   UNL     1      41.297 -14.426   2.429  1.00  0.00     0.004 A 
HETATM    9  C   UNL     1      39.936 -14.563   2.659  1.00  0.00     0.033 A 
HETATM   10  C   UNL     1      38.821 -15.096   1.837  1.00  0.00     0.070 C 
HETATM   11  N   UNL     1      39.713 -14.077   3.917  1.00  0.00    -0.282 N 
HETATM   12  H   UNL     1      38.831 -14.004   4.416  1.00  0.00     0.189 HD
HETATM   13  N   UNL     1      40.823 -13.660   4.533  1.00  0.00    -0.179 NA
HETATM   14  C   UNL     1      41.792 -13.835   3.632  1.00  0.00     0.060 A 
HETATM   15  C   UNL     1      43.182 -13.432   3.966  1.00  0.00     0.073 C 
ENDBRANCH   6   8
ENDBRANCH   3   6
ENDBRANCH   1   2
BRANCH   1  16
HETATM   16  C   UNL     1      43.069 -19.053   3.350  1.00  0.00     0.238 C 
BRANCH  16  17
HETATM   17  N   UNL     1      44.352 -19.805   3.731  1.00  0.00    -0.061 N 
HETATM   18  H   UNL     1      45.062 -19.062   3.761  1.00  0.00     0.280 HD
HETATM   19  C   UNL     1      44.885 -20.847   2.785  1.00  0.00     0.236 C 
HETATM   20  C   UNL     1      44.632 -22.160   3.490  1.00  0.00     0.029 C 
HETATM   21  C   UNL     1      44.870 -21.828   4.948  1.00  0.00     0.029 C 
HETATM   22  C   UNL     1      44.355 -20.411   5.121  1.00  0.00     0.236 C 
ENDBRANCH  16  17
BRANCH  16  23
HETATM   23  C   UNL     1      42.726 -18.033   4.437  1.00  0.00    -0.024 A 
HETATM   24  C   UNL     1      43.702 -17.245   5.072  1.00  0.00     0.033 A 
HETATM   25  C   UNL     1      43.345 -16.352   6.086  1.00  0.00     0.034 A 
HETATM   26 CL   UNL     1      44.566 -15.412   6.850  1.00  0.00    -0.084 Cl
HETATM   27  C   UNL     1      42.019 -16.223   6.484  1.00  0.00     0.024 A 
HETATM   28  C   UNL     1      41.040 -16.997   5.865  1.00  0.00     0.002 A 
HETATM   29  C   UNL     1      41.389 -17.897   4.855  1.00  0.00     0.009 A 
ENDBRANCH  16  23
ENDBRANCH   1  16
TORSDOF 6
ENDMDL
MODEL 7
REMARK VINA RESULT:      -8.0      2.628      4.094
REMARK  6 active torsions:
REMARK  status: ('A' for Active; 'I' for Inactive)
REMARK    1  A    between atoms: C_8  and  C_9 
REMARK    2  A    between atoms: C_9  and  C_10 
REMARK       I    between atoms: C_10  and  N_11 
REMARK    3  A    between atoms: N_11  and  C_12 
REMARK    4  A    between atoms: C_12  and  C_13 
REMARK    5  A    between atoms: C_13  and  N_14 
REMARK    6  A    between atoms: C_13  and  C_20 
ROOT
HETATM    1  C   UNL     1      42.153 -17.736   2.244  1.00  0.00     0.160 C 
ENDROOT
BRANCH   1   2
HETATM    2  N   UNL     1      42.194 -16.353   1.775  1.00  0.00    -0.358 N 
HETATM    3  C   UNL     1      41.053 -15.565   1.783  1.00  0.00     0.226 C 
HETATM    4  O   UNL     1      39.939 -16.061   1.928  1.00  0.00    -0.273 OA
HETATM    5  H   UNL     1      43.051 -15.846   1.982  1.00  0.00     0.162 HD
BRANCH   3   6
HETATM    6  C   UNL     1      41.310 -14.075   1.528  1.00  0.00     0.111 C 
HETATM    7  C   UNL     1      40.312 -13.526   0.511  1.00  0.00     0.025 C 
BRANCH   6   8
HETATM    8  C   UNL     1      41.317 -13.310   2.819  1.00  0.00     0.004 A 
HETATM    9  C   UNL     1      40.316 -12.545   3.399  1.00  0.00     0.033 A 
HETATM   10  C   UNL     1      38.929 -12.215   2.988  1.00  0.00     0.070 C 
HETATM   11  N   UNL     1      40.837 -12.060   4.566  1.00  0.00    -0.282 N 
HETATM   12  H   UNL     1      40.395 -11.449   5.247  1.00  0.00     0.189 HD
HETATM   13  N   UNL     1      42.087 -12.470   4.804  1.00  0.00    -0.179 NA
HETATM   14  C   UNL     1      42.406 -13.205   3.738  1.00  0.00     0.060 A 
HETATM   15  C   UNL     1      43.765 -13.798   3.640  1.00  0.00     0.073 C 
ENDBRANCH   6   8
ENDBRANCH   3   6
ENDBRANCH   1   2
BRANCH   1  16
HETATM   16  C   UNL     1      43.165 -18.179   3.357  1.00  0.00     0.238 C 
BRANCH  16  17
HETATM   17  N   UNL     1      42.680 -17.965   4.798  1.00  0.00    -0.061 N 
HETATM   18  H   UNL     1      42.896 -18.860   5.256  1.00  0.00     0.280 HD
HETATM   19  C   UNL     1      41.214 -17.724   5.037  1.00  0.00     0.236 C 
HETATM   20  C   UNL     1      41.133 -16.269   5.440  1.00  0.00     0.029 C 
HETATM   21  C   UNL     1      42.390 -16.060   6.257  1.00  0.00     0.029 C 
HETATM   22  C   UNL     1      43.446 -16.922   5.587  1.00  0.00     0.236 C 
ENDBRANCH  16  17
BRANCH  16  23
HETATM   23  C   UNL     1      43.629 -19.626   3.178  1.00  0.00    -0.024 A 
HETATM   24  C   UNL     1      44.249 -20.355   4.207  1.00  0.00     0.033 A 
HETATM   25  C   UNL     1      44.689 -21.663   3.986  1.00  0.00     0.034 A 
HETATM   26 CL   UNL     1      45.455 -22.523   5.263  1.00  0.00    -0.084 Cl
HETATM   27  C   UNL     1      44.519 -22.269   2.746  1.00  0.00     0.024 A 
HETATM   28  C   UNL     1      43.907 -21.560   1.715  1.00  0.00     0.002 A 
HETATM   29  C   UNL     1      43.470 -20.249   1.927  1.00  0.00     0.009 A 
ENDBRANCH  16  23
ENDBRANCH   1  16
TORSDOF 6
ENDMDL
MODEL 8
REMARK VINA RESULT:      -8.0      1.563      2.560
REMARK  6 active torsions:
REMARK  status: ('A' for Active; 'I' for Inactive)
REMARK    1  A    between atoms: C_8  and  C_9 
REMARK    2  A    between atoms: C_9  and  C_10 
REMARK       I    between atoms: C_10  and  N_11 
REMARK    3  A    between atoms: N_11  and  C_12 
REMARK    4  A    between atoms: C_12  and  C_13 
REMARK    5  A    between atoms: C_13  and  N_14 
REMARK    6  A    between atoms: C_13  and  C_20 
ROOT
HETATM    1  C   UNL     1      41.060 -16.903   2.595  1.00  0.00     0.160 C 
ENDROOT
BRANCH   1   2
HETATM    2  N   UNL     1      40.432 -16.321   1.412  1.00  0.00    -0.358 N 
HETATM    3  C   UNL     1      39.628 -15.196   1.513  1.00  0.00     0.226 C 
HETATM    4  O   UNL     1      39.208 -14.811   2.601  1.00  0.00    -0.273 OA
HETATM    5  H   UNL     1      40.984 -16.362   0.559  1.00  0.00     0.162 HD
BRANCH   3   6
HETATM    6  C   UNL     1      39.273 -14.547   0.170  1.00  0.00     0.111 C 
HETATM    7  C   UNL     1      38.193 -13.485   0.357  1.00  0.00     0.025 C 
BRANCH   6   8
HETATM    8  C   UNL     1      40.505 -14.022  -0.508  1.00  0.00     0.004 A 
HETATM    9  C   UNL     1      41.161 -14.489  -1.637  1.00  0.00     0.033 A 
HETATM   10  C   UNL     1      40.903 -15.623  -2.559  1.00  0.00     0.070 C 
HETATM   11  N   UNL     1      42.231 -13.659  -1.825  1.00  0.00    -0.282 N 
HETATM   12  H   UNL     1      42.944 -13.705  -2.547  1.00  0.00     0.189 HD
HETATM   13  N   UNL     1      42.307 -12.674  -0.925  1.00  0.00    -0.179 NA
HETATM   14  C   UNL     1      41.285 -12.897  -0.098  1.00  0.00     0.060 A 
HETATM   15  C   UNL     1      41.083 -12.003   1.071  1.00  0.00     0.073 C 
ENDBRANCH   6   8
ENDBRANCH   3   6
ENDBRANCH   1   2
BRANCH   1  16
HETATM   16  C   UNL     1      42.604 -16.716   2.792  1.00  0.00     0.238 C 
BRANCH  16  17
HETATM   17  N   UNL     1      43.002 -15.662   3.835  1.00  0.00    -0.061 N 
HETATM   18  H   UNL     1      43.763 -16.119   4.355  1.00  0.00     0.280 HD
HETATM   19  C   UNL     1      41.987 -15.249   4.867  1.00  0.00     0.236 C 
HETATM   20  C   UNL     1      41.608 -13.838   4.479  1.00  0.00     0.029 C 
HETATM   21  C   UNL     1      42.910 -13.251   3.976  1.00  0.00     0.029 C 
HETATM   22  C   UNL     1      43.615 -14.396   3.270  1.00  0.00     0.236 C 
ENDBRANCH  16  17
BRANCH  16  23
HETATM   23  C   UNL     1      43.316 -18.035   3.094  1.00  0.00    -0.024 A 
HETATM   24  C   UNL     1      43.290 -19.130   2.213  1.00  0.00     0.033 A 
HETATM   25  C   UNL     1      43.926 -20.329   2.549  1.00  0.00     0.034 A 
HETATM   26 CL   UNL     1      43.864 -21.652   1.452  1.00  0.00    -0.084 Cl
HETATM   27  C   UNL     1      44.599 -20.461   3.758  1.00  0.00     0.024 A 
HETATM   28  C   UNL     1      44.634 -19.385   4.643  1.00  0.00     0.002 A 
HETATM   29  C   UNL     1      43.996 -18.185   4.318  1.00  0.00     0.009 A 
ENDBRANCH  16  23
ENDBRANCH   1  16
TORSDOF 6
ENDMDL
MODEL 9
REMARK VINA RESULT:      -7.7      1.285      2.310
REMARK  6 active torsions:
REMARK  status: ('A' for Active; 'I' for Inactive)
REMARK    1  A    between atoms: C_8  and  C_9 
REMARK    2  A    between atoms: C_9  and  C_10 
REMARK       I    between atoms: C_10  and  N_11 
REMARK    3  A    between atoms: N_11  and  C_12 
REMARK    4  A    between atoms: C_12  and  C_13 
REMARK    5  A    between atoms: C_13  and  N_14 
REMARK    6  A    between atoms: C_13  and  C_20 
ROOT
HETATM    1  C   UNL     1      43.276 -15.578   2.426  1.00  0.00     0.160 C 
ENDROOT
BRANCH   1   2
HETATM    2  N   UNL     1      42.165 -15.108   1.603  1.00  0.00    -0.358 N 
HETATM    3  C   UNL     1      42.022 -13.763   1.300  1.00  0.00     0.226 C 
HETATM    4  O   UNL     1      42.651 -12.904   1.913  1.00  0.00    -0.273 OA
HETATM    5  H   UNL     1      41.880 -15.735   0.854  1.00  0.00     0.162 HD
BRANCH   3   6
HETATM    6  C   UNL     1      40.983 -13.464   0.213  1.00  0.00     0.111 C 
HETATM    7  C   UNL     1      40.240 -12.167   0.524  1.00  0.00     0.025 C 
BRANCH   6   8
HETATM    8  C   UNL     1      41.623 -13.465  -1.145  1.00  0.00     0.004 A 
HETATM    9  C   UNL     1      41.546 -14.410  -2.158  1.00  0.00     0.033 A 
HETATM   10  C   UNL     1      40.833 -15.706  -2.279  1.00  0.00     0.070 C 
HETATM   11  N   UNL     1      42.319 -13.933  -3.181  1.00  0.00    -0.282 N 
HETATM   12  H   UNL     1      42.509 -14.366  -4.080  1.00  0.00     0.189 HD
HETATM   13  N   UNL     1      42.869 -12.743  -2.924  1.00  0.00    -0.179 NA
HETATM   14  C   UNL     1      42.483 -12.457  -1.679  1.00  0.00     0.060 A 
HETATM   15  C   UNL     1      42.953 -11.202  -1.039  1.00  0.00     0.073 C 
ENDBRANCH   6   8
ENDBRANCH   3   6
ENDBRANCH   1   2
BRANCH   1  16
HETATM   16  C   UNL     1      42.971 -16.574   3.598  1.00  0.00     0.238 C 
BRANCH  16  17
HETATM   17  N   UNL     1      41.526 -16.544   4.117  1.00  0.00    -0.061 N 
HETATM   18  H   UNL     1      40.971 -16.791   3.287  1.00  0.00     0.280 HD
HETATM   19  C   UNL     1      40.965 -15.238   4.612  1.00  0.00     0.236 C 
HETATM   20  C   UNL     1      40.854 -15.420   6.109  1.00  0.00     0.029 C 
HETATM   21  C   UNL     1      40.453 -16.872   6.257  1.00  0.00     0.029 C 
HETATM   22  C   UNL     1      41.189 -17.602   5.148  1.00  0.00     0.236 C 
ENDBRANCH  16  17
BRANCH  16  23
HETATM   23  C   UNL     1      43.367 -18.011   3.258  1.00  0.00    -0.024 A 
HETATM   24  C   UNL     1      44.067 -18.837   4.155  1.00  0.00     0.033 A 
HETATM   25  C   UNL     1      44.439 -20.133   3.786  1.00  0.00     0.034 A 
HETATM   26 CL   UNL     1      45.306 -21.111   4.903  1.00  0.00    -0.084 Cl
HETATM   27  C   UNL     1      44.122 -20.631   2.528  1.00  0.00     0.024 A 
HETATM   28  C   UNL     1      43.429 -19.826   1.627  1.00  0.00     0.002 A 
HETATM   29  C   UNL     1      43.058 -18.527   1.985  1.00  0.00     0.009 A 
ENDBRANCH  16  23
ENDBRANCH   1  16
TORSDOF 6
ENDMDL
MODEL 10
REMARK VINA RESULT:      -7.6      2.332      3.344
REMARK  6 active torsions:
REMARK  status: ('A' for Active; 'I' for Inactive)
REMARK    1  A    between atoms: C_8  and  C_9 
REMARK    2  A    between atoms: C_9  and  C_10 
REMARK       I    between atoms: C_10  and  N_11 
REMARK    3  A    between atoms: N_11  and  C_12 
REMARK    4  A    between atoms: C_12  and  C_13 
REMARK    5  A    between atoms: C_13  and  N_14 
REMARK    6  A    between atoms: C_13  and  C_20 
ROOT
HETATM    1  C   UNL     1      42.238 -16.415   0.466  1.00  0.00     0.160 C 
ENDROOT
BRANCH   1   2
HETATM    2  N   UNL     1      42.093 -15.167  -0.278  1.00  0.00    -0.358 N 
HETATM    3  C   UNL     1      41.281 -15.096  -1.399  1.00  0.00     0.226 C 
HETATM    4  O   UNL     1      40.873 -16.113  -1.953  1.00  0.00    -0.273 OA
HETATM    5  H   UNL     1      42.099 -14.320   0.285  1.00  0.00     0.162 HD
BRANCH   3   6
HETATM    6  C   UNL     1      41.014 -13.672  -1.901  1.00  0.00     0.111 C 
HETATM    7  C   UNL     1      41.074 -13.621  -3.425  1.00  0.00     0.025 C 
BRANCH   6   8
HETATM    8  C   UNL     1      39.723 -13.148  -1.344  1.00  0.00     0.004 A 
HETATM    9  C   UNL     1      38.417 -13.468  -1.686  1.00  0.00     0.033 A 
HETATM   10  C   UNL     1      37.833 -14.408  -2.676  1.00  0.00     0.070 C 
HETATM   11  N   UNL     1      37.616 -12.703  -0.886  1.00  0.00    -0.282 N 
HETATM   12  H   UNL     1      36.601 -12.661  -0.866  1.00  0.00     0.189 HD
HETATM   13  N   UNL     1      38.295 -11.931  -0.032  1.00  0.00    -0.179 NA
HETATM   14  C   UNL     1      39.577 -12.164  -0.318  1.00  0.00     0.060 A 
HETATM   15  C   UNL     1      40.636 -11.430   0.422  1.00  0.00     0.073 C 
ENDBRANCH   6   8
ENDBRANCH   3   6
ENDBRANCH   1   2
BRANCH   1  16
HETATM   16  C   UNL     1      42.414 -16.344   2.022  1.00  0.00     0.238 C 
BRANCH  16  17
HETATM   17  N   UNL     1      41.130 -16.040   2.808  1.00  0.00    -0.061 N 
HETATM   18  H   UNL     1      41.241 -16.593   3.667  1.00  0.00     0.280 HD
HETATM   19  C   UNL     1      39.809 -16.454   2.218  1.00  0.00     0.236 C 
HETATM   20  C   UNL     1      39.149 -15.153   1.821  1.00  0.00     0.029 C 
HETATM   21  C   UNL     1      39.570 -14.197   2.918  1.00  0.00     0.029 C 
HETATM   22  C   UNL     1      40.987 -14.606   3.277  1.00  0.00     0.236 C 
ENDBRANCH  16  17
BRANCH  16  23
HETATM   23  C   UNL     1      43.081 -17.598   2.590  1.00  0.00    -0.024 A 
HETATM   24  C   UNL     1      43.146 -18.810   1.880  1.00  0.00     0.033 A 
HETATM   25  C   UNL     1      43.734 -19.940   2.456  1.00  0.00     0.034 A 
HETATM   26 CL   UNL     1      43.787 -21.409   1.564  1.00  0.00    -0.084 Cl
HETATM   27  C   UNL     1      44.269 -19.887   3.738  1.00  0.00     0.024 A 
HETATM   28  C   UNL     1      44.211 -18.694   4.455  1.00  0.00     0.002 A 
HETATM   29  C   UNL     1      43.620 -17.561   3.890  1.00  0.00     0.009 A 
ENDBRANCH  16  23
ENDBRANCH   1  16
TORSDOF 6
ENDMDL
