MODEL 1
REMARK VINA RESULT:      -8.8      0.000      0.000
REMARK  10 active torsions:
REMARK  status: ('A' for Active; 'I' for Inactive)
REMARK       I    between atoms: C_2  and  N_3 
REMARK    1  A    between atoms: N_3  and  C_4 
REMARK    2  A    between atoms: C_6  and  O_7 
REMARK    3  A    between atoms: O_7  and  C_8 
REMARK    4  A    between atoms: C_8  and  C_9 
REMARK    5  A    between atoms: C_9  and  C_10 
REMARK    6  A    between atoms: C_10  and  C_11 
REMARK    7  A    between atoms: C_11  and  N_12 
REMARK       I    between atoms: N_12  and  C_13 
REMARK    8  A    between atoms: C_13  and  C_14 
REMARK    9  A    between atoms: C_18  and  C_19 
REMARK   10  A    between atoms: C_21  and  O_22 
ROOT
HETATM    1  N   UNL     1      44.353 -13.346   7.948  1.00  0.00    -0.345 N 
HETATM    2  C   UNL     1      45.160 -12.568   8.738  1.00  0.00     0.270 C 
HETATM    3  O   UNL     1      46.353 -12.405   8.504  1.00  0.00    -0.266 OA
HETATM    4  H   UNL     1      43.383 -13.481   8.186  1.00  0.00     0.163 HD
ENDROOT
BRANCH   1   5
HETATM    5  C   UNL     1      44.880 -14.028   6.797  1.00  0.00     0.217 C 
BRANCH   5   6
HETATM    6  C   UNL     1      44.426 -15.419   6.794  1.00  0.00    -0.085 C 
BRANCH   6   7
HETATM    7  C   UNL     1      44.025 -16.660   6.800  1.00  0.00    -0.078 C 
BRANCH   7   8
HETATM    8  C   UNL     1      43.557 -18.107   6.808  1.00  0.00     0.269 C 
BRANCH   8   9
HETATM    9  O   UNL     1      44.549 -18.936   6.210  1.00  0.00    -0.339 OA
BRANCH   9  10
HETATM   10  C   UNL     1      44.338 -19.269   4.895  1.00  0.00     0.072 A 
HETATM   11  C   UNL     1      43.799 -18.429   3.913  1.00  0.00     0.066 A 
HETATM   12  C   UNL     1      43.637 -18.875   2.598  1.00  0.00     0.037 A 
HETATM   13  C   UNL     1      44.016 -20.184   2.274  1.00  0.00     0.029 A 
HETATM   14  C   UNL     1      44.550 -21.029   3.248  1.00  0.00     0.005 A 
HETATM   15  C   UNL     1      44.709 -20.570   4.554  1.00  0.00     0.037 A 
BRANCH  12  16
HETATM   16  N   UNL     1      43.112 -18.078   1.556  1.00  0.00    -0.327 N 
HETATM   17  C   UNL     1      41.903 -17.404   1.537  1.00  0.00     0.218 C 
HETATM   18  C   UNL     1      41.682 -16.647   0.250  1.00  0.00     0.117 C 
HETATM   19  O   UNL     1      41.047 -17.399   2.415  1.00  0.00    -0.274 OA
HETATM   20  H   UNL     1      43.691 -17.997   0.730  1.00  0.00     0.169 HD
ENDBRANCH  12  16
ENDBRANCH   9  10
ENDBRANCH   8   9
ENDBRANCH   7   8
ENDBRANCH   6   7
ENDBRANCH   5   6
ENDBRANCH   1   5
BRANCH   2  21
HETATM   21  C   UNL     1      44.513 -11.964   9.870  1.00  0.00     0.120 A 
HETATM   22  N   UNL     1      43.994 -12.718  10.884  1.00  0.00    -0.272 N 
HETATM   23  H   UNL     1      44.010 -13.731  10.956  1.00  0.00     0.189 HD
HETATM   24  N   UNL     1      43.396 -12.006  11.851  1.00  0.00    -0.174 NA
HETATM   25  C   UNL     1      43.556 -10.726  11.478  1.00  0.00     0.089 A 
HETATM   26  C   UNL     1      44.250 -10.659  10.237  1.00  0.00     0.071 A 
BRANCH  25  27
HETATM   27  C   UNL     1      43.042  -9.617  12.287  1.00  0.00    -0.003 A 
HETATM   28  C   UNL     1      42.905  -9.761  13.679  1.00  0.00     0.050 A 
HETATM   29  C   UNL     1      42.401  -8.719  14.460  1.00  0.00     0.069 A 
HETATM   30  C   UNL     1      42.038  -7.519  13.848  1.00  0.00     0.037 A 
HETATM   31  C   UNL     1      42.175  -7.356  12.470  1.00  0.00     0.004 A 
HETATM   32  C   UNL     1      42.674  -8.402  11.691  1.00  0.00     0.014 A 
BRANCH  29  33
HETATM   33  O   UNL     1      42.215  -8.746  15.816  1.00  0.00    -0.356 OA
HETATM   34  C   UNL     1      41.360  -7.750  16.364  1.00  0.00     0.210 C 
ENDBRANCH  29  33
ENDBRANCH  25  27
ENDBRANCH   2  21
TORSDOF 10
ENDMDL
MODEL 2
REMARK VINA RESULT:      -8.6      3.006     10.986
REMARK  10 active torsions:
REMARK  status: ('A' for Active; 'I' for Inactive)
REMARK       I    between atoms: C_2  and  N_3 
REMARK    1  A    between atoms: N_3  and  C_4 
REMARK    2  A    between atoms: C_6  and  O_7 
REMARK    3  A    between atoms: O_7  and  C_8 
REMARK    4  A    between atoms: C_8  and  C_9 
REMARK    5  A    between atoms: C_9  and  C_10 
REMARK    6  A    between atoms: C_10  and  C_11 
REMARK    7  A    between atoms: C_11  and  N_12 
REMARK       I    between atoms: N_12  and  C_13 
REMARK    8  A    between atoms: C_13  and  C_14 
REMARK    9  A    between atoms: C_18  and  C_19 
REMARK   10  A    between atoms: C_21  and  O_22 
ROOT
HETATM    1  N   UNL     1      40.188 -13.478   5.986  1.00  0.00    -0.345 N 
HETATM    2  C   UNL     1      41.504 -13.404   5.608  1.00  0.00     0.270 C 
HETATM    3  O   UNL     1      42.057 -12.339   5.352  1.00  0.00    -0.266 OA
HETATM    4  H   UNL     1      39.758 -14.373   6.161  1.00  0.00     0.163 HD
ENDROOT
BRANCH   1   5
HETATM    5  C   UNL     1      39.379 -12.294   6.090  1.00  0.00     0.217 C 
BRANCH   5   6
HETATM    6  C   UNL     1      39.501 -11.727   7.433  1.00  0.00    -0.085 C 
BRANCH   6   7
HETATM    7  C   UNL     1      39.606 -11.230   8.635  1.00  0.00    -0.078 C 
BRANCH   7   8
HETATM    8  C   UNL     1      39.729 -10.650  10.035  1.00  0.00     0.269 C 
BRANCH   8   9
HETATM    9  O   UNL     1      40.728  -9.634  10.048  1.00  0.00    -0.339 OA
BRANCH   9  10
HETATM   10  C   UNL     1      41.984 -10.033  10.430  1.00  0.00     0.072 A 
HETATM   11  C   UNL     1      43.021 -10.413   9.569  1.00  0.00     0.066 A 
HETATM   12  C   UNL     1      44.268 -10.796  10.073  1.00  0.00     0.037 A 
HETATM   13  C   UNL     1      44.467 -10.801  11.460  1.00  0.00     0.029 A 
HETATM   14  C   UNL     1      43.437 -10.427  12.324  1.00  0.00     0.005 A 
HETATM   15  C   UNL     1      42.200 -10.045  11.808  1.00  0.00     0.037 A 
BRANCH  12  16
HETATM   16  N   UNL     1      45.360 -11.179   9.263  1.00  0.00    -0.327 N 
HETATM   17  C   UNL     1      45.524 -12.369   8.577  1.00  0.00     0.218 C 
HETATM   18  C   UNL     1      46.822 -12.421   7.807  1.00  0.00     0.117 C 
HETATM   19  O   UNL     1      44.760 -13.328   8.569  1.00  0.00    -0.274 OA
HETATM   20  H   UNL     1      46.106 -10.500   9.182  1.00  0.00     0.169 HD
ENDBRANCH  12  16
ENDBRANCH   9  10
ENDBRANCH   8   9
ENDBRANCH   7   8
ENDBRANCH   6   7
ENDBRANCH   5   6
ENDBRANCH   1   5
BRANCH   2  21
HETATM   21  C   UNL     1      42.190 -14.663   5.519  1.00  0.00     0.120 A 
HETATM   22  N   UNL     1      42.884 -15.176   6.578  1.00  0.00    -0.272 N 
HETATM   23  H   UNL     1      42.983 -14.757   7.498  1.00  0.00     0.189 HD
HETATM   24  N   UNL     1      43.493 -16.344   6.326  1.00  0.00    -0.174 NA
HETATM   25  C   UNL     1      43.161 -16.632   5.057  1.00  0.00     0.089 A 
HETATM   26  C   UNL     1      42.346 -15.598   4.515  1.00  0.00     0.071 A 
BRANCH  25  27
HETATM   27  C   UNL     1      43.630 -17.853   4.395  1.00  0.00    -0.003 A 
HETATM   28  C   UNL     1      44.162 -18.910   5.155  1.00  0.00     0.050 A 
HETATM   29  C   UNL     1      44.627 -20.072   4.537  1.00  0.00     0.069 A 
HETATM   30  C   UNL     1      44.554 -20.185   3.148  1.00  0.00     0.037 A 
HETATM   31  C   UNL     1      44.022 -19.150   2.379  1.00  0.00     0.004 A 
HETATM   32  C   UNL     1      43.563 -17.987   3.000  1.00  0.00     0.014 A 
BRANCH  29  33
HETATM   33  O   UNL     1      45.172 -21.157   5.169  1.00  0.00    -0.356 OA
HETATM   34  C   UNL     1      44.830 -22.437   4.650  1.00  0.00     0.210 C 
ENDBRANCH  29  33
ENDBRANCH  25  27
ENDBRANCH   2  21
TORSDOF 10
ENDMDL
MODEL 3
REMARK VINA RESULT:      -8.5      3.197     11.144
REMARK  10 active torsions:
REMARK  status: ('A' for Active; 'I' for Inactive)
REMARK       I    between atoms: C_2  and  N_3 
REMARK    1  A    between atoms: N_3  and  C_4 
REMARK    2  A    between atoms: C_6  and  O_7 
REMARK    3  A    between atoms: O_7  and  C_8 
REMARK    4  A    between atoms: C_8  and  C_9 
REMARK    5  A    between atoms: C_9  and  C_10 
REMARK    6  A    between atoms: C_10  and  C_11 
REMARK    7  A    between atoms: C_11  and  N_12 
REMARK       I    between atoms: N_12  and  C_13 
REMARK    8  A    between atoms: C_13  and  C_14 
REMARK    9  A    between atoms: C_18  and  C_19 
REMARK   10  A    between atoms: C_21  and  O_22 
ROOT
HETATM    1  N   UNL     1      40.117 -13.094   6.481  1.00  0.00    -0.345 N 
HETATM    2  C   UNL     1      40.153 -13.809   5.312  1.00  0.00     0.270 C 
HETATM    3  O   UNL     1      39.638 -13.403   4.275  1.00  0.00    -0.266 OA
HETATM    4  H   UNL     1      40.525 -13.472   7.322  1.00  0.00     0.163 HD
ENDROOT
BRANCH   1   5
HETATM    5  C   UNL     1      39.452 -11.821   6.551  1.00  0.00     0.217 C 
BRANCH   5   6
HETATM    6  C   UNL     1      39.549 -11.285   7.909  1.00  0.00    -0.085 C 
BRANCH   6   7
HETATM    7  C   UNL     1      39.641 -10.815   9.122  1.00  0.00    -0.078 C 
BRANCH   7   8
HETATM    8  C   UNL     1      39.748 -10.268  10.537  1.00  0.00     0.269 C 
BRANCH   8   9
HETATM    9  O   UNL     1      40.976  -9.560  10.687  1.00  0.00    -0.339 OA
BRANCH   9  10
HETATM   10  C   UNL     1      42.096 -10.334  10.859  1.00  0.00     0.072 A 
HETATM   11  C   UNL     1      43.165 -10.441   9.961  1.00  0.00     0.066 A 
HETATM   12  C   UNL     1      44.263 -11.259  10.247  1.00  0.00     0.037 A 
HETATM   13  C   UNL     1      44.277 -11.980  11.447  1.00  0.00     0.029 A 
HETATM   14  C   UNL     1      43.213 -11.882  12.345  1.00  0.00     0.005 A 
HETATM   15  C   UNL     1      42.127 -11.061  12.049  1.00  0.00     0.037 A 
BRANCH  12  16
HETATM   16  N   UNL     1      45.379 -11.404   9.393  1.00  0.00    -0.327 N 
HETATM   17  C   UNL     1      45.648 -12.449   8.527  1.00  0.00     0.218 C 
HETATM   18  C   UNL     1      46.938 -12.255   7.767  1.00  0.00     0.117 C 
HETATM   19  O   UNL     1      44.977 -13.462   8.362  1.00  0.00    -0.274 OA
HETATM   20  H   UNL     1      46.057 -10.653   9.425  1.00  0.00     0.169 HD
ENDBRANCH  12  16
ENDBRANCH   9  10
ENDBRANCH   8   9
ENDBRANCH   7   8
ENDBRANCH   6   7
ENDBRANCH   5   6
ENDBRANCH   1   5
BRANCH   2  21
HETATM   21  C   UNL     1      40.826 -15.076   5.386  1.00  0.00     0.120 A 
HETATM   22  N   UNL     1      40.649 -15.919   6.447  1.00  0.00    -0.272 N 
HETATM   23  H   UNL     1      40.052 -15.762   7.253  1.00  0.00     0.189 HD
HETATM   24  N   UNL     1      41.370 -17.048   6.382  1.00  0.00    -0.174 NA
HETATM   25  C   UNL     1      42.026 -16.963   5.213  1.00  0.00     0.089 A 
HETATM   26  C   UNL     1      41.712 -15.738   4.560  1.00  0.00     0.071 A 
BRANCH  25  27
HETATM   27  C   UNL     1      42.932 -18.023   4.758  1.00  0.00    -0.003 A 
HETATM   28  C   UNL     1      42.782 -18.578   3.474  1.00  0.00     0.050 A 
HETATM   29  C   UNL     1      43.626 -19.599   3.033  1.00  0.00     0.069 A 
HETATM   30  C   UNL     1      44.634 -20.066   3.878  1.00  0.00     0.037 A 
HETATM   31  C   UNL     1      44.801 -19.522   5.150  1.00  0.00     0.004 A 
HETATM   32  C   UNL     1      43.952 -18.505   5.590  1.00  0.00     0.014 A 
BRANCH  29  33
HETATM   33  O   UNL     1      43.570 -20.220   1.815  1.00  0.00    -0.356 OA
HETATM   34  C   UNL     1      43.896 -21.604   1.786  1.00  0.00     0.210 C 
ENDBRANCH  29  33
ENDBRANCH  25  27
ENDBRANCH   2  21
TORSDOF 10
ENDMDL
MODEL 4
REMARK VINA RESULT:      -8.5      1.481      1.786
REMARK  10 active torsions:
REMARK  status: ('A' for Active; 'I' for Inactive)
REMARK       I    between atoms: C_2  and  N_3 
REMARK    1  A    between atoms: N_3  and  C_4 
REMARK    2  A    between atoms: C_6  and  O_7 
REMARK    3  A    between atoms: O_7  and  C_8 
REMARK    4  A    between atoms: C_8  and  C_9 
REMARK    5  A    between atoms: C_9  and  C_10 
REMARK    6  A    between atoms: C_10  and  C_11 
REMARK    7  A    between atoms: C_11  and  N_12 
REMARK       I    between atoms: N_12  and  C_13 
REMARK    8  A    between atoms: C_13  and  C_14 
REMARK    9  A    between atoms: C_18  and  C_19 
REMARK   10  A    between atoms: C_21  and  O_22 
ROOT
HETATM    1  N   UNL     1      44.285 -13.415   8.061  1.00  0.00    -0.345 N 
HETATM    2  C   UNL     1      45.001 -12.512   8.806  1.00  0.00     0.270 C 
HETATM    3  O   UNL     1      46.121 -12.131   8.482  1.00  0.00    -0.266 OA
HETATM    4  H   UNL     1      43.379 -13.728   8.373  1.00  0.00     0.163 HD
ENDROOT
BRANCH   1   5
HETATM    5  C   UNL     1      44.830 -13.976   6.854  1.00  0.00     0.217 C 
BRANCH   5   6
HETATM    6  C   UNL     1      44.530 -15.407   6.794  1.00  0.00    -0.085 C 
BRANCH   6   7
HETATM    7  C   UNL     1      44.273 -16.684   6.739  1.00  0.00    -0.078 C 
BRANCH   7   8
HETATM    8  C   UNL     1      43.971 -18.173   6.676  1.00  0.00     0.269 C 
BRANCH   8   9
HETATM    9  O   UNL     1      42.807 -18.395   5.885  1.00  0.00    -0.339 OA
BRANCH   9  10
HETATM   10  C   UNL     1      43.017 -18.540   4.537  1.00  0.00     0.072 A 
HETATM   11  C   UNL     1      42.372 -17.820   3.524  1.00  0.00     0.066 A 
HETATM   12  C   UNL     1      42.674 -18.048   2.178  1.00  0.00     0.037 A 
HETATM   13  C   UNL     1      43.633 -19.016   1.852  1.00  0.00     0.029 A 
HETATM   14  C   UNL     1      44.278 -19.739   2.856  1.00  0.00     0.005 A 
HETATM   15  C   UNL     1      43.970 -19.500   4.194  1.00  0.00     0.037 A 
BRANCH  12  16
HETATM   16  N   UNL     1      42.070 -17.352   1.107  1.00  0.00    -0.327 N 
HETATM   17  C   UNL     1      41.989 -15.982   0.931  1.00  0.00     0.218 C 
HETATM   18  C   UNL     1      41.272 -15.603  -0.342  1.00  0.00     0.117 C 
HETATM   19  O   UNL     1      42.404 -15.114   1.691  1.00  0.00    -0.274 OA
HETATM   20  H   UNL     1      41.648 -17.929   0.390  1.00  0.00     0.169 HD
ENDBRANCH  12  16
ENDBRANCH   9  10
ENDBRANCH   8   9
ENDBRANCH   7   8
ENDBRANCH   6   7
ENDBRANCH   5   6
ENDBRANCH   1   5
BRANCH   2  21
HETATM   21  C   UNL     1      44.351 -12.049  10.001  1.00  0.00     0.120 A 
HETATM   22  N   UNL     1      44.201 -12.858  11.092  1.00  0.00    -0.272 N 
HETATM   23  H   UNL     1      44.517 -13.818  11.184  1.00  0.00     0.189 HD
HETATM   24  N   UNL     1      43.547 -12.288  12.115  1.00  0.00    -0.174 NA
HETATM   25  C   UNL     1      43.284 -11.040  11.696  1.00  0.00     0.089 A 
HETATM   26  C   UNL     1      43.771 -10.853  10.371  1.00  0.00     0.071 A 
BRANCH  25  27
HETATM   27  C   UNL     1      42.575 -10.075  12.543  1.00  0.00    -0.003 A 
HETATM   28  C   UNL     1      41.316  -9.585  12.154  1.00  0.00     0.050 A 
HETATM   29  C   UNL     1      40.637  -8.653  12.942  1.00  0.00     0.069 A 
HETATM   30  C   UNL     1      41.215  -8.213  14.133  1.00  0.00     0.037 A 
HETATM   31  C   UNL     1      42.460  -8.694  14.537  1.00  0.00     0.004 A 
HETATM   32  C   UNL     1      43.138  -9.621  13.744  1.00  0.00     0.014 A 
BRANCH  29  33
HETATM   33  O   UNL     1      39.417  -8.100  12.662  1.00  0.00    -0.356 OA
HETATM   34  C   UNL     1      38.350  -9.003  12.400  1.00  0.00     0.210 C 
ENDBRANCH  29  33
ENDBRANCH  25  27
ENDBRANCH   2  21
TORSDOF 10
ENDMDL
MODEL 5
REMARK VINA RESULT:      -8.1      2.521      3.244
REMARK  10 active torsions:
REMARK  status: ('A' for Active; 'I' for Inactive)
REMARK       I    between atoms: C_2  and  N_3 
REMARK    1  A    between atoms: N_3  and  C_4 
REMARK    2  A    between atoms: C_6  and  O_7 
REMARK    3  A    between atoms: O_7  and  C_8 
REMARK    4  A    between atoms: C_8  and  C_9 
REMARK    5  A    between atoms: C_9  and  C_10 
REMARK    6  A    between atoms: C_10  and  C_11 
REMARK    7  A    between atoms: C_11  and  N_12 
REMARK       I    between atoms: N_12  and  C_13 
REMARK    8  A    between atoms: C_13  and  C_14 
REMARK    9  A    between atoms: C_18  and  C_19 
REMARK   10  A    between atoms: C_21  and  O_22 
ROOT
HETATM    1  N   UNL     1      44.315 -13.369   8.028  1.00  0.00    -0.345 N 
HETATM    2  C   UNL     1      45.015 -12.447   8.762  1.00  0.00     0.270 C 
HETATM    3  O   UNL     1      46.129 -12.050   8.433  1.00  0.00    -0.266 OA
HETATM    4  H   UNL     1      43.414 -13.694   8.343  1.00  0.00     0.163 HD
ENDROOT
BRANCH   1   5
HETATM    5  C   UNL     1      44.868 -13.933   6.826  1.00  0.00     0.217 C 
BRANCH   5   6
HETATM    6  C   UNL     1      44.712 -15.388   6.844  1.00  0.00    -0.085 C 
BRANCH   6   7
HETATM    7  C   UNL     1      44.582 -16.685   6.857  1.00  0.00    -0.078 C 
BRANCH   7   8
HETATM    8  C   UNL     1      44.431 -18.199   6.874  1.00  0.00     0.269 C 
BRANCH   8   9
HETATM    9  O   UNL     1      43.053 -18.545   6.766  1.00  0.00    -0.339 OA
BRANCH   9  10
HETATM   10  C   UNL     1      42.313 -17.793   5.888  1.00  0.00     0.072 A 
HETATM   11  C   UNL     1      41.464 -16.733   6.228  1.00  0.00     0.066 A 
HETATM   12  C   UNL     1      40.763 -16.030   5.243  1.00  0.00     0.037 A 
HETATM   13  C   UNL     1      40.918 -16.405   3.902  1.00  0.00     0.029 A 
HETATM   14  C   UNL     1      41.760 -17.463   3.555  1.00  0.00     0.005 A 
HETATM   15  C   UNL     1      42.455 -18.153   4.547  1.00  0.00     0.037 A 
BRANCH  12  16
HETATM   16  N   UNL     1      39.900 -14.945   5.514  1.00  0.00    -0.327 N 
HETATM   17  C   UNL     1      40.251 -13.636   5.787  1.00  0.00     0.218 C 
HETATM   18  C   UNL     1      39.052 -12.750   6.021  1.00  0.00     0.117 C 
HETATM   19  O   UNL     1      41.386 -13.179   5.874  1.00  0.00    -0.274 OA
HETATM   20  H   UNL     1      38.911 -15.160   5.507  1.00  0.00     0.169 HD
ENDBRANCH  12  16
ENDBRANCH   9  10
ENDBRANCH   8   9
ENDBRANCH   7   8
ENDBRANCH   6   7
ENDBRANCH   5   6
ENDBRANCH   1   5
BRANCH   2  21
HETATM   21  C   UNL     1      44.359 -11.983   9.953  1.00  0.00     0.120 A 
HETATM   22  N   UNL     1      44.076 -12.828  10.989  1.00  0.00    -0.272 N 
HETATM   23  H   UNL     1      44.289 -13.820  11.039  1.00  0.00     0.189 HD
HETATM   24  N   UNL     1      43.435 -12.249  12.015  1.00  0.00    -0.174 NA
HETATM   25  C   UNL     1      43.319 -10.960  11.657  1.00  0.00     0.089 A 
HETATM   26  C   UNL     1      43.885 -10.754  10.367  1.00  0.00     0.071 A 
BRANCH  25  27
HETATM   27  C   UNL     1      42.671  -9.973  12.526  1.00  0.00    -0.003 A 
HETATM   28  C   UNL     1      41.421  -9.432  12.174  1.00  0.00     0.050 A 
HETATM   29  C   UNL     1      40.800  -8.479  12.984  1.00  0.00     0.069 A 
HETATM   30  C   UNL     1      41.427  -8.067  14.160  1.00  0.00     0.037 A 
HETATM   31  C   UNL     1      42.662  -8.599  14.529  1.00  0.00     0.004 A 
HETATM   32  C   UNL     1      43.283  -9.547  13.714  1.00  0.00     0.014 A 
BRANCH  29  33
HETATM   33  O   UNL     1      39.595  -7.878  12.739  1.00  0.00    -0.356 OA
HETATM   34  C   UNL     1      38.483  -8.738  12.528  1.00  0.00     0.210 C 
ENDBRANCH  29  33
ENDBRANCH  25  27
ENDBRANCH   2  21
TORSDOF 10
ENDMDL
MODEL 6
REMARK VINA RESULT:      -7.8      3.390     11.264
REMARK  10 active torsions:
REMARK  status: ('A' for Active; 'I' for Inactive)
REMARK       I    between atoms: C_2  and  N_3 
REMARK    1  A    between atoms: N_3  and  C_4 
REMARK    2  A    between atoms: C_6  and  O_7 
REMARK    3  A    between atoms: O_7  and  C_8 
REMARK    4  A    between atoms: C_8  and  C_9 
REMARK    5  A    between atoms: C_9  and  C_10 
REMARK    6  A    between atoms: C_10  and  C_11 
REMARK    7  A    between atoms: C_11  and  N_12 
REMARK       I    between atoms: N_12  and  C_13 
REMARK    8  A    between atoms: C_13  and  C_14 
REMARK    9  A    between atoms: C_18  and  C_19 
REMARK   10  A    between atoms: C_21  and  O_22 
ROOT
HETATM    1  N   UNL     1      39.554 -12.586   5.086  1.00  0.00    -0.345 N 
HETATM    2  C   UNL     1      39.591 -12.835   3.738  1.00  0.00     0.270 C 
HETATM    3  O   UNL     1      39.261 -11.999   2.903  1.00  0.00    -0.266 OA
HETATM    4  H   UNL     1      39.805 -13.306   5.745  1.00  0.00     0.163 HD
ENDROOT
BRANCH   1   5
HETATM    5  C   UNL     1      39.108 -11.316   5.592  1.00  0.00     0.217 C 
BRANCH   5   6
HETATM    6  C   UNL     1      39.385 -11.228   7.025  1.00  0.00    -0.085 C 
BRANCH   6   7
HETATM    7  C   UNL     1      39.623 -11.148   8.305  1.00  0.00    -0.078 C 
BRANCH   7   8
HETATM    8  C   UNL     1      39.901 -11.053   9.797  1.00  0.00     0.269 C 
BRANCH   8   9
HETATM    9  O   UNL     1      40.746  -9.937  10.059  1.00  0.00    -0.339 OA
BRANCH   9  10
HETATM   10  C   UNL     1      42.033 -10.234  10.429  1.00  0.00     0.072 A 
HETATM   11  C   UNL     1      43.088 -10.539   9.560  1.00  0.00     0.066 A 
HETATM   12  C   UNL     1      44.366 -10.820  10.053  1.00  0.00     0.037 A 
HETATM   13  C   UNL     1      44.579 -10.798  11.437  1.00  0.00     0.029 A 
HETATM   14  C   UNL     1      43.532 -10.499  12.311  1.00  0.00     0.005 A 
HETATM   15  C   UNL     1      42.264 -10.218  11.805  1.00  0.00     0.037 A 
BRANCH  12  16
HETATM   16  N   UNL     1      45.477 -11.124   9.234  1.00  0.00    -0.327 N 
HETATM   17  C   UNL     1      45.747 -12.318   8.590  1.00  0.00     0.218 C 
HETATM   18  C   UNL     1      47.029 -12.270   7.794  1.00  0.00     0.117 C 
HETATM   19  O   UNL     1      45.084 -13.349   8.637  1.00  0.00    -0.274 OA
HETATM   20  H   UNL     1      46.148 -10.377   9.109  1.00  0.00     0.169 HD
ENDBRANCH  12  16
ENDBRANCH   9  10
ENDBRANCH   8   9
ENDBRANCH   7   8
ENDBRANCH   6   7
ENDBRANCH   5   6
ENDBRANCH   1   5
BRANCH   2  21
HETATM   21  C   UNL     1      40.032 -14.152   3.369  1.00  0.00     0.120 A 
HETATM   22  N   UNL     1      39.301 -14.942   2.528  1.00  0.00    -0.272 N 
HETATM   23  H   UNL     1      38.418 -14.703   2.086  1.00  0.00     0.189 HD
HETATM   24  N   UNL     1      39.833 -16.153   2.306  1.00  0.00    -0.174 NA
HETATM   25  C   UNL     1      40.981 -16.152   3.003  1.00  0.00     0.089 A 
HETATM   26  C   UNL     1      41.140 -14.913   3.686  1.00  0.00     0.071 A 
BRANCH  25  27
HETATM   27  C   UNL     1      41.877 -17.312   3.016  1.00  0.00    -0.003 A 
HETATM   28  C   UNL     1      42.454 -17.747   4.223  1.00  0.00     0.050 A 
HETATM   29  C   UNL     1      43.322 -18.839   4.247  1.00  0.00     0.069 A 
HETATM   30  C   UNL     1      43.612 -19.510   3.059  1.00  0.00     0.037 A 
HETATM   31  C   UNL     1      43.044 -19.098   1.855  1.00  0.00     0.004 A 
HETATM   32  C   UNL     1      42.180 -18.001   1.832  1.00  0.00     0.014 A 
BRANCH  29  33
HETATM   33  O   UNL     1      43.948 -19.345   5.355  1.00  0.00    -0.356 OA
HETATM   34  C   UNL     1      44.734 -20.516   5.166  1.00  0.00     0.210 C 
ENDBRANCH  29  33
ENDBRANCH  25  27
ENDBRANCH   2  21
TORSDOF 10
ENDMDL
MODEL 7
REMARK VINA RESULT:      -7.8      7.166     11.384
REMARK  10 active torsions:
REMARK  status: ('A' for Active; 'I' for Inactive)
REMARK       I    between atoms: C_2  and  N_3 
REMARK    1  A    between atoms: N_3  and  C_4 
REMARK    2  A    between atoms: C_6  and  O_7 
REMARK    3  A    between atoms: O_7  and  C_8 
REMARK    4  A    between atoms: C_8  and  C_9 
REMARK    5  A    between atoms: C_9  and  C_10 
REMARK    6  A    between atoms: C_10  and  C_11 
REMARK    7  A    between atoms: C_11  and  N_12 
REMARK       I    between atoms: N_12  and  C_13 
REMARK    8  A    between atoms: C_13  and  C_14 
REMARK    9  A    between atoms: C_18  and  C_19 
REMARK   10  A    between atoms: C_21  and  O_22 
ROOT
HETATM    1  N   UNL     1      40.593 -15.790  -1.570  1.00  0.00    -0.345 N 
HETATM    2  C   UNL     1      41.369 -15.443  -0.494  1.00  0.00     0.270 C 
HETATM    3  O   UNL     1      41.813 -14.310  -0.339  1.00  0.00    -0.266 OA
HETATM    4  H   UNL     1      40.269 -16.738  -1.681  1.00  0.00     0.163 HD
ENDROOT
BRANCH   1   5
HETATM    5  C   UNL     1      40.269 -14.828  -2.589  1.00  0.00     0.217 C 
BRANCH   5   6
HETATM    6  C   UNL     1      39.282 -13.877  -2.077  1.00  0.00    -0.085 C 
BRANCH   6   7
HETATM    7  C   UNL     1      38.395 -13.035  -1.625  1.00  0.00    -0.078 C 
BRANCH   7   8
HETATM    8  C   UNL     1      37.360 -12.053  -1.098  1.00  0.00     0.269 C 
BRANCH   8   9
HETATM    9  O   UNL     1      37.128 -12.295   0.287  1.00  0.00    -0.339 OA
BRANCH   9  10
HETATM   10  C   UNL     1      38.242 -12.302   1.088  1.00  0.00     0.072 A 
HETATM   11  C   UNL     1      38.777 -13.420   1.741  1.00  0.00     0.066 A 
HETATM   12  C   UNL     1      39.927 -13.309   2.529  1.00  0.00     0.037 A 
HETATM   13  C   UNL     1      40.539 -12.056   2.663  1.00  0.00     0.029 A 
HETATM   14  C   UNL     1      40.010 -10.936   2.019  1.00  0.00     0.005 A 
HETATM   15  C   UNL     1      38.865 -11.062   1.234  1.00  0.00     0.037 A 
BRANCH  12  16
HETATM   16  N   UNL     1      40.525 -14.395   3.205  1.00  0.00    -0.327 N 
HETATM   17  C   UNL     1      40.319 -14.789   4.515  1.00  0.00     0.218 C 
HETATM   18  C   UNL     1      41.132 -16.005   4.890  1.00  0.00     0.117 C 
HETATM   19  O   UNL     1      39.598 -14.246   5.345  1.00  0.00    -0.274 OA
HETATM   20  H   UNL     1      41.180 -14.943   2.662  1.00  0.00     0.169 HD
ENDBRANCH  12  16
ENDBRANCH   9  10
ENDBRANCH   8   9
ENDBRANCH   7   8
ENDBRANCH   6   7
ENDBRANCH   5   6
ENDBRANCH   1   5
BRANCH   2  21
HETATM   21  C   UNL     1      41.639 -16.505   0.436  1.00  0.00     0.120 A 
HETATM   22  N   UNL     1      40.631 -17.168   1.076  1.00  0.00    -0.272 N 
HETATM   23  H   UNL     1      39.634 -17.004   0.971  1.00  0.00     0.189 HD
HETATM   24  N   UNL     1      41.048 -18.111   1.934  1.00  0.00    -0.174 NA
HETATM   25  C   UNL     1      42.386 -18.093   1.832  1.00  0.00     0.089 A 
HETATM   26  C   UNL     1      42.796 -17.096   0.903  1.00  0.00     0.071 A 
BRANCH  25  27
HETATM   27  C   UNL     1      43.232 -18.998   2.617  1.00  0.00    -0.003 A 
HETATM   28  C   UNL     1      43.520 -18.708   3.963  1.00  0.00     0.050 A 
HETATM   29  C   UNL     1      44.337 -19.552   4.718  1.00  0.00     0.069 A 
HETATM   30  C   UNL     1      44.866 -20.700   4.127  1.00  0.00     0.037 A 
HETATM   31  C   UNL     1      44.585 -21.007   2.797  1.00  0.00     0.004 A 
HETATM   32  C   UNL     1      43.772 -20.158   2.043  1.00  0.00     0.014 A 
BRANCH  29  33
HETATM   33  O   UNL     1      44.693 -19.368   6.026  1.00  0.00    -0.356 OA
HETATM   34  C   UNL     1      45.254 -18.105   6.365  1.00  0.00     0.210 C 
ENDBRANCH  29  33
ENDBRANCH  25  27
ENDBRANCH   2  21
TORSDOF 10
ENDMDL
MODEL 8
REMARK VINA RESULT:      -7.7      2.632     12.233
REMARK  10 active torsions:
REMARK  status: ('A' for Active; 'I' for Inactive)
REMARK       I    between atoms: C_2  and  N_3 
REMARK    1  A    between atoms: N_3  and  C_4 
REMARK    2  A    between atoms: C_6  and  O_7 
REMARK    3  A    between atoms: O_7  and  C_8 
REMARK    4  A    between atoms: C_8  and  C_9 
REMARK    5  A    between atoms: C_9  and  C_10 
REMARK    6  A    between atoms: C_10  and  C_11 
REMARK    7  A    between atoms: C_11  and  N_12 
REMARK       I    between atoms: N_12  and  C_13 
REMARK    8  A    between atoms: C_13  and  C_14 
REMARK    9  A    between atoms: C_18  and  C_19 
REMARK   10  A    between atoms: C_21  and  O_22 
ROOT
HETATM    1  N   UNL     1      45.204 -13.831   7.682  1.00  0.00    -0.345 N 
HETATM    2  C   UNL     1      44.012 -14.052   7.041  1.00  0.00     0.270 C 
HETATM    3  O   UNL     1      43.235 -13.144   6.761  1.00  0.00    -0.266 OA
HETATM    4  H   UNL     1      45.805 -14.604   7.922  1.00  0.00     0.163 HD
ENDROOT
BRANCH   1   5
HETATM    5  C   UNL     1      45.599 -12.505   8.073  1.00  0.00     0.217 C 
BRANCH   5   6
HETATM    6  C   UNL     1      44.975 -12.158   9.350  1.00  0.00    -0.085 C 
BRANCH   6   7
HETATM    7  C   UNL     1      44.427 -11.846  10.491  1.00  0.00    -0.078 C 
BRANCH   7   8
HETATM    8  C   UNL     1      43.787 -11.483  11.822  1.00  0.00     0.269 C 
BRANCH   8   9
HETATM    9  O   UNL     1      43.979 -10.096  12.086  1.00  0.00    -0.339 OA
BRANCH   9  10
HETATM   10  C   UNL     1      42.954  -9.464  12.745  1.00  0.00     0.072 A 
HETATM   11  C   UNL     1      41.840  -8.864  12.145  1.00  0.00     0.066 A 
HETATM   12  C   UNL     1      40.849  -8.254  12.922  1.00  0.00     0.037 A 
HETATM   13  C   UNL     1      40.989  -8.246  14.315  1.00  0.00     0.029 A 
HETATM   14  C   UNL     1      42.098  -8.839  14.920  1.00  0.00     0.005 A 
HETATM   15  C   UNL     1      43.076  -9.446  14.134  1.00  0.00     0.037 A 
BRANCH  12  16
HETATM   16  N   UNL     1      39.696  -7.640  12.385  1.00  0.00    -0.327 N 
HETATM   17  C   UNL     1      38.597  -8.261  11.818  1.00  0.00     0.218 C 
HETATM   18  C   UNL     1      37.549  -7.277  11.358  1.00  0.00     0.117 C 
HETATM   19  O   UNL     1      38.434  -9.465  11.650  1.00  0.00    -0.274 OA
HETATM   20  H   UNL     1      39.679  -6.629  12.421  1.00  0.00     0.169 HD
ENDBRANCH  12  16
ENDBRANCH   9  10
ENDBRANCH   8   9
ENDBRANCH   7   8
ENDBRANCH   6   7
ENDBRANCH   5   6
ENDBRANCH   1   5
BRANCH   2  21
HETATM   21  C   UNL     1      43.727 -15.425   6.729  1.00  0.00     0.120 A 
HETATM   22  N   UNL     1      42.459 -15.927   6.799  1.00  0.00    -0.272 N 
HETATM   23  H   UNL     1      41.618 -15.418   7.056  1.00  0.00     0.189 HD
HETATM   24  N   UNL     1      42.364 -17.232   6.507  1.00  0.00    -0.174 NA
HETATM   25  C   UNL     1      43.617 -17.602   6.199  1.00  0.00     0.089 A 
HETATM   26  C   UNL     1      44.503 -16.495   6.329  1.00  0.00     0.071 A 
BRANCH  25  27
HETATM   27  C   UNL     1      43.942 -18.978   5.809  1.00  0.00    -0.003 A 
HETATM   28  C   UNL     1      44.354 -19.261   4.494  1.00  0.00     0.050 A 
HETATM   29  C   UNL     1      44.650 -20.569   4.104  1.00  0.00     0.069 A 
HETATM   30  C   UNL     1      44.543 -21.602   5.035  1.00  0.00     0.037 A 
HETATM   31  C   UNL     1      44.144 -21.338   6.345  1.00  0.00     0.004 A 
HETATM   32  C   UNL     1      43.842 -20.030   6.730  1.00  0.00     0.014 A 
BRANCH  29  33
HETATM   33  O   UNL     1      45.050 -20.965   2.856  1.00  0.00    -0.356 OA
HETATM   34  C   UNL     1      44.036 -21.453   1.985  1.00  0.00     0.210 C 
ENDBRANCH  29  33
ENDBRANCH  25  27
ENDBRANCH   2  21
TORSDOF 10
ENDMDL
MODEL 9
REMARK VINA RESULT:      -7.7      4.605      9.676
REMARK  10 active torsions:
REMARK  status: ('A' for Active; 'I' for Inactive)
REMARK       I    between atoms: C_2  and  N_3 
REMARK    1  A    between atoms: N_3  and  C_4 
REMARK    2  A    between atoms: C_6  and  O_7 
REMARK    3  A    between atoms: O_7  and  C_8 
REMARK    4  A    between atoms: C_8  and  C_9 
REMARK    5  A    between atoms: C_9  and  C_10 
REMARK    6  A    between atoms: C_10  and  C_11 
REMARK    7  A    between atoms: C_11  and  N_12 
REMARK       I    between atoms: N_12  and  C_13 
REMARK    8  A    between atoms: C_13  and  C_14 
REMARK    9  A    between atoms: C_18  and  C_19 
REMARK   10  A    between atoms: C_21  and  O_22 
ROOT
HETATM    1  N   UNL     1      42.757 -18.476   1.757  1.00  0.00    -0.345 N 
HETATM    2  C   UNL     1      43.201 -17.251   1.328  1.00  0.00     0.270 C 
HETATM    3  O   UNL     1      44.391 -16.957   1.291  1.00  0.00    -0.266 OA
HETATM    4  H   UNL     1      41.769 -18.673   1.802  1.00  0.00     0.163 HD
ENDROOT
BRANCH   1   5
HETATM    5  C   UNL     1      43.681 -19.484   2.203  1.00  0.00     0.217 C 
BRANCH   5   6
HETATM    6  C   UNL     1      43.873 -19.375   3.649  1.00  0.00    -0.085 C 
BRANCH   6   7
HETATM    7  C   UNL     1      44.039 -19.286   4.940  1.00  0.00    -0.078 C 
BRANCH   7   8
HETATM    8  C   UNL     1      44.234 -19.182   6.444  1.00  0.00     0.269 C 
BRANCH   8   9
HETATM    9  O   UNL     1      43.189 -18.396   7.011  1.00  0.00    -0.339 OA
BRANCH   9  10
HETATM   10  C   UNL     1      43.203 -17.062   6.694  1.00  0.00     0.072 A 
HETATM   11  C   UNL     1      44.241 -16.163   6.972  1.00  0.00     0.066 A 
HETATM   12  C   UNL     1      44.148 -14.821   6.592  1.00  0.00     0.037 A 
HETATM   13  C   UNL     1      42.994 -14.381   5.931  1.00  0.00     0.029 A 
HETATM   14  C   UNL     1      41.954 -15.269   5.653  1.00  0.00     0.005 A 
HETATM   15  C   UNL     1      42.061 -16.605   6.035  1.00  0.00     0.037 A 
BRANCH  12  16
HETATM   16  N   UNL     1      45.160 -13.864   6.830  1.00  0.00    -0.327 N 
HETATM   17  C   UNL     1      45.405 -13.170   8.002  1.00  0.00     0.218 C 
HETATM   18  C   UNL     1      46.581 -12.231   7.884  1.00  0.00     0.117 C 
HETATM   19  O   UNL     1      44.766 -13.236   9.046  1.00  0.00    -0.274 OA
HETATM   20  H   UNL     1      45.772 -13.668   6.048  1.00  0.00     0.169 HD
ENDBRANCH  12  16
ENDBRANCH   9  10
ENDBRANCH   8   9
ENDBRANCH   7   8
ENDBRANCH   6   7
ENDBRANCH   5   6
ENDBRANCH   1   5
BRANCH   2  21
HETATM   21  C   UNL     1      42.172 -16.328   0.934  1.00  0.00     0.120 A 
HETATM   22  N   UNL     1      41.854 -16.129  -0.379  1.00  0.00    -0.272 N 
HETATM   23  H   UNL     1      42.276 -16.586  -1.182  1.00  0.00     0.189 HD
HETATM   24  N   UNL     1      40.894 -15.214  -0.582  1.00  0.00    -0.174 NA
HETATM   25  C   UNL     1      40.539 -14.817   0.650  1.00  0.00     0.089 A 
HETATM   26  C   UNL     1      41.322 -15.492   1.630  1.00  0.00     0.071 A 
BRANCH  25  27
HETATM   27  C   UNL     1      39.494 -13.811   0.866  1.00  0.00    -0.003 A 
HETATM   28  C   UNL     1      39.739 -12.703   1.697  1.00  0.00     0.050 A 
HETATM   29  C   UNL     1      38.748 -11.747   1.925  1.00  0.00     0.069 A 
HETATM   30  C   UNL     1      37.503 -11.892   1.311  1.00  0.00     0.037 A 
HETATM   31  C   UNL     1      37.245 -12.980   0.478  1.00  0.00     0.004 A 
HETATM   32  C   UNL     1      38.237 -13.937   0.257  1.00  0.00     0.014 A 
BRANCH  29  33
HETATM   33  O   UNL     1      38.866 -10.638   2.717  1.00  0.00    -0.356 OA
HETATM   34  C   UNL     1      40.096 -10.478   3.414  1.00  0.00     0.210 C 
ENDBRANCH  29  33
ENDBRANCH  25  27
ENDBRANCH   2  21
TORSDOF 10
ENDMDL
MODEL 10
REMARK VINA RESULT:      -7.6      3.079     12.091
REMARK  10 active torsions:
REMARK  status: ('A' for Active; 'I' for Inactive)
REMARK       I    between atoms: C_2  and  N_3 
REMARK    1  A    between atoms: N_3  and  C_4 
REMARK    2  A    between atoms: C_6  and  O_7 
REMARK    3  A    between atoms: O_7  and  C_8 
REMARK    4  A    between atoms: C_8  and  C_9 
REMARK    5  A    between atoms: C_9  and  C_10 
REMARK    6  A    between atoms: C_10  and  C_11 
REMARK    7  A    between atoms: C_11  and  N_12 
REMARK       I    between atoms: N_12  and  C_13 
REMARK    8  A    between atoms: C_13  and  C_14 
REMARK    9  A    between atoms: C_18  and  C_19 
REMARK   10  A    between atoms: C_21  and  O_22 
ROOT
HETATM    1  N   UNL     1      41.779 -12.624   4.426  1.00  0.00    -0.345 N 
HETATM    2  C   UNL     1      41.001 -13.668   4.856  1.00  0.00     0.270 C 
HETATM    3  O   UNL     1      39.800 -13.549   5.075  1.00  0.00    -0.266 OA
HETATM    4  H   UNL     1      42.769 -12.751   4.283  1.00  0.00     0.163 HD
ENDROOT
BRANCH   1   5
HETATM    5  C   UNL     1      41.216 -11.317   4.220  1.00  0.00     0.217 C 
BRANCH   5   6
HETATM    6  C   UNL     1      41.326 -10.531   5.448  1.00  0.00    -0.085 C 
BRANCH   6   7
HETATM    7  C   UNL     1      41.429  -9.837   6.548  1.00  0.00    -0.078 C 
BRANCH   7   8
HETATM    8  C   UNL     1      41.549  -9.027   7.829  1.00  0.00     0.269 C 
BRANCH   8   9
HETATM    9  O   UNL     1      41.136  -9.819   8.939  1.00  0.00    -0.339 OA
BRANCH   9  10
HETATM   10  C   UNL     1      42.044  -9.938   9.961  1.00  0.00     0.072 A 
HETATM   11  C   UNL     1      41.882  -9.450  11.264  1.00  0.00     0.066 A 
HETATM   12  C   UNL     1      42.876  -9.638  12.229  1.00  0.00     0.037 A 
HETATM   13  C   UNL     1      44.047 -10.321  11.873  1.00  0.00     0.029 A 
HETATM   14  C   UNL     1      44.217 -10.807  10.576  1.00  0.00     0.005 A 
HETATM   15  C   UNL     1      43.217 -10.615   9.625  1.00  0.00     0.037 A 
BRANCH  12  16
HETATM   16  N   UNL     1      42.774  -9.183  13.563  1.00  0.00    -0.327 N 
HETATM   17  C   UNL     1      42.029  -9.737  14.588  1.00  0.00     0.218 C 
HETATM   18  C   UNL     1      42.173  -8.977  15.884  1.00  0.00     0.117 C 
HETATM   19  O   UNL     1      41.292 -10.715  14.520  1.00  0.00    -0.274 OA
HETATM   20  H   UNL     1      43.310  -8.354  13.785  1.00  0.00     0.169 HD
ENDBRANCH  12  16
ENDBRANCH   9  10
ENDBRANCH   8   9
ENDBRANCH   7   8
ENDBRANCH   6   7
ENDBRANCH   5   6
ENDBRANCH   1   5
BRANCH   2  21
HETATM   21  C   UNL     1      41.694 -14.913   5.046  1.00  0.00     0.120 A 
HETATM   22  N   UNL     1      42.025 -15.364   6.292  1.00  0.00    -0.272 N 
HETATM   23  H   UNL     1      41.827 -14.906   7.176  1.00  0.00     0.189 HD
HETATM   24  N   UNL     1      42.695 -16.526   6.299  1.00  0.00    -0.174 NA
HETATM   25  C   UNL     1      42.781 -16.874   5.005  1.00  0.00     0.089 A 
HETATM   26  C   UNL     1      42.166 -15.884   4.187  1.00  0.00     0.071 A 
BRANCH  25  27
HETATM   27  C   UNL     1      43.447 -18.110   4.581  1.00  0.00    -0.003 A 
HETATM   28  C   UNL     1      43.164 -18.669   3.322  1.00  0.00     0.050 A 
HETATM   29  C   UNL     1      43.777 -19.855   2.912  1.00  0.00     0.069 A 
HETATM   30  C   UNL     1      44.688 -20.484   3.761  1.00  0.00     0.037 A 
HETATM   31  C   UNL     1      44.986 -19.939   5.009  1.00  0.00     0.004 A 
HETATM   32  C   UNL     1      44.367 -18.757   5.419  1.00  0.00     0.014 A 
BRANCH  29  33
HETATM   33  O   UNL     1      43.574 -20.495   1.719  1.00  0.00    -0.356 OA
HETATM   34  C   UNL     1      44.128 -21.799   1.591  1.00  0.00     0.210 C 
ENDBRANCH  29  33
ENDBRANCH  25  27
ENDBRANCH   2  21
TORSDOF 10
ENDMDL
