MODEL 1
REMARK VINA RESULT:      -8.5      0.000      0.000
REMARK  5 active torsions:
REMARK  status: ('A' for Active; 'I' for Inactive)
REMARK    1  A    between atoms: C_3  and  N_4 
REMARK       I    between atoms: N_4  and  C_5 
REMARK    2  A    between atoms: C_5  and  C_6 
REMARK    3  A    between atoms: C_6  and  N_7 
REMARK    4  A    between atoms: C_6  and  C_16 
REMARK       I    between atoms: N_7  and  C_8 
REMARK    5  A    between atoms: C_8  and  C_9 
ROOT
HETATM    1  C   UNL     1      41.640 -15.583   5.971  1.00  0.00     0.210 C 
ENDROOT
BRANCH   1   2
HETATM    2  C   UNL     1      41.830 -16.940   5.226  1.00  0.00     0.249 C 
HETATM    3  N   UNL     1      42.984 -17.054   4.467  1.00  0.00    -0.324 N 
HETATM    4  H   UNL     1      43.712 -16.378   4.690  1.00  0.00     0.169 HD
HETATM    5  O   UNL     1      40.955 -17.807   5.305  1.00  0.00    -0.270 OA
BRANCH   3   6
HETATM    6  C   UNL     1      43.408 -18.238   3.816  1.00  0.00     0.046 A 
HETATM    7  C   UNL     1      42.958 -18.602   2.529  1.00  0.00    -0.035 A 
HETATM    8  C   UNL     1      42.074 -17.736   1.673  1.00  0.00     0.050 C 
HETATM    9  C   UNL     1      43.393 -19.816   1.966  1.00  0.00     0.009 A 
HETATM   10  C   UNL     1      44.304 -20.630   2.632  1.00  0.00     0.001 A 
HETATM   11  C   UNL     1      44.796 -20.242   3.870  1.00  0.00     0.009 A 
HETATM   12  C   UNL     1      44.360 -19.052   4.476  1.00  0.00    -0.035 A 
HETATM   13  C   UNL     1      44.912 -18.706   5.834  1.00  0.00     0.050 C 
ENDBRANCH   3   6
ENDBRANCH   1   2
BRANCH   1  14
HETATM   14  N   UNL     1      42.859 -15.039   6.570  1.00  0.00    -0.338 N 
HETATM   15  C   UNL     1      43.805 -14.283   5.927  1.00  0.00     0.273 C 
HETATM   16  O   UNL     1      43.883 -14.194   4.706  1.00  0.00    -0.266 OA
HETATM   17  H   UNL     1      42.888 -14.953   7.583  1.00  0.00     0.164 HD
BRANCH  15  18
HETATM   18  C   UNL     1      44.728 -13.598   6.842  1.00  0.00     0.145 A 
HETATM   19  N   UNL     1      46.013 -13.360   6.509  1.00  0.00    -0.170 NA
HETATM   20  N   UNL     1      46.519 -12.734   7.587  1.00  0.00    -0.289 N 
HETATM   21  H   UNL     1      47.493 -12.447   7.567  1.00  0.00     0.188 HD
HETATM   22  C   UNL     1      45.618 -12.569   8.595  1.00  0.00     0.112 A 
HETATM   23  C   UNL     1      44.442 -13.119   8.146  1.00  0.00     0.058 A 
ENDBRANCH  15  18
ENDBRANCH   1  14
BRANCH   1  24
HETATM   24  C   UNL     1      40.779 -14.557   5.231  1.00  0.00    -0.026 A 
HETATM   25  C   UNL     1      40.284 -13.425   5.901  1.00  0.00     0.010 A 
HETATM   26  C   UNL     1      39.551 -12.445   5.226  1.00  0.00     0.001 A 
HETATM   27  C   UNL     1      39.319 -12.565   3.860  1.00  0.00     0.000 A 
HETATM   28  C   UNL     1      39.827 -13.659   3.167  1.00  0.00     0.001 A 
HETATM   29  C   UNL     1      40.560 -14.639   3.844  1.00  0.00     0.010 A 
ENDBRANCH   1  24
TORSDOF 5
ENDMDL
MODEL 2
REMARK VINA RESULT:      -8.4      1.949      2.880
REMARK  5 active torsions:
REMARK  status: ('A' for Active; 'I' for Inactive)
REMARK    1  A    between atoms: C_3  and  N_4 
REMARK       I    between atoms: N_4  and  C_5 
REMARK    2  A    between atoms: C_5  and  C_6 
REMARK    3  A    between atoms: C_6  and  N_7 
REMARK    4  A    between atoms: C_6  and  C_16 
REMARK       I    between atoms: N_7  and  C_8 
REMARK    5  A    between atoms: C_8  and  C_9 
ROOT
HETATM    1  C   UNL     1      43.327 -15.377   6.642  1.00  0.00     0.210 C 
ENDROOT
BRANCH   1   2
HETATM    2  C   UNL     1      44.066 -16.708   6.306  1.00  0.00     0.249 C 
HETATM    3  N   UNL     1      43.300 -17.682   5.686  1.00  0.00    -0.324 N 
HETATM    4  H   UNL     1      42.437 -17.345   5.264  1.00  0.00     0.169 HD
HETATM    5  O   UNL     1      45.248 -16.849   6.633  1.00  0.00    -0.270 OA
BRANCH   3   6
HETATM    6  C   UNL     1      43.804 -18.908   5.186  1.00  0.00     0.046 A 
HETATM    7  C   UNL     1      44.035 -20.030   6.011  1.00  0.00    -0.035 A 
HETATM    8  C   UNL     1      43.680 -20.083   7.472  1.00  0.00     0.050 C 
HETATM    9  C   UNL     1      44.576 -21.199   5.446  1.00  0.00     0.009 A 
HETATM   10  C   UNL     1      44.830 -21.286   4.081  1.00  0.00     0.001 A 
HETATM   11  C   UNL     1      44.542 -20.205   3.258  1.00  0.00     0.009 A 
HETATM   12  C   UNL     1      44.031 -19.011   3.793  1.00  0.00    -0.035 A 
HETATM   13  C   UNL     1      43.770 -17.868   2.847  1.00  0.00     0.050 C 
ENDBRANCH   3   6
ENDBRANCH   1   2
BRANCH   1  14
HETATM   14  N   UNL     1      43.949 -14.584   7.703  1.00  0.00    -0.338 N 
HETATM   15  C   UNL     1      44.939 -13.649   7.535  1.00  0.00     0.273 C 
HETATM   16  O   UNL     1      45.612 -13.554   6.514  1.00  0.00    -0.266 OA
HETATM   17  H   UNL     1      43.440 -14.486   8.578  1.00  0.00     0.164 HD
BRANCH  15  18
HETATM   18  C   UNL     1      45.125 -12.778   8.704  1.00  0.00     0.145 A 
HETATM   19  N   UNL     1      44.487 -13.008   9.870  1.00  0.00    -0.170 NA
HETATM   20  N   UNL     1      44.907 -12.014  10.673  1.00  0.00    -0.289 N 
HETATM   21  H   UNL     1      44.556 -11.980  11.625  1.00  0.00     0.188 HD
HETATM   22  C   UNL     1      45.776 -11.156  10.070  1.00  0.00     0.112 A 
HETATM   23  C   UNL     1      45.942 -11.622   8.789  1.00  0.00     0.058 A 
ENDBRANCH  15  18
ENDBRANCH   1  14
BRANCH   1  24
HETATM   24  C   UNL     1      42.869 -14.569   5.427  1.00  0.00    -0.026 A 
HETATM   25  C   UNL     1      41.789 -13.674   5.528  1.00  0.00     0.010 A 
HETATM   26  C   UNL     1      41.399 -12.881   4.446  1.00  0.00     0.001 A 
HETATM   27  C   UNL     1      42.096 -12.949   3.244  1.00  0.00     0.000 A 
HETATM   28  C   UNL     1      43.188 -13.802   3.128  1.00  0.00     0.001 A 
HETATM   29  C   UNL     1      43.578 -14.595   4.211  1.00  0.00     0.010 A 
ENDBRANCH   1  24
TORSDOF 5
ENDMDL
MODEL 3
REMARK VINA RESULT:      -8.4      0.188      1.714
REMARK  5 active torsions:
REMARK  status: ('A' for Active; 'I' for Inactive)
REMARK    1  A    between atoms: C_3  and  N_4 
REMARK       I    between atoms: N_4  and  C_5 
REMARK    2  A    between atoms: C_5  and  C_6 
REMARK    3  A    between atoms: C_6  and  N_7 
REMARK    4  A    between atoms: C_6  and  C_16 
REMARK       I    between atoms: N_7  and  C_8 
REMARK    5  A    between atoms: C_8  and  C_9 
ROOT
HETATM    1  C   UNL     1      41.766 -15.621   5.996  1.00  0.00     0.210 C 
ENDROOT
BRANCH   1   2
HETATM    2  C   UNL     1      41.947 -16.998   5.284  1.00  0.00     0.249 C 
HETATM    3  N   UNL     1      43.067 -17.115   4.477  1.00  0.00    -0.324 N 
HETATM    4  H   UNL     1      43.792 -16.420   4.646  1.00  0.00     0.169 HD
HETATM    5  O   UNL     1      41.093 -17.876   5.430  1.00  0.00    -0.270 OA
BRANCH   3   6
HETATM    6  C   UNL     1      43.484 -18.312   3.843  1.00  0.00     0.046 A 
HETATM    7  C   UNL     1      44.294 -19.271   4.486  1.00  0.00    -0.035 A 
HETATM    8  C   UNL     1      44.715 -19.183   5.928  1.00  0.00     0.050 C 
HETATM    9  C   UNL     1      44.701 -20.415   3.775  1.00  0.00     0.009 A 
HETATM   10  C   UNL     1      44.267 -20.643   2.473  1.00  0.00     0.001 A 
HETATM   11  C   UNL     1      43.416 -19.731   1.862  1.00  0.00     0.009 A 
HETATM   12  C   UNL     1      43.016 -18.562   2.531  1.00  0.00    -0.035 A 
HETATM   13  C   UNL     1      42.117 -17.602   1.798  1.00  0.00     0.050 C 
ENDBRANCH   3   6
ENDBRANCH   1   2
BRANCH   1  14
HETATM   14  N   UNL     1      42.994 -15.057   6.556  1.00  0.00    -0.338 N 
HETATM   15  C   UNL     1      43.918 -14.305   5.877  1.00  0.00     0.273 C 
HETATM   16  O   UNL     1      43.967 -14.237   4.653  1.00  0.00    -0.266 OA
HETATM   17  H   UNL     1      43.045 -14.953   7.566  1.00  0.00     0.164 HD
BRANCH  15  18
HETATM   18  C   UNL     1      44.856 -13.596   6.759  1.00  0.00     0.145 A 
HETATM   19  N   UNL     1      46.109 -13.289   6.363  1.00  0.00    -0.170 NA
HETATM   20  N   UNL     1      46.642 -12.662   7.427  1.00  0.00    -0.289 N 
HETATM   21  H   UNL     1      47.599 -12.328   7.362  1.00  0.00     0.188 HD
HETATM   22  C   UNL     1      45.791 -12.563   8.485  1.00  0.00     0.112 A 
HETATM   23  C   UNL     1      44.620 -13.160   8.087  1.00  0.00     0.058 A 
ENDBRANCH  15  18
ENDBRANCH   1  14
BRANCH   1  24
HETATM   24  C   UNL     1      40.887 -14.619   5.245  1.00  0.00    -0.026 A 
HETATM   25  C   UNL     1      40.446 -13.442   5.876  1.00  0.00     0.010 A 
HETATM   26  C   UNL     1      39.698 -12.485   5.185  1.00  0.00     0.001 A 
HETATM   27  C   UNL     1      39.394 -12.674   3.841  1.00  0.00     0.000 A 
HETATM   28  C   UNL     1      39.846 -13.814   3.185  1.00  0.00     0.001 A 
HETATM   29  C   UNL     1      40.595 -14.771   3.877  1.00  0.00     0.010 A 
ENDBRANCH   1  24
TORSDOF 5
ENDMDL
MODEL 4
REMARK VINA RESULT:      -8.1      2.580      6.865
REMARK  5 active torsions:
REMARK  status: ('A' for Active; 'I' for Inactive)
REMARK    1  A    between atoms: C_3  and  N_4 
REMARK       I    between atoms: N_4  and  C_5 
REMARK    2  A    between atoms: C_5  and  C_6 
REMARK    3  A    between atoms: C_6  and  N_7 
REMARK    4  A    between atoms: C_6  and  C_16 
REMARK       I    between atoms: N_7  and  C_8 
REMARK    5  A    between atoms: C_8  and  C_9 
ROOT
HETATM    1  C   UNL     1      42.094 -18.059   2.871  1.00  0.00     0.210 C 
ENDROOT
BRANCH   1   2
HETATM    2  C   UNL     1      42.212 -17.206   4.172  1.00  0.00     0.249 C 
HETATM    3  N   UNL     1      43.254 -16.293   4.202  1.00  0.00    -0.324 N 
HETATM    4  H   UNL     1      43.653 -16.069   3.292  1.00  0.00     0.169 HD
HETATM    5  O   UNL     1      41.427 -17.404   5.104  1.00  0.00    -0.270 OA
BRANCH   3   6
HETATM    6  C   UNL     1      43.463 -15.341   5.229  1.00  0.00     0.046 A 
HETATM    7  C   UNL     1      42.945 -14.030   5.168  1.00  0.00    -0.035 A 
HETATM    8  C   UNL     1      42.040 -13.535   4.073  1.00  0.00     0.050 C 
HETATM    9  C   UNL     1      43.233 -13.128   6.209  1.00  0.00     0.009 A 
HETATM   10  C   UNL     1      43.966 -13.526   7.322  1.00  0.00     0.001 A 
HETATM   11  C   UNL     1      44.421 -14.835   7.413  1.00  0.00     0.009 A 
HETATM   12  C   UNL     1      44.180 -15.754   6.378  1.00  0.00    -0.035 A 
HETATM   13  C   UNL     1      44.728 -17.148   6.528  1.00  0.00     0.050 C 
ENDBRANCH   3   6
ENDBRANCH   1   2
BRANCH   1  14
HETATM   14  N   UNL     1      41.963 -17.279   1.640  1.00  0.00    -0.338 N 
HETATM   15  C   UNL     1      40.936 -16.423   1.333  1.00  0.00     0.273 C 
HETATM   16  O   UNL     1      39.866 -16.409   1.934  1.00  0.00    -0.266 OA
HETATM   17  H   UNL     1      42.805 -17.119   1.093  1.00  0.00     0.164 HD
BRANCH  15  18
HETATM   18  C   UNL     1      41.235 -15.532   0.204  1.00  0.00     0.145 A 
HETATM   19  N   UNL     1      41.208 -15.969  -1.072  1.00  0.00    -0.170 NA
HETATM   20  N   UNL     1      41.534 -14.882  -1.795  1.00  0.00    -0.289 N 
HETATM   21  H   UNL     1      41.576 -14.969  -2.807  1.00  0.00     0.188 HD
HETATM   22  C   UNL     1      41.776 -13.776  -1.039  1.00  0.00     0.112 A 
HETATM   23  C   UNL     1      41.591 -14.161   0.266  1.00  0.00     0.058 A 
ENDBRANCH  15  18
ENDBRANCH   1  14
BRANCH   1  24
HETATM   24  C   UNL     1      43.068 -19.235   2.782  1.00  0.00    -0.026 A 
HETATM   25  C   UNL     1      44.027 -19.446   3.787  1.00  0.00     0.010 A 
HETATM   26  C   UNL     1      44.881 -20.552   3.755  1.00  0.00     0.001 A 
HETATM   27  C   UNL     1      44.777 -21.484   2.727  1.00  0.00     0.000 A 
HETATM   28  C   UNL     1      43.814 -21.316   1.738  1.00  0.00     0.001 A 
HETATM   29  C   UNL     1      42.960 -20.209   1.771  1.00  0.00     0.010 A 
ENDBRANCH   1  24
TORSDOF 5
ENDMDL
MODEL 5
REMARK VINA RESULT:      -8.1      2.589      7.045
REMARK  5 active torsions:
REMARK  status: ('A' for Active; 'I' for Inactive)
REMARK    1  A    between atoms: C_3  and  N_4 
REMARK       I    between atoms: N_4  and  C_5 
REMARK    2  A    between atoms: C_5  and  C_6 
REMARK    3  A    between atoms: C_6  and  N_7 
REMARK    4  A    between atoms: C_6  and  C_16 
REMARK       I    between atoms: N_7  and  C_8 
REMARK    5  A    between atoms: C_8  and  C_9 
ROOT
HETATM    1  C   UNL     1      42.117 -18.155   2.822  1.00  0.00     0.210 C 
ENDROOT
BRANCH   1   2
HETATM    2  C   UNL     1      42.257 -17.329   4.138  1.00  0.00     0.249 C 
HETATM    3  N   UNL     1      43.311 -16.431   4.176  1.00  0.00    -0.324 N 
HETATM    4  H   UNL     1      43.707 -16.195   3.268  1.00  0.00     0.169 HD
HETATM    5  O   UNL     1      41.477 -17.534   5.072  1.00  0.00    -0.270 OA
BRANCH   3   6
HETATM    6  C   UNL     1      43.542 -15.500   5.219  1.00  0.00     0.046 A 
HETATM    7  C   UNL     1      44.187 -15.852   6.424  1.00  0.00    -0.035 A 
HETATM    8  C   UNL     1      44.785 -17.206   6.691  1.00  0.00     0.050 C 
HETATM    9  C   UNL     1      44.341 -14.881   7.430  1.00  0.00     0.009 A 
HETATM   10  C   UNL     1      43.924 -13.569   7.231  1.00  0.00     0.001 A 
HETATM   11  C   UNL     1      43.348 -13.206   6.021  1.00  0.00     0.009 A 
HETATM   12  C   UNL     1      43.149 -14.157   5.006  1.00  0.00    -0.035 A 
HETATM   13  C   UNL     1      42.490 -13.703   3.731  1.00  0.00     0.050 C 
ENDBRANCH   3   6
ENDBRANCH   1   2
BRANCH   1  14
HETATM   14  N   UNL     1      41.981 -17.351   1.608  1.00  0.00    -0.338 N 
HETATM   15  C   UNL     1      40.957 -16.484   1.325  1.00  0.00     0.273 C 
HETATM   16  O   UNL     1      39.891 -16.477   1.933  1.00  0.00    -0.266 OA
HETATM   17  H   UNL     1      42.820 -17.183   1.058  1.00  0.00     0.164 HD
BRANCH  15  18
HETATM   18  C   UNL     1      41.252 -15.572   0.211  1.00  0.00     0.145 A 
HETATM   19  N   UNL     1      41.253 -15.993  -1.070  1.00  0.00    -0.170 NA
HETATM   20  N   UNL     1      41.565 -14.890  -1.775  1.00  0.00    -0.289 N 
HETATM   21  H   UNL     1      41.623 -14.963  -2.786  1.00  0.00     0.188 HD
HETATM   22  C   UNL     1      41.772 -13.789  -1.001  1.00  0.00     0.112 A 
HETATM   23  C   UNL     1      41.577 -14.194   0.296  1.00  0.00     0.058 A 
ENDBRANCH  15  18
ENDBRANCH   1  14
BRANCH   1  24
HETATM   24  C   UNL     1      43.078 -19.339   2.700  1.00  0.00    -0.026 A 
HETATM   25  C   UNL     1      44.090 -19.539   3.656  1.00  0.00     0.010 A 
HETATM   26  C   UNL     1      44.935 -20.651   3.596  1.00  0.00     0.001 A 
HETATM   27  C   UNL     1      44.770 -21.599   2.592  1.00  0.00     0.000 A 
HETATM   28  C   UNL     1      43.755 -21.441   1.653  1.00  0.00     0.001 A 
HETATM   29  C   UNL     1      42.910 -20.328   1.714  1.00  0.00     0.010 A 
ENDBRANCH   1  24
TORSDOF 5
ENDMDL
MODEL 6
REMARK VINA RESULT:      -7.9      2.355      5.932
REMARK  5 active torsions:
REMARK  status: ('A' for Active; 'I' for Inactive)
REMARK    1  A    between atoms: C_3  and  N_4 
REMARK       I    between atoms: N_4  and  C_5 
REMARK    2  A    between atoms: C_5  and  C_6 
REMARK    3  A    between atoms: C_6  and  N_7 
REMARK    4  A    between atoms: C_6  and  C_16 
REMARK       I    between atoms: N_7  and  C_8 
REMARK    5  A    between atoms: C_8  and  C_9 
ROOT
HETATM    1  C   UNL     1      44.056 -14.552   6.420  1.00  0.00     0.210 C 
ENDROOT
BRANCH   1   2
HETATM    2  C   UNL     1      43.104 -13.745   5.484  1.00  0.00     0.249 C 
HETATM    3  N   UNL     1      41.797 -13.614   5.923  1.00  0.00    -0.324 N 
HETATM    4  H   UNL     1      41.656 -13.801   6.914  1.00  0.00     0.169 HD
HETATM    5  O   UNL     1      43.529 -13.311   4.410  1.00  0.00    -0.270 OA
BRANCH   3   6
HETATM    6  C   UNL     1      40.808 -12.820   5.290  1.00  0.00     0.046 A 
HETATM    7  C   UNL     1      40.064 -13.274   4.181  1.00  0.00    -0.035 A 
HETATM    8  C   UNL     1      40.160 -14.666   3.618  1.00  0.00     0.050 C 
HETATM    9  C   UNL     1      39.129 -12.410   3.581  1.00  0.00     0.009 A 
HETATM   10  C   UNL     1      38.885 -11.143   4.101  1.00  0.00     0.001 A 
HETATM   11  C   UNL     1      39.571 -10.720   5.232  1.00  0.00     0.009 A 
HETATM   12  C   UNL     1      40.534 -11.544   5.838  1.00  0.00    -0.035 A 
HETATM   13  C   UNL     1      41.262 -11.011   7.043  1.00  0.00     0.050 C 
ENDBRANCH   3   6
ENDBRANCH   1   2
BRANCH   1  14
HETATM   14  N   UNL     1      44.264 -13.956   7.740  1.00  0.00    -0.338 N 
HETATM   15  C   UNL     1      45.249 -13.063   8.076  1.00  0.00     0.273 C 
HETATM   16  O   UNL     1      46.240 -12.859   7.382  1.00  0.00    -0.266 OA
HETATM   17  H   UNL     1      43.478 -13.958   8.386  1.00  0.00     0.164 HD
BRANCH  15  18
HETATM   18  C   UNL     1      45.010 -12.383   9.356  1.00  0.00     0.145 A 
HETATM   19  N   UNL     1      44.399 -13.002  10.387  1.00  0.00    -0.170 NA
HETATM   20  N   UNL     1      44.365 -12.068  11.354  1.00  0.00    -0.289 N 
HETATM   21  H   UNL     1      43.945 -12.311  12.247  1.00  0.00     0.188 HD
HETATM   22  C   UNL     1      44.918 -10.879  10.985  1.00  0.00     0.112 A 
HETATM   23  C   UNL     1      45.348 -11.047   9.692  1.00  0.00     0.058 A 
ENDBRANCH  15  18
ENDBRANCH   1  14
BRANCH   1  24
HETATM   24  C   UNL     1      43.819 -16.063   6.432  1.00  0.00    -0.026 A 
HETATM   25  C   UNL     1      43.644 -16.749   7.646  1.00  0.00     0.010 A 
HETATM   26  C   UNL     1      43.362 -18.118   7.672  1.00  0.00     0.001 A 
HETATM   27  C   UNL     1      43.226 -18.825   6.482  1.00  0.00     0.000 A 
HETATM   28  C   UNL     1      43.362 -18.162   5.267  1.00  0.00     0.001 A 
HETATM   29  C   UNL     1      43.644 -16.793   5.241  1.00  0.00     0.010 A 
ENDBRANCH   1  24
TORSDOF 5
ENDMDL
MODEL 7
REMARK VINA RESULT:      -7.8      3.331      5.660
REMARK  5 active torsions:
REMARK  status: ('A' for Active; 'I' for Inactive)
REMARK    1  A    between atoms: C_3  and  N_4 
REMARK       I    between atoms: N_4  and  C_5 
REMARK    2  A    between atoms: C_5  and  C_6 
REMARK    3  A    between atoms: C_6  and  N_7 
REMARK    4  A    between atoms: C_6  and  C_16 
REMARK       I    between atoms: N_7  and  C_8 
REMARK    5  A    between atoms: C_8  and  C_9 
ROOT
HETATM    1  C   UNL     1      43.487 -16.715   2.167  1.00  0.00     0.210 C 
ENDROOT
BRANCH   1   2
HETATM    2  C   UNL     1      43.313 -18.203   2.603  1.00  0.00     0.249 C 
HETATM    3  N   UNL     1      44.471 -18.856   2.992  1.00  0.00    -0.324 N 
HETATM    4  H   UNL     1      45.251 -18.244   3.225  1.00  0.00     0.169 HD
HETATM    5  O   UNL     1      42.198 -18.728   2.543  1.00  0.00    -0.270 OA
BRANCH   3   6
HETATM    6  C   UNL     1      44.516 -20.162   3.539  1.00  0.00     0.046 A 
HETATM    7  C   UNL     1      44.459 -21.324   2.740  1.00  0.00    -0.035 A 
HETATM    8  C   UNL     1      44.448 -21.308   1.236  1.00  0.00     0.050 C 
HETATM    9  C   UNL     1      44.466 -22.586   3.361  1.00  0.00     0.009 A 
HETATM   10  C   UNL     1      44.590 -22.707   4.742  1.00  0.00     0.001 A 
HETATM   11  C   UNL     1      44.712 -21.565   5.524  1.00  0.00     0.009 A 
HETATM   12  C   UNL     1      44.676 -20.288   4.940  1.00  0.00    -0.035 A 
HETATM   13  C   UNL     1      44.783 -19.092   5.849  1.00  0.00     0.050 C 
ENDBRANCH   3   6
ENDBRANCH   1   2
BRANCH   1  14
HETATM   14  N   UNL     1      42.886 -16.382   0.876  1.00  0.00    -0.338 N 
HETATM   15  C   UNL     1      41.586 -15.998   0.667  1.00  0.00     0.273 C 
HETATM   16  O   UNL     1      40.696 -16.145   1.500  1.00  0.00    -0.266 OA
HETATM   17  H   UNL     1      43.512 -16.130   0.116  1.00  0.00     0.164 HD
BRANCH  15  18
HETATM   18  C   UNL     1      41.356 -15.404  -0.657  1.00  0.00     0.145 A 
HETATM   19  N   UNL     1      40.973 -16.150  -1.713  1.00  0.00    -0.170 NA
HETATM   20  N   UNL     1      40.875 -15.264  -2.720  1.00  0.00    -0.289 N 
HETATM   21  H   UNL     1      40.590 -15.600  -3.635  1.00  0.00     0.188 HD
HETATM   22  C   UNL     1      41.186 -13.989  -2.356  1.00  0.00     0.112 A 
HETATM   23  C   UNL     1      41.504 -14.042  -1.022  1.00  0.00     0.058 A 
ENDBRANCH  15  18
ENDBRANCH   1  14
BRANCH   1  24
HETATM   24  C   UNL     1      43.238 -15.687   3.272  1.00  0.00    -0.026 A 
HETATM   25  C   UNL     1      43.373 -14.312   3.012  1.00  0.00     0.010 A 
HETATM   26  C   UNL     1      43.086 -13.356   3.991  1.00  0.00     0.001 A 
HETATM   27  C   UNL     1      42.634 -13.756   5.245  1.00  0.00     0.000 A 
HETATM   28  C   UNL     1      42.460 -15.109   5.516  1.00  0.00     0.001 A 
HETATM   29  C   UNL     1      42.748 -16.064   4.536  1.00  0.00     0.010 A 
ENDBRANCH   1  24
TORSDOF 5
ENDMDL
MODEL 8
REMARK VINA RESULT:      -7.7      2.846      3.927
REMARK  5 active torsions:
REMARK  status: ('A' for Active; 'I' for Inactive)
REMARK    1  A    between atoms: C_3  and  N_4 
REMARK       I    between atoms: N_4  and  C_5 
REMARK    2  A    between atoms: C_5  and  C_6 
REMARK    3  A    between atoms: C_6  and  N_7 
REMARK    4  A    between atoms: C_6  and  C_16 
REMARK       I    between atoms: N_7  and  C_8 
REMARK    5  A    between atoms: C_8  and  C_9 
ROOT
HETATM    1  C   UNL     1      40.774 -15.588   3.010  1.00  0.00     0.210 C 
ENDROOT
BRANCH   1   2
HETATM    2  C   UNL     1      42.081 -16.335   3.418  1.00  0.00     0.249 C 
HETATM    3  N   UNL     1      41.920 -17.647   3.833  1.00  0.00    -0.324 N 
HETATM    4  H   UNL     1      41.035 -18.075   3.568  1.00  0.00     0.169 HD
HETATM    5  O   UNL     1      43.159 -15.735   3.395  1.00  0.00    -0.270 OA
BRANCH   3   6
HETATM    6  C   UNL     1      42.983 -18.538   4.125  1.00  0.00     0.046 A 
HETATM    7  C   UNL     1      43.644 -19.286   3.129  1.00  0.00    -0.035 A 
HETATM    8  C   UNL     1      43.370 -19.149   1.656  1.00  0.00     0.050 C 
HETATM    9  C   UNL     1      44.662 -20.182   3.505  1.00  0.00     0.009 A 
HETATM   10  C   UNL     1      45.067 -20.294   4.831  1.00  0.00     0.001 A 
HETATM   11  C   UNL     1      44.460 -19.510   5.804  1.00  0.00     0.009 A 
HETATM   12  C   UNL     1      43.419 -18.628   5.469  1.00  0.00    -0.035 A 
HETATM   13  C   UNL     1      42.785 -17.830   6.578  1.00  0.00     0.050 C 
ENDBRANCH   3   6
ENDBRANCH   1   2
BRANCH   1  14
HETATM   14  N   UNL     1      40.418 -14.464   3.877  1.00  0.00    -0.338 N 
HETATM   15  C   UNL     1      40.293 -14.506   5.242  1.00  0.00     0.273 C 
HETATM   16  O   UNL     1      40.201 -15.551   5.879  1.00  0.00    -0.266 OA
HETATM   17  H   UNL     1      40.551 -13.526   3.508  1.00  0.00     0.164 HD
BRANCH  15  18
HETATM   18  C   UNL     1      40.266 -13.178   5.868  1.00  0.00     0.145 A 
HETATM   19  N   UNL     1      39.129 -12.652   6.371  1.00  0.00    -0.170 NA
HETATM   20  N   UNL     1      39.507 -11.450   6.842  1.00  0.00    -0.289 N 
HETATM   21  H   UNL     1      38.805 -10.860   7.280  1.00  0.00     0.188 HD
HETATM   22  C   UNL     1      40.829 -11.181   6.655  1.00  0.00     0.112 A 
HETATM   23  C   UNL     1      41.354 -12.282   6.025  1.00  0.00     0.058 A 
ENDBRANCH  15  18
ENDBRANCH   1  14
BRANCH   1  24
HETATM   24  C   UNL     1      40.631 -15.310   1.513  1.00  0.00    -0.026 A 
HETATM   25  C   UNL     1      39.928 -14.180   1.060  1.00  0.00     0.010 A 
HETATM   26  C   UNL     1      39.844 -13.875  -0.302  1.00  0.00     0.001 A 
HETATM   27  C   UNL     1      40.481 -14.682  -1.238  1.00  0.00     0.000 A 
HETATM   28  C   UNL     1      41.210 -15.788  -0.813  1.00  0.00     0.001 A 
HETATM   29  C   UNL     1      41.295 -16.092   0.549  1.00  0.00     0.010 A 
ENDBRANCH   1  24
TORSDOF 5
ENDMDL
MODEL 9
REMARK VINA RESULT:      -7.7      3.564      6.037
REMARK  5 active torsions:
REMARK  status: ('A' for Active; 'I' for Inactive)
REMARK    1  A    between atoms: C_3  and  N_4 
REMARK       I    between atoms: N_4  and  C_5 
REMARK    2  A    between atoms: C_5  and  C_6 
REMARK    3  A    between atoms: C_6  and  N_7 
REMARK    4  A    between atoms: C_6  and  C_16 
REMARK       I    between atoms: N_7  and  C_8 
REMARK    5  A    between atoms: C_8  and  C_9 
ROOT
HETATM    1  C   UNL     1      40.799 -14.613   2.374  1.00  0.00     0.210 C 
ENDROOT
BRANCH   1   2
HETATM    2  C   UNL     1      41.256 -16.079   2.647  1.00  0.00     0.249 C 
HETATM    3  N   UNL     1      42.591 -16.243   2.976  1.00  0.00    -0.324 N 
HETATM    4  H   UNL     1      43.065 -15.394   3.280  1.00  0.00     0.169 HD
HETATM    5  O   UNL     1      40.447 -17.003   2.520  1.00  0.00    -0.270 OA
BRANCH   3   6
HETATM    6  C   UNL     1      43.179 -17.467   3.380  1.00  0.00     0.046 A 
HETATM    7  C   UNL     1      43.178 -17.905   4.721  1.00  0.00    -0.035 A 
HETATM    8  C   UNL     1      42.473 -17.184   5.839  1.00  0.00     0.050 C 
HETATM    9  C   UNL     1      43.820 -19.113   5.050  1.00  0.00     0.009 A 
HETATM   10  C   UNL     1      44.401 -19.908   4.068  1.00  0.00     0.001 A 
HETATM   11  C   UNL     1      44.345 -19.510   2.739  1.00  0.00     0.009 A 
HETATM   12  C   UNL     1      43.741 -18.294   2.378  1.00  0.00    -0.035 A 
HETATM   13  C   UNL     1      43.743 -17.908   0.922  1.00  0.00     0.050 C 
ENDBRANCH   3   6
ENDBRANCH   1   2
BRANCH   1  14
HETATM   14  N   UNL     1      40.077 -14.422   1.116  1.00  0.00    -0.338 N 
HETATM   15  C   UNL     1      40.631 -14.062  -0.086  1.00  0.00     0.273 C 
HETATM   16  O   UNL     1      41.760 -13.594  -0.195  1.00  0.00    -0.266 OA
HETATM   17  H   UNL     1      39.161 -14.855   1.029  1.00  0.00     0.164 HD
BRANCH  15  18
HETATM   18  C   UNL     1      39.737 -14.278  -1.231  1.00  0.00     0.145 A 
HETATM   19  N   UNL     1      38.410 -14.049  -1.149  1.00  0.00    -0.170 NA
HETATM   20  N   UNL     1      37.949 -14.360  -2.374  1.00  0.00    -0.289 N 
HETATM   21  H   UNL     1      36.955 -14.261  -2.557  1.00  0.00     0.188 HD
HETATM   22  C   UNL     1      38.920 -14.785  -3.230  1.00  0.00     0.112 A 
HETATM   23  C   UNL     1      40.095 -14.744  -2.522  1.00  0.00     0.058 A 
ENDBRANCH  15  18
ENDBRANCH   1  14
BRANCH   1  24
HETATM   24  C   UNL     1      40.186 -13.895   3.577  1.00  0.00    -0.026 A 
HETATM   25  C   UNL     1      40.344 -14.412   4.875  1.00  0.00     0.010 A 
HETATM   26  C   UNL     1      39.847 -13.735   5.992  1.00  0.00     0.001 A 
HETATM   27  C   UNL     1      39.201 -12.514   5.837  1.00  0.00     0.000 A 
HETATM   28  C   UNL     1      39.061 -11.964   4.567  1.00  0.00     0.001 A 
HETATM   29  C   UNL     1      39.558 -12.642   3.450  1.00  0.00     0.010 A 
ENDBRANCH   1  24
TORSDOF 5
ENDMDL
MODEL 10
REMARK VINA RESULT:      -7.6      3.620      5.705
REMARK  5 active torsions:
REMARK  status: ('A' for Active; 'I' for Inactive)
REMARK    1  A    between atoms: C_3  and  N_4 
REMARK       I    between atoms: N_4  and  C_5 
REMARK    2  A    between atoms: C_5  and  C_6 
REMARK    3  A    between atoms: C_6  and  N_7 
REMARK    4  A    between atoms: C_6  and  C_16 
REMARK       I    between atoms: N_7  and  C_8 
REMARK    5  A    between atoms: C_8  and  C_9 
ROOT
HETATM    1  C   UNL     1      42.100 -13.167   2.306  1.00  0.00     0.210 C 
ENDROOT
BRANCH   1   2
HETATM    2  C   UNL     1      42.857 -14.326   3.025  1.00  0.00     0.249 C 
HETATM    3  N   UNL     1      42.200 -15.545   3.058  1.00  0.00    -0.324 N 
HETATM    4  H   UNL     1      41.443 -15.642   2.384  1.00  0.00     0.169 HD
HETATM    5  O   UNL     1      43.950 -14.104   3.553  1.00  0.00    -0.270 OA
BRANCH   3   6
HETATM    6  C   UNL     1      42.760 -16.751   3.548  1.00  0.00     0.046 A 
HETATM    7  C   UNL     1      43.557 -17.599   2.750  1.00  0.00    -0.035 A 
HETATM    8  C   UNL     1      43.981 -17.274   1.344  1.00  0.00     0.050 C 
HETATM    9  C   UNL     1      44.042 -18.801   3.297  1.00  0.00     0.009 A 
HETATM   10  C   UNL     1      43.799 -19.134   4.626  1.00  0.00     0.001 A 
HETATM   11  C   UNL     1      43.070 -18.268   5.430  1.00  0.00     0.009 A 
HETATM   12  C   UNL     1      42.543 -17.075   4.908  1.00  0.00    -0.035 A 
HETATM   13  C   UNL     1      41.736 -16.197   5.828  1.00  0.00     0.050 C 
ENDBRANCH   3   6
ENDBRANCH   1   2
BRANCH   1  14
HETATM   14  N   UNL     1      41.781 -13.424   0.901  1.00  0.00    -0.338 N 
HETATM   15  C   UNL     1      42.240 -12.706  -0.174  1.00  0.00     0.273 C 
HETATM   16  O   UNL     1      42.757 -11.598  -0.075  1.00  0.00    -0.266 OA
HETATM   17  H   UNL     1      41.442 -14.351   0.658  1.00  0.00     0.164 HD
BRANCH  15  18
HETATM   18  C   UNL     1      42.040 -13.387  -1.460  1.00  0.00     0.145 A 
HETATM   19  N   UNL     1      42.757 -13.062  -2.555  1.00  0.00    -0.170 NA
HETATM   20  N   UNL     1      42.288 -13.887  -3.509  1.00  0.00    -0.289 N 
HETATM   21  H   UNL     1      42.689 -13.828  -4.440  1.00  0.00     0.188 HD
HETATM   22  C   UNL     1      41.300 -14.717  -3.074  1.00  0.00     0.112 A 
HETATM   23  C   UNL     1      41.112 -14.420  -1.746  1.00  0.00     0.058 A 
ENDBRANCH  15  18
ENDBRANCH   1  14
BRANCH   1  24
HETATM   24  C   UNL     1      40.961 -12.542   3.115  1.00  0.00    -0.026 A 
HETATM   25  C   UNL     1      39.773 -12.138   2.481  1.00  0.00     0.010 A 
HETATM   26  C   UNL     1      38.698 -11.626   3.213  1.00  0.00     0.001 A 
HETATM   27  C   UNL     1      38.780 -11.530   4.598  1.00  0.00     0.000 A 
HETATM   28  C   UNL     1      39.931 -11.955   5.252  1.00  0.00     0.001 A 
HETATM   29  C   UNL     1      41.007 -12.467   4.519  1.00  0.00     0.010 A 
ENDBRANCH   1  24
TORSDOF 5
ENDMDL
