MODEL 1
REMARK VINA RESULT:      -9.2      0.000      0.000
REMARK  8 active torsions:
REMARK  status: ('A' for Active; 'I' for Inactive)
REMARK    1  A    between atoms: C_2  and  C_3 
REMARK    2  A    between atoms: C_4  and  O_5 
REMARK    3  A    between atoms: N_10  and  N_11 
REMARK       I    between atoms: N_11  and  C_12 
REMARK    4  A    between atoms: C_12  and  C_13 
REMARK    5  A    between atoms: C_13  and  N_14 
REMARK       I    between atoms: N_14  and  C_15 
REMARK    6  A    between atoms: C_15  and  C_16 
REMARK    7  A    between atoms: C_16  and  N_17 
REMARK       I    between atoms: N_17  and  C_18 
REMARK    8  A    between atoms: C_18  and  C_19 
ROOT
HETATM    1  C   UNL     1      42.098 -14.566   5.747  1.00  0.00     0.227 C 
ENDROOT
BRANCH   1   2
HETATM    2  C   UNL     1      42.175 -16.073   5.493  1.00  0.00     0.255 C 
HETATM    3  N   UNL     1      43.348 -16.498   4.891  1.00  0.00    -0.246 N 
HETATM    4  H   UNL     1      44.127 -15.851   4.796  1.00  0.00     0.192 HD
HETATM    5  O   UNL     1      41.206 -16.802   5.709  1.00  0.00    -0.270 OA
BRANCH   3   6
HETATM    6  N   UNL     1      43.484 -17.816   4.575  1.00  0.00    -0.176 NA
HETATM    7  C   UNL     1      43.807 -18.159   3.363  1.00  0.00     0.064 C 
HETATM    8  C   UNL     1      43.983 -17.175   2.232  1.00  0.00     0.073 C 
BRANCH   7   9
HETATM    9  C   UNL     1      43.993 -19.618   3.079  1.00  0.00     0.023 A 
HETATM   10  C   UNL     1      44.632 -20.449   4.011  1.00  0.00     0.077 A 
HETATM   11  C   UNL     1      44.776 -21.815   3.763  1.00  0.00     0.037 A 
HETATM   12  C   UNL     1      44.304 -22.361   2.571  1.00  0.00     0.003 A 
HETATM   13  C   UNL     1      43.695 -21.541   1.623  1.00  0.00     0.001 A 
HETATM   14  C   UNL     1      43.541 -20.174   1.873  1.00  0.00     0.016 A 
BRANCH  10  15
HETATM   15  O   UNL     1      45.141 -20.000   5.199  1.00  0.00    -0.360 OA
HETATM   16  H   UNL     1      44.479 -20.180   5.906  1.00  0.00     0.217 HD
ENDBRANCH  10  15
ENDBRANCH   7   9
ENDBRANCH   3   6
ENDBRANCH   1   2
BRANCH   1  17
HETATM   17  N   UNL     1      42.997 -14.019   6.751  1.00  0.00    -0.351 N 
HETATM   18  C   UNL     1      44.313 -13.725   6.466  1.00  0.00     0.235 C 
HETATM   19  O   UNL     1      44.776 -13.730   5.330  1.00  0.00    -0.272 OA
HETATM   20  H   UNL     1      42.635 -13.768   7.669  1.00  0.00     0.163 HD
BRANCH  18  21
HETATM   21  C   UNL     1      45.136 -13.320   7.689  1.00  0.00     0.225 C 
BRANCH  21  22
HETATM   22  N   UNL     1      44.330 -12.618   8.664  1.00  0.00    -0.348 N 
HETATM   23  C   UNL     1      44.738 -11.434   9.221  1.00  0.00     0.253 C 
HETATM   24  O   UNL     1      45.868 -10.994   9.002  1.00  0.00    -0.268 OA
HETATM   25  H   UNL     1      43.453 -13.043   8.943  1.00  0.00     0.163 HD
BRANCH  23  26
HETATM   26  C   UNL     1      43.794 -10.689  10.118  1.00  0.00     0.053 A 
HETATM   27  C   UNL     1      42.529 -10.182   9.773  1.00  0.00     0.049 A 
HETATM   28 CL   UNL     1      41.819 -10.301   8.200  1.00  0.00    -0.083 Cl
HETATM   29  C   UNL     1      41.746  -9.524  10.736  1.00  0.00     0.025 A 
HETATM   30  C   UNL     1      42.202  -9.362  12.042  1.00  0.00     0.002 A 
HETATM   31  C   UNL     1      43.456  -9.846  12.395  1.00  0.00     0.001 A 
HETATM   32  C   UNL     1      44.244 -10.493  11.441  1.00  0.00     0.019 A 
ENDBRANCH  23  26
ENDBRANCH  21  22
ENDBRANCH  18  21
ENDBRANCH   1  17
TORSDOF 8
ENDMDL
MODEL 2
REMARK VINA RESULT:      -9.1      2.605     10.772
REMARK  8 active torsions:
REMARK  status: ('A' for Active; 'I' for Inactive)
REMARK    1  A    between atoms: C_2  and  C_3 
REMARK    2  A    between atoms: C_4  and  O_5 
REMARK    3  A    between atoms: N_10  and  N_11 
REMARK       I    between atoms: N_11  and  C_12 
REMARK    4  A    between atoms: C_12  and  C_13 
REMARK    5  A    between atoms: C_13  and  N_14 
REMARK       I    between atoms: N_14  and  C_15 
REMARK    6  A    between atoms: C_15  and  C_16 
REMARK    7  A    between atoms: C_16  and  N_17 
REMARK       I    between atoms: N_17  and  C_18 
REMARK    8  A    between atoms: C_18  and  C_19 
ROOT
HETATM    1  C   UNL     1      45.462 -13.089   7.495  1.00  0.00     0.227 C 
ENDROOT
BRANCH   1   2
HETATM    2  C   UNL     1      45.292 -12.344   8.821  1.00  0.00     0.255 C 
HETATM    3  N   UNL     1      44.284 -12.835   9.634  1.00  0.00    -0.246 N 
HETATM    4  H   UNL     1      43.834 -13.717   9.399  1.00  0.00     0.192 HD
HETATM    5  O   UNL     1      45.935 -11.321   9.060  1.00  0.00    -0.270 OA
BRANCH   3   6
HETATM    6  N   UNL     1      44.020 -12.201  10.810  1.00  0.00    -0.176 NA
HETATM    7  C   UNL     1      43.065 -11.321  10.870  1.00  0.00     0.064 C 
HETATM    8  C   UNL     1      42.245 -10.893   9.677  1.00  0.00     0.073 C 
BRANCH   7   9
HETATM    9  C   UNL     1      42.783 -10.689  12.197  1.00  0.00     0.023 A 
HETATM   10  C   UNL     1      41.645 -11.054  12.933  1.00  0.00     0.077 A 
HETATM   11  C   UNL     1      41.398 -10.490  14.186  1.00  0.00     0.037 A 
HETATM   12  C   UNL     1      42.273  -9.539  14.707  1.00  0.00     0.003 A 
HETATM   13  C   UNL     1      43.390  -9.145  13.974  1.00  0.00     0.001 A 
HETATM   14  C   UNL     1      43.644  -9.714  12.722  1.00  0.00     0.016 A 
BRANCH  10  15
HETATM   15  O   UNL     1      40.723 -11.965  12.495  1.00  0.00    -0.360 OA
HETATM   16  H   UNL     1      40.343 -11.634  11.647  1.00  0.00     0.217 HD
ENDBRANCH  10  15
ENDBRANCH   7   9
ENDBRANCH   3   6
ENDBRANCH   1   2
BRANCH   1  17
HETATM   17  N   UNL     1      44.603 -14.241   7.270  1.00  0.00    -0.351 N 
HETATM   18  C   UNL     1      43.856 -14.378   6.121  1.00  0.00     0.235 C 
HETATM   19  O   UNL     1      43.986 -13.651   5.140  1.00  0.00    -0.272 OA
HETATM   20  H   UNL     1      44.606 -15.010   7.937  1.00  0.00     0.163 HD
BRANCH  18  21
HETATM   21  C   UNL     1      42.893 -15.565   6.144  1.00  0.00     0.225 C 
BRANCH  21  22
HETATM   22  N   UNL     1      43.435 -16.703   5.435  1.00  0.00    -0.348 N 
HETATM   23  C   UNL     1      42.626 -17.637   4.841  1.00  0.00     0.253 C 
HETATM   24  O   UNL     1      41.405 -17.603   5.004  1.00  0.00    -0.268 OA
HETATM   25  H   UNL     1      44.444 -16.804   5.407  1.00  0.00     0.163 HD
BRANCH  23  26
HETATM   26  C   UNL     1      43.252 -18.714   4.005  1.00  0.00     0.053 A 
HETATM   27  C   UNL     1      43.026 -18.956   2.639  1.00  0.00     0.049 A 
HETATM   28 CL   UNL     1      41.934 -18.050   1.648  1.00  0.00    -0.083 Cl
HETATM   29  C   UNL     1      43.709 -19.994   1.984  1.00  0.00     0.025 A 
HETATM   30  C   UNL     1      44.617 -20.798   2.669  1.00  0.00     0.002 A 
HETATM   31  C   UNL     1      44.841 -20.580   4.022  1.00  0.00     0.001 A 
HETATM   32  C   UNL     1      44.159 -19.556   4.682  1.00  0.00     0.019 A 
ENDBRANCH  23  26
ENDBRANCH  21  22
ENDBRANCH  18  21
ENDBRANCH   1  17
TORSDOF 8
ENDMDL
MODEL 3
REMARK VINA RESULT:      -8.7      1.949      2.396
REMARK  8 active torsions:
REMARK  status: ('A' for Active; 'I' for Inactive)
REMARK    1  A    between atoms: C_2  and  C_3 
REMARK    2  A    between atoms: C_4  and  O_5 
REMARK    3  A    between atoms: N_10  and  N_11 
REMARK       I    between atoms: N_11  and  C_12 
REMARK    4  A    between atoms: C_12  and  C_13 
REMARK    5  A    between atoms: C_13  and  N_14 
REMARK       I    between atoms: N_14  and  C_15 
REMARK    6  A    between atoms: C_15  and  C_16 
REMARK    7  A    between atoms: C_16  and  N_17 
REMARK       I    between atoms: N_17  and  C_18 
REMARK    8  A    between atoms: C_18  and  C_19 
ROOT
HETATM    1  C   UNL     1      41.833 -14.122   3.928  1.00  0.00     0.227 C 
ENDROOT
BRANCH   1   2
HETATM    2  C   UNL     1      41.915 -15.649   3.965  1.00  0.00     0.255 C 
HETATM    3  N   UNL     1      43.203 -16.159   3.978  1.00  0.00    -0.246 N 
HETATM    4  H   UNL     1      43.990 -15.530   4.116  1.00  0.00     0.192 HD
HETATM    5  O   UNL     1      40.900 -16.341   3.869  1.00  0.00    -0.270 OA
BRANCH   3   6
HETATM    6  N   UNL     1      43.375 -17.509   3.954  1.00  0.00    -0.176 NA
HETATM    7  C   UNL     1      43.848 -18.082   2.886  1.00  0.00     0.064 C 
HETATM    8  C   UNL     1      44.168 -17.341   1.610  1.00  0.00     0.073 C 
BRANCH   7   9
HETATM    9  C   UNL     1      44.065 -19.563   2.928  1.00  0.00     0.023 A 
HETATM   10  C   UNL     1      44.652 -20.165   4.052  1.00  0.00     0.077 A 
HETATM   11  C   UNL     1      44.825 -21.549   4.107  1.00  0.00     0.037 A 
HETATM   12  C   UNL     1      44.435 -22.344   3.031  1.00  0.00     0.003 A 
HETATM   13  C   UNL     1      43.880 -21.756   1.897  1.00  0.00     0.001 A 
HETATM   14  C   UNL     1      43.697 -20.371   1.843  1.00  0.00     0.016 A 
BRANCH  10  15
HETATM   15  O   UNL     1      45.080 -19.464   5.147  1.00  0.00    -0.360 OA
HETATM   16  H   UNL     1      44.297 -19.035   5.563  1.00  0.00     0.217 HD
ENDBRANCH  10  15
ENDBRANCH   7   9
ENDBRANCH   3   6
ENDBRANCH   1   2
BRANCH   1  17
HETATM   17  N   UNL     1      41.130 -13.471   5.023  1.00  0.00    -0.351 N 
HETATM   18  C   UNL     1      41.121 -12.101   5.169  1.00  0.00     0.235 C 
HETATM   19  O   UNL     1      41.541 -11.327   4.315  1.00  0.00    -0.272 OA
HETATM   20  H   UNL     1      40.561 -14.027   5.658  1.00  0.00     0.163 HD
BRANCH  18  21
HETATM   21  C   UNL     1      40.473 -11.621   6.468  1.00  0.00     0.225 C 
BRANCH  21  22
HETATM   22  N   UNL     1      41.392 -11.701   7.582  1.00  0.00    -0.348 N 
HETATM   23  C   UNL     1      42.093 -10.608   8.021  1.00  0.00     0.253 C 
HETATM   24  O   UNL     1      42.057  -9.547   7.396  1.00  0.00    -0.268 OA
HETATM   25  H   UNL     1      41.521 -12.606   8.021  1.00  0.00     0.163 HD
BRANCH  23  26
HETATM   26  C   UNL     1      42.922 -10.728   9.267  1.00  0.00     0.053 A 
HETATM   27  C   UNL     1      44.032 -11.567   9.460  1.00  0.00     0.049 A 
HETATM   28 CL   UNL     1      44.650 -12.667   8.277  1.00  0.00    -0.083 Cl
HETATM   29  C   UNL     1      44.725 -11.550  10.682  1.00  0.00     0.025 A 
HETATM   30  C   UNL     1      44.329 -10.707  11.718  1.00  0.00     0.002 A 
HETATM   31  C   UNL     1      43.225  -9.882  11.548  1.00  0.00     0.001 A 
HETATM   32  C   UNL     1      42.526  -9.900  10.339  1.00  0.00     0.019 A 
ENDBRANCH  23  26
ENDBRANCH  21  22
ENDBRANCH  18  21
ENDBRANCH   1  17
TORSDOF 8
ENDMDL
MODEL 4
REMARK VINA RESULT:      -8.5      2.903     10.634
REMARK  8 active torsions:
REMARK  status: ('A' for Active; 'I' for Inactive)
REMARK    1  A    between atoms: C_2  and  C_3 
REMARK    2  A    between atoms: C_4  and  O_5 
REMARK    3  A    between atoms: N_10  and  N_11 
REMARK       I    between atoms: N_11  and  C_12 
REMARK    4  A    between atoms: C_12  and  C_13 
REMARK    5  A    between atoms: C_13  and  N_14 
REMARK       I    between atoms: N_14  and  C_15 
REMARK    6  A    between atoms: C_15  and  C_16 
REMARK    7  A    between atoms: C_16  and  N_17 
REMARK       I    between atoms: N_17  and  C_18 
REMARK    8  A    between atoms: C_18  and  C_19 
ROOT
HETATM    1  C   UNL     1      41.618 -11.684   5.871  1.00  0.00     0.227 C 
ENDROOT
BRANCH   1   2
HETATM    2  C   UNL     1      41.248 -11.271   7.297  1.00  0.00     0.255 C 
HETATM    3  N   UNL     1      42.329 -11.088   8.144  1.00  0.00    -0.246 N 
HETATM    4  H   UNL     1      43.271 -11.080   7.761  1.00  0.00     0.192 HD
HETATM    5  O   UNL     1      40.072 -11.232   7.660  1.00  0.00    -0.270 OA
BRANCH   3   6
HETATM    6  N   UNL     1      42.096 -10.775   9.448  1.00  0.00    -0.176 NA
HETATM    7  C   UNL     1      42.998 -11.037  10.348  1.00  0.00     0.064 C 
HETATM    8  C   UNL     1      44.298 -11.745  10.048  1.00  0.00     0.073 C 
BRANCH   7   9
HETATM    9  C   UNL     1      42.714 -10.628  11.759  1.00  0.00     0.023 A 
HETATM   10  C   UNL     1      41.535 -11.042  12.398  1.00  0.00     0.077 A 
HETATM   11  C   UNL     1      41.283 -10.689  13.724  1.00  0.00     0.037 A 
HETATM   12  C   UNL     1      42.197  -9.900  14.421  1.00  0.00     0.003 A 
HETATM   13  C   UNL     1      43.357  -9.457  13.790  1.00  0.00     0.001 A 
HETATM   14  C   UNL     1      43.615  -9.816  12.464  1.00  0.00     0.016 A 
BRANCH  10  15
HETATM   15  O   UNL     1      40.574 -11.803  11.788  1.00  0.00    -0.360 OA
HETATM   16  H   UNL     1      39.716 -11.641  12.247  1.00  0.00     0.217 HD
ENDBRANCH  10  15
ENDBRANCH   7   9
ENDBRANCH   3   6
ENDBRANCH   1   2
BRANCH   1  17
HETATM   17  N   UNL     1      41.117 -12.967   5.404  1.00  0.00    -0.351 N 
HETATM   18  C   UNL     1      41.938 -14.068   5.283  1.00  0.00     0.235 C 
HETATM   19  O   UNL     1      43.086 -14.107   5.716  1.00  0.00    -0.272 OA
HETATM   20  H   UNL     1      40.121 -13.089   5.235  1.00  0.00     0.163 HD
BRANCH  18  21
HETATM   21  C   UNL     1      41.267 -15.271   4.620  1.00  0.00     0.225 C 
BRANCH  21  22
HETATM   22  N   UNL     1      42.234 -16.284   4.255  1.00  0.00    -0.348 N 
HETATM   23  C   UNL     1      42.017 -17.613   4.508  1.00  0.00     0.253 C 
HETATM   24  O   UNL     1      41.045 -17.975   5.173  1.00  0.00    -0.268 OA
HETATM   25  H   UNL     1      43.097 -15.976   3.820  1.00  0.00     0.163 HD
BRANCH  23  26
HETATM   26  C   UNL     1      42.994 -18.623   3.980  1.00  0.00     0.053 A 
HETATM   27  C   UNL     1      43.975 -19.309   4.715  1.00  0.00     0.049 A 
HETATM   28 CL   UNL     1      44.265 -19.093   6.407  1.00  0.00    -0.083 Cl
HETATM   29  C   UNL     1      44.805 -20.248   4.080  1.00  0.00     0.025 A 
HETATM   30  C   UNL     1      44.673 -20.516   2.720  1.00  0.00     0.002 A 
HETATM   31  C   UNL     1      43.717 -19.836   1.976  1.00  0.00     0.001 A 
HETATM   32  C   UNL     1      42.895 -18.895   2.598  1.00  0.00     0.019 A 
ENDBRANCH  23  26
ENDBRANCH  21  22
ENDBRANCH  18  21
ENDBRANCH   1  17
TORSDOF 8
ENDMDL
MODEL 5
REMARK VINA RESULT:      -8.5      2.262      2.740
REMARK  8 active torsions:
REMARK  status: ('A' for Active; 'I' for Inactive)
REMARK    1  A    between atoms: C_2  and  C_3 
REMARK    2  A    between atoms: C_4  and  O_5 
REMARK    3  A    between atoms: N_10  and  N_11 
REMARK       I    between atoms: N_11  and  C_12 
REMARK    4  A    between atoms: C_12  and  C_13 
REMARK    5  A    between atoms: C_13  and  N_14 
REMARK       I    between atoms: N_14  and  C_15 
REMARK    6  A    between atoms: C_15  and  C_16 
REMARK    7  A    between atoms: C_16  and  N_17 
REMARK       I    between atoms: N_17  and  C_18 
REMARK    8  A    between atoms: C_18  and  C_19 
ROOT
HETATM    1  C   UNL     1      40.095 -14.447   5.634  1.00  0.00     0.227 C 
ENDROOT
BRANCH   1   2
HETATM    2  C   UNL     1      40.972 -15.693   5.495  1.00  0.00     0.255 C 
HETATM    3  N   UNL     1      40.792 -16.397   4.316  1.00  0.00    -0.246 N 
HETATM    4  H   UNL     1      40.234 -15.991   3.569  1.00  0.00     0.192 HD
HETATM    5  O   UNL     1      41.682 -16.076   6.426  1.00  0.00    -0.270 OA
BRANCH   3   6
HETATM    6  N   UNL     1      41.489 -17.552   4.127  1.00  0.00    -0.176 NA
HETATM    7  C   UNL     1      42.397 -17.615   3.198  1.00  0.00     0.064 C 
HETATM    8  C   UNL     1      42.697 -16.486   2.242  1.00  0.00     0.073 C 
BRANCH   7   9
HETATM    9  C   UNL     1      43.169 -18.891   3.064  1.00  0.00     0.023 A 
HETATM   10  C   UNL     1      44.110 -19.260   4.037  1.00  0.00     0.077 A 
HETATM   11  C   UNL     1      44.806 -20.464   3.931  1.00  0.00     0.037 A 
HETATM   12  C   UNL     1      44.587 -21.304   2.841  1.00  0.00     0.003 A 
HETATM   13  C   UNL     1      43.677 -20.936   1.852  1.00  0.00     0.001 A 
HETATM   14  C   UNL     1      42.971 -19.734   1.960  1.00  0.00     0.016 A 
BRANCH  10  15
HETATM   15  O   UNL     1      44.405 -18.492   5.131  1.00  0.00    -0.360 OA
HETATM   16  H   UNL     1      44.371 -17.545   4.860  1.00  0.00     0.217 HD
ENDBRANCH  10  15
ENDBRANCH   7   9
ENDBRANCH   3   6
ENDBRANCH   1   2
BRANCH   1  17
HETATM   17  N   UNL     1      40.674 -13.306   6.326  1.00  0.00    -0.351 N 
HETATM   18  C   UNL     1      40.006 -12.106   6.436  1.00  0.00     0.235 C 
HETATM   19  O   UNL     1      38.828 -11.957   6.125  1.00  0.00    -0.272 OA
HETATM   20  H   UNL     1      41.561 -13.410   6.815  1.00  0.00     0.163 HD
BRANCH  18  21
HETATM   21  C   UNL     1      40.844 -10.983   7.048  1.00  0.00     0.225 C 
BRANCH  21  22
HETATM   22  N   UNL     1      40.933 -11.110   8.486  1.00  0.00    -0.348 N 
HETATM   23  C   UNL     1      42.046 -10.710   9.179  1.00  0.00     0.253 C 
HETATM   24  O   UNL     1      43.060 -10.346   8.581  1.00  0.00    -0.268 OA
HETATM   25  H   UNL     1      40.147 -11.529   8.971  1.00  0.00     0.163 HD
BRANCH  23  26
HETATM   26  C   UNL     1      42.017 -10.739  10.679  1.00  0.00     0.053 A 
HETATM   27  C   UNL     1      42.954 -11.355  11.526  1.00  0.00     0.049 A 
HETATM   28 CL   UNL     1      44.337 -12.242  10.982  1.00  0.00    -0.083 Cl
HETATM   29  C   UNL     1      42.805 -11.276  12.921  1.00  0.00     0.025 A 
HETATM   30  C   UNL     1      41.734 -10.590  13.488  1.00  0.00     0.002 A 
HETATM   31  C   UNL     1      40.792  -9.987  12.665  1.00  0.00     0.001 A 
HETATM   32  C   UNL     1      40.929 -10.069  11.278  1.00  0.00     0.019 A 
ENDBRANCH  23  26
ENDBRANCH  21  22
ENDBRANCH  18  21
ENDBRANCH   1  17
TORSDOF 8
ENDMDL
MODEL 6
REMARK VINA RESULT:      -8.3      4.997      8.848
REMARK  8 active torsions:
REMARK  status: ('A' for Active; 'I' for Inactive)
REMARK    1  A    between atoms: C_2  and  C_3 
REMARK    2  A    between atoms: C_4  and  O_5 
REMARK    3  A    between atoms: N_10  and  N_11 
REMARK       I    between atoms: N_11  and  C_12 
REMARK    4  A    between atoms: C_12  and  C_13 
REMARK    5  A    between atoms: C_13  and  N_14 
REMARK       I    between atoms: N_14  and  C_15 
REMARK    6  A    between atoms: C_15  and  C_16 
REMARK    7  A    between atoms: C_16  and  N_17 
REMARK       I    between atoms: N_17  and  C_18 
REMARK    8  A    between atoms: C_18  and  C_19 
ROOT
HETATM    1  C   UNL     1      40.967 -15.745   5.371  1.00  0.00     0.227 C 
ENDROOT
BRANCH   1   2
HETATM    2  C   UNL     1      41.084 -15.024   4.027  1.00  0.00     0.255 C 
HETATM    3  N   UNL     1      40.465 -15.669   2.969  1.00  0.00    -0.246 N 
HETATM    4  H   UNL     1      39.859 -16.466   3.152  1.00  0.00     0.192 HD
HETATM    5  O   UNL     1      41.781 -14.015   3.907  1.00  0.00    -0.270 OA
BRANCH   3   6
HETATM    6  N   UNL     1      40.564 -15.131   1.722  1.00  0.00    -0.176 NA
HETATM    7  C   UNL     1      41.245 -15.751   0.803  1.00  0.00     0.064 C 
HETATM    8  C   UNL     1      42.010 -17.029   1.046  1.00  0.00     0.073 C 
BRANCH   7   9
HETATM    9  C   UNL     1      41.282 -15.143  -0.565  1.00  0.00     0.023 A 
HETATM   10  C   UNL     1      41.658 -13.802  -0.739  1.00  0.00     0.077 A 
HETATM   11  C   UNL     1      41.725 -13.243  -2.016  1.00  0.00     0.037 A 
HETATM   12  C   UNL     1      41.395 -14.011  -3.132  1.00  0.00     0.003 A 
HETATM   13  C   UNL     1      40.991 -15.334  -2.970  1.00  0.00     0.001 A 
HETATM   14  C   UNL     1      40.932 -15.899  -1.693  1.00  0.00     0.016 A 
BRANCH  10  15
HETATM   15  O   UNL     1      41.982 -12.968   0.297  1.00  0.00    -0.360 OA
HETATM   16  H   UNL     1      41.165 -12.799   0.823  1.00  0.00     0.217 HD
ENDBRANCH  10  15
ENDBRANCH   7   9
ENDBRANCH   3   6
ENDBRANCH   1   2
BRANCH   1  17
HETATM   17  N   UNL     1      42.065 -16.622   5.747  1.00  0.00    -0.351 N 
HETATM   18  C   UNL     1      43.244 -16.131   6.264  1.00  0.00     0.235 C 
HETATM   19  O   UNL     1      43.396 -14.963   6.609  1.00  0.00    -0.272 OA
HETATM   20  H   UNL     1      41.940 -17.631   5.706  1.00  0.00     0.163 HD
BRANCH  18  21
HETATM   21  C   UNL     1      44.333 -17.190   6.439  1.00  0.00     0.225 C 
BRANCH  21  22
HETATM   22  N   UNL     1      44.415 -18.063   5.288  1.00  0.00    -0.348 N 
HETATM   23  C   UNL     1      44.310 -19.424   5.406  1.00  0.00     0.253 C 
HETATM   24  O   UNL     1      44.270 -19.957   6.516  1.00  0.00    -0.268 OA
HETATM   25  H   UNL     1      44.575 -17.634   4.383  1.00  0.00     0.163 HD
BRANCH  23  26
HETATM   26  C   UNL     1      44.263 -20.260   4.160  1.00  0.00     0.053 A 
HETATM   27  C   UNL     1      44.658 -21.602   4.032  1.00  0.00     0.049 A 
HETATM   28 CL   UNL     1      45.317 -22.559   5.314  1.00  0.00    -0.083 Cl
HETATM   29  C   UNL     1      44.531 -22.261   2.798  1.00  0.00     0.025 A 
HETATM   30  C   UNL     1      44.014 -21.602   1.685  1.00  0.00     0.002 A 
HETATM   31  C   UNL     1      43.631 -20.271   1.791  1.00  0.00     0.001 A 
HETATM   32  C   UNL     1      43.763 -19.608   3.012  1.00  0.00     0.019 A 
ENDBRANCH  23  26
ENDBRANCH  21  22
ENDBRANCH  18  21
ENDBRANCH   1  17
TORSDOF 8
ENDMDL
MODEL 7
REMARK VINA RESULT:      -8.3      4.862      8.572
REMARK  8 active torsions:
REMARK  status: ('A' for Active; 'I' for Inactive)
REMARK    1  A    between atoms: C_2  and  C_3 
REMARK    2  A    between atoms: C_4  and  O_5 
REMARK    3  A    between atoms: N_10  and  N_11 
REMARK       I    between atoms: N_11  and  C_12 
REMARK    4  A    between atoms: C_12  and  C_13 
REMARK    5  A    between atoms: C_13  and  N_14 
REMARK       I    between atoms: N_14  and  C_15 
REMARK    6  A    between atoms: C_15  and  C_16 
REMARK    7  A    between atoms: C_16  and  N_17 
REMARK       I    between atoms: N_17  and  C_18 
REMARK    8  A    between atoms: C_18  and  C_19 
ROOT
HETATM    1  C   UNL     1      42.809 -13.943   4.529  1.00  0.00     0.227 C 
ENDROOT
BRANCH   1   2
HETATM    2  C   UNL     1      43.203 -15.415   4.666  1.00  0.00     0.255 C 
HETATM    3  N   UNL     1      42.784 -16.224   3.623  1.00  0.00    -0.246 N 
HETATM    4  H   UNL     1      42.395 -15.801   2.784  1.00  0.00     0.192 HD
HETATM    5  O   UNL     1      43.743 -15.833   5.691  1.00  0.00    -0.270 OA
BRANCH   3   6
HETATM    6  N   UNL     1      43.039 -17.560   3.685  1.00  0.00    -0.176 NA
HETATM    7  C   UNL     1      43.688 -18.140   2.718  1.00  0.00     0.064 C 
HETATM    8  C   UNL     1      44.136 -17.427   1.464  1.00  0.00     0.073 C 
BRANCH   7   9
HETATM    9  C   UNL     1      43.987 -19.600   2.857  1.00  0.00     0.023 A 
HETATM   10  C   UNL     1      44.591 -20.096   4.022  1.00  0.00     0.077 A 
HETATM   11  C   UNL     1      44.839 -21.462   4.168  1.00  0.00     0.037 A 
HETATM   12  C   UNL     1      44.508 -22.345   3.141  1.00  0.00     0.003 A 
HETATM   13  C   UNL     1      43.936 -21.861   1.967  1.00  0.00     0.001 A 
HETATM   14  C   UNL     1      43.677 -20.495   1.822  1.00  0.00     0.016 A 
BRANCH  10  15
HETATM   15  O   UNL     1      44.966 -19.304   5.074  1.00  0.00    -0.360 OA
HETATM   16  H   UNL     1      45.071 -19.878   5.869  1.00  0.00     0.217 HD
ENDBRANCH  10  15
ENDBRANCH   7   9
ENDBRANCH   3   6
ENDBRANCH   1   2
BRANCH   1  17
HETATM   17  N   UNL     1      42.810 -13.381   3.187  1.00  0.00    -0.351 N 
HETATM   18  C   UNL     1      41.724 -13.503   2.347  1.00  0.00     0.235 C 
HETATM   19  O   UNL     1      40.631 -13.926   2.712  1.00  0.00    -0.272 OA
HETATM   20  H   UNL     1      43.596 -12.813   2.878  1.00  0.00     0.163 HD
BRANCH  18  21
HETATM   21  C   UNL     1      41.978 -12.998   0.927  1.00  0.00     0.225 C 
BRANCH  21  22
HETATM   22  N   UNL     1      40.987 -13.497  -0.000  1.00  0.00    -0.348 N 
HETATM   23  C   UNL     1      41.276 -13.706  -1.324  1.00  0.00     0.253 C 
HETATM   24  O   UNL     1      42.359 -13.351  -1.793  1.00  0.00    -0.268 OA
HETATM   25  H   UNL     1      40.053 -13.671   0.357  1.00  0.00     0.163 HD
BRANCH  23  26
HETATM   26  C   UNL     1      40.245 -14.356  -2.199  1.00  0.00     0.053 A 
HETATM   27  C   UNL     1      38.964 -13.862  -2.500  1.00  0.00     0.049 A 
HETATM   28 CL   UNL     1      38.309 -12.387  -1.877  1.00  0.00    -0.083 Cl
HETATM   29  C   UNL     1      38.116 -14.578  -3.361  1.00  0.00     0.025 A 
HETATM   30  C   UNL     1      38.523 -15.782  -3.930  1.00  0.00     0.002 A 
HETATM   31  C   UNL     1      39.781 -16.291  -3.632  1.00  0.00     0.001 A 
HETATM   32  C   UNL     1      40.626 -15.589  -2.770  1.00  0.00     0.019 A 
ENDBRANCH  23  26
ENDBRANCH  21  22
ENDBRANCH  18  21
ENDBRANCH   1  17
TORSDOF 8
ENDMDL
MODEL 8
REMARK VINA RESULT:      -8.2      4.621      9.059
REMARK  8 active torsions:
REMARK  status: ('A' for Active; 'I' for Inactive)
REMARK    1  A    between atoms: C_2  and  C_3 
REMARK    2  A    between atoms: C_4  and  O_5 
REMARK    3  A    between atoms: N_10  and  N_11 
REMARK       I    between atoms: N_11  and  C_12 
REMARK    4  A    between atoms: C_12  and  C_13 
REMARK    5  A    between atoms: C_13  and  N_14 
REMARK       I    between atoms: N_14  and  C_15 
REMARK    6  A    between atoms: C_15  and  C_16 
REMARK    7  A    between atoms: C_16  and  N_17 
REMARK       I    between atoms: N_17  and  C_18 
REMARK    8  A    between atoms: C_18  and  C_19 
ROOT
HETATM    1  C   UNL     1      42.289 -14.438   5.596  1.00  0.00     0.227 C 
ENDROOT
BRANCH   1   2
HETATM    2  C   UNL     1      42.767 -13.966   4.222  1.00  0.00     0.255 C 
HETATM    3  N   UNL     1      41.859 -14.165   3.195  1.00  0.00    -0.246 N 
HETATM    4  H   UNL     1      40.909 -14.453   3.414  1.00  0.00     0.192 HD
HETATM    5  O   UNL     1      43.917 -13.557   4.057  1.00  0.00    -0.270 OA
BRANCH   3   6
HETATM    6  N   UNL     1      42.219 -13.828   1.925  1.00  0.00    -0.176 NA
HETATM    7  C   UNL     1      41.301 -13.588   1.035  1.00  0.00     0.064 C 
HETATM    8  C   UNL     1      39.821 -13.723   1.301  1.00  0.00     0.073 C 
BRANCH   7   9
HETATM    9  C   UNL     1      41.748 -13.173  -0.332  1.00  0.00     0.023 A 
HETATM   10  C   UNL     1      42.439 -11.966  -0.520  1.00  0.00     0.077 A 
HETATM   11  C   UNL     1      42.887 -11.594  -1.788  1.00  0.00     0.037 A 
HETATM   12  C   UNL     1      42.629 -12.411  -2.887  1.00  0.00     0.003 A 
HETATM   13  C   UNL     1      41.917 -13.597  -2.719  1.00  0.00     0.001 A 
HETATM   14  C   UNL     1      41.476 -13.978  -1.448  1.00  0.00     0.016 A 
BRANCH  10  15
HETATM   15  O   UNL     1      42.722 -11.092   0.495  1.00  0.00    -0.360 OA
HETATM   16  H   UNL     1      42.009 -11.166   1.172  1.00  0.00     0.217 HD
ENDBRANCH  10  15
ENDBRANCH   7   9
ENDBRANCH   3   6
ENDBRANCH   1   2
BRANCH   1  17
HETATM   17  N   UNL     1      42.795 -15.718   6.068  1.00  0.00    -0.351 N 
HETATM   18  C   UNL     1      44.015 -15.829   6.698  1.00  0.00     0.235 C 
HETATM   19  O   UNL     1      44.678 -14.864   7.066  1.00  0.00    -0.272 OA
HETATM   20  H   UNL     1      42.207 -16.546   6.007  1.00  0.00     0.163 HD
BRANCH  18  21
HETATM   21  C   UNL     1      44.445 -17.272   6.966  1.00  0.00     0.225 C 
BRANCH  21  22
HETATM   22  N   UNL     1      44.548 -18.033   5.740  1.00  0.00    -0.348 N 
HETATM   23  C   UNL     1      44.087 -19.320   5.648  1.00  0.00     0.253 C 
HETATM   24  O   UNL     1      43.684 -19.915   6.648  1.00  0.00    -0.268 OA
HETATM   25  H   UNL     1      44.996 -17.587   4.947  1.00  0.00     0.163 HD
BRANCH  23  26
HETATM   26  C   UNL     1      44.098 -20.002   4.311  1.00  0.00     0.053 A 
HETATM   27  C   UNL     1      44.577 -21.292   4.029  1.00  0.00     0.049 A 
HETATM   28 CL   UNL     1      45.288 -22.353   5.196  1.00  0.00    -0.083 Cl
HETATM   29  C   UNL     1      44.497 -21.805   2.723  1.00  0.00     0.025 A 
HETATM   30  C   UNL     1      43.944 -21.051   1.690  1.00  0.00     0.002 A 
HETATM   31  C   UNL     1      43.478 -19.768   1.950  1.00  0.00     0.001 A 
HETATM   32  C   UNL     1      43.564 -19.249   3.243  1.00  0.00     0.019 A 
ENDBRANCH  23  26
ENDBRANCH  21  22
ENDBRANCH  18  21
ENDBRANCH   1  17
TORSDOF 8
ENDMDL
MODEL 9
REMARK VINA RESULT:      -8.2      2.878     10.801
REMARK  8 active torsions:
REMARK  status: ('A' for Active; 'I' for Inactive)
REMARK    1  A    between atoms: C_2  and  C_3 
REMARK    2  A    between atoms: C_4  and  O_5 
REMARK    3  A    between atoms: N_10  and  N_11 
REMARK       I    between atoms: N_11  and  C_12 
REMARK    4  A    between atoms: C_12  and  C_13 
REMARK    5  A    between atoms: C_13  and  N_14 
REMARK       I    between atoms: N_14  and  C_15 
REMARK    6  A    between atoms: C_15  and  C_16 
REMARK    7  A    between atoms: C_16  and  N_17 
REMARK       I    between atoms: N_17  and  C_18 
REMARK    8  A    between atoms: C_18  and  C_19 
ROOT
HETATM    1  C   UNL     1      41.818 -12.183   6.026  1.00  0.00     0.227 C 
ENDROOT
BRANCH   1   2
HETATM    2  C   UNL     1      41.523 -11.333   7.263  1.00  0.00     0.255 C 
HETATM    3  N   UNL     1      42.478 -11.419   8.263  1.00  0.00    -0.246 N 
HETATM    4  H   UNL     1      43.360 -11.890   8.077  1.00  0.00     0.192 HD
HETATM    5  O   UNL     1      40.456 -10.728   7.377  1.00  0.00    -0.270 OA
BRANCH   3   6
HETATM    6  N   UNL     1      42.273 -10.741   9.426  1.00  0.00    -0.176 NA
HETATM    7  C   UNL     1      43.280 -10.478  10.207  1.00  0.00     0.064 C 
HETATM    8  C   UNL     1      44.692 -10.941   9.938  1.00  0.00     0.073 C 
BRANCH   7   9
HETATM    9  C   UNL     1      43.010  -9.687  11.449  1.00  0.00     0.023 A 
HETATM   10  C   UNL     1      42.109  -8.611  11.428  1.00  0.00     0.077 A 
HETATM   11  C   UNL     1      41.831  -7.894  12.592  1.00  0.00     0.037 A 
HETATM   12  C   UNL     1      42.466  -8.229  13.786  1.00  0.00     0.003 A 
HETATM   13  C   UNL     1      43.386  -9.275  13.815  1.00  0.00     0.001 A 
HETATM   14  C   UNL     1      43.660 -10.001  12.652  1.00  0.00     0.016 A 
BRANCH  10  15
HETATM   15  O   UNL     1      41.452  -8.200  10.299  1.00  0.00    -0.360 OA
HETATM   16  H   UNL     1      41.332  -7.223  10.353  1.00  0.00     0.217 HD
ENDBRANCH  10  15
ENDBRANCH   7   9
ENDBRANCH   3   6
ENDBRANCH   1   2
BRANCH   1  17
HETATM   17  N   UNL     1      41.658 -13.623   6.161  1.00  0.00    -0.351 N 
HETATM   18  C   UNL     1      40.527 -14.274   5.718  1.00  0.00     0.235 C 
HETATM   19  O   UNL     1      39.663 -13.737   5.032  1.00  0.00    -0.272 OA
HETATM   20  H   UNL     1      42.429 -14.184   6.517  1.00  0.00     0.163 HD
BRANCH  18  21
HETATM   21  C   UNL     1      40.474 -15.753   6.100  1.00  0.00     0.225 C 
BRANCH  21  22
HETATM   22  N   UNL     1      41.067 -16.588   5.078  1.00  0.00    -0.348 N 
HETATM   23  C   UNL     1      42.399 -16.907   5.089  1.00  0.00     0.253 C 
HETATM   24  O   UNL     1      43.163 -16.386   5.903  1.00  0.00    -0.268 OA
HETATM   25  H   UNL     1      40.464 -16.917   4.331  1.00  0.00     0.163 HD
BRANCH  23  26
HETATM   26  C   UNL     1      42.920 -17.890   4.080  1.00  0.00     0.053 A 
HETATM   27  C   UNL     1      43.941 -18.834   4.275  1.00  0.00     0.049 A 
HETATM   28 CL   UNL     1      44.833 -19.027   5.745  1.00  0.00    -0.083 Cl
HETATM   29  C   UNL     1      44.303 -19.707   3.236  1.00  0.00     0.025 A 
HETATM   30  C   UNL     1      43.662 -19.655   2.001  1.00  0.00     0.002 A 
HETATM   31  C   UNL     1      42.659 -18.718   1.787  1.00  0.00     0.001 A 
HETATM   32  C   UNL     1      42.300 -17.841   2.813  1.00  0.00     0.019 A 
ENDBRANCH  23  26
ENDBRANCH  21  22
ENDBRANCH  18  21
ENDBRANCH   1  17
TORSDOF 8
ENDMDL
MODEL 10
REMARK VINA RESULT:      -8.1      4.862      8.698
REMARK  8 active torsions:
REMARK  status: ('A' for Active; 'I' for Inactive)
REMARK    1  A    between atoms: C_2  and  C_3 
REMARK    2  A    between atoms: C_4  and  O_5 
REMARK    3  A    between atoms: N_10  and  N_11 
REMARK       I    between atoms: N_11  and  C_12 
REMARK    4  A    between atoms: C_12  and  C_13 
REMARK    5  A    between atoms: C_13  and  N_14 
REMARK       I    between atoms: N_14  and  C_15 
REMARK    6  A    between atoms: C_15  and  C_16 
REMARK    7  A    between atoms: C_16  and  N_17 
REMARK       I    between atoms: N_17  and  C_18 
REMARK    8  A    between atoms: C_18  and  C_19 
ROOT
HETATM    1  C   UNL     1      39.513 -13.776   5.029  1.00  0.00     0.227 C 
ENDROOT
BRANCH   1   2
HETATM    2  C   UNL     1      39.976 -13.556   3.588  1.00  0.00     0.255 C 
HETATM    3  N   UNL     1      39.728 -14.617   2.733  1.00  0.00    -0.246 N 
HETATM    4  H   UNL     1      39.141 -15.387   3.045  1.00  0.00     0.192 HD
HETATM    5  O   UNL     1      40.621 -12.554   3.275  1.00  0.00    -0.270 OA
BRANCH   3   6
HETATM    6  N   UNL     1      40.156 -14.536   1.443  1.00  0.00    -0.176 NA
HETATM    7  C   UNL     1      39.308 -14.253   0.497  1.00  0.00     0.064 C 
HETATM    8  C   UNL     1      37.828 -14.066   0.728  1.00  0.00     0.073 C 
BRANCH   7   9
HETATM    9  C   UNL     1      39.837 -14.126  -0.897  1.00  0.00     0.023 A 
HETATM   10  C   UNL     1      40.638 -15.137  -1.450  1.00  0.00     0.077 A 
HETATM   11  C   UNL     1      41.104 -15.036  -2.761  1.00  0.00     0.037 A 
HETATM   12  C   UNL     1      40.795 -13.914  -3.528  1.00  0.00     0.003 A 
HETATM   13  C   UNL     1      40.026 -12.889  -2.981  1.00  0.00     0.001 A 
HETATM   14  C   UNL     1      39.550 -12.991  -1.670  1.00  0.00     0.016 A 
BRANCH  10  15
HETATM   15  O   UNL     1      41.007 -16.265  -0.769  1.00  0.00    -0.360 OA
HETATM   16  H   UNL     1      40.191 -16.698  -0.425  1.00  0.00     0.217 HD
ENDBRANCH  10  15
ENDBRANCH   7   9
ENDBRANCH   3   6
ENDBRANCH   1   2
BRANCH   1  17
HETATM   17  N   UNL     1      39.850 -15.051   5.643  1.00  0.00    -0.351 N 
HETATM   18  C   UNL     1      41.150 -15.388   5.954  1.00  0.00     0.235 C 
HETATM   19  O   UNL     1      42.084 -14.593   5.906  1.00  0.00    -0.272 OA
HETATM   20  H   UNL     1      39.107 -15.686   5.928  1.00  0.00     0.163 HD
BRANCH  18  21
HETATM   21  C   UNL     1      41.319 -16.829   6.434  1.00  0.00     0.225 C 
BRANCH  21  22
HETATM   22  N   UNL     1      41.773 -17.695   5.368  1.00  0.00    -0.348 N 
HETATM   23  C   UNL     1      43.105 -17.935   5.151  1.00  0.00     0.253 C 
HETATM   24  O   UNL     1      43.965 -17.316   5.779  1.00  0.00    -0.268 OA
HETATM   25  H   UNL     1      41.070 -18.108   4.766  1.00  0.00     0.163 HD
BRANCH  23  26
HETATM   26  C   UNL     1      43.501 -18.951   4.119  1.00  0.00     0.053 A 
HETATM   27  C   UNL     1      43.076 -19.001   2.781  1.00  0.00     0.049 A 
HETATM   28 CL   UNL     1      41.966 -17.886   2.061  1.00  0.00    -0.083 Cl
HETATM   29  C   UNL     1      43.556 -20.005   1.924  1.00  0.00     0.025 A 
HETATM   30  C   UNL     1      44.457 -20.965   2.381  1.00  0.00     0.002 A 
HETATM   31  C   UNL     1      44.876 -20.938   3.705  1.00  0.00     0.001 A 
HETATM   32  C   UNL     1      44.396 -19.948   4.564  1.00  0.00     0.019 A 
ENDBRANCH  23  26
ENDBRANCH  21  22
ENDBRANCH  18  21
ENDBRANCH   1  17
TORSDOF 8
ENDMDL
