MODEL 1
REMARK VINA RESULT:      -8.9      0.000      0.000
REMARK  3 active torsions:
REMARK  status: ('A' for Active; 'I' for Inactive)
REMARK    1  A    between atoms: C_5  and  C_6 
REMARK    2  A    between atoms: C_13  and  O_14 
REMARK    3  A    between atoms: C_26  and  O_27 
ROOT
HETATM    1  C   UNL     1      40.123 -11.808   6.052  1.00  0.00     0.021 C 
HETATM    2  C   UNL     1      40.845 -12.910   5.271  1.00  0.00     0.033 C 
HETATM    3  C   UNL     1      40.053 -14.228   5.331  1.00  0.00     0.289 C 
HETATM    4  N   UNL     1      40.777 -15.294   4.618  1.00  0.00     0.126 N 
HETATM    5  C   UNL     1      42.063 -15.563   5.265  1.00  0.00     0.458 C 
HETATM    6  N   UNL     1      42.889 -14.303   5.132  1.00  0.00    -0.033 N 
HETATM    7  H   UNL     1      43.794 -14.462   5.584  1.00  0.00     0.282 HD
HETATM    8  C   UNL     1      42.227 -13.168   5.888  1.00  0.00     0.251 C 
HETATM    9  C   UNL     1      40.920 -14.952   3.196  1.00  0.00     0.289 C 
HETATM   10  C   UNL     1      41.741 -13.663   3.032  1.00  0.00     0.033 C 
HETATM   11  C   UNL     1      41.921 -13.330   1.548  1.00  0.00     0.021 C 
HETATM   12  C   UNL     1      43.105 -13.901   3.687  1.00  0.00     0.251 C 
HETATM   13  C   UNL     1      41.019 -12.522   3.783  1.00  0.00     0.141 C 
ENDROOT
BRANCH   5  14
HETATM   14  C   UNL     1      42.734 -16.862   4.844  1.00  0.00     0.044 A 
HETATM   15  C   UNL     1      43.683 -17.494   5.645  1.00  0.00     0.137 A 
HETATM   16 CL   UNL     1      44.293 -16.835   7.115  1.00  0.00    -0.062 Cl
HETATM   17  N   UNL     1      44.294 -18.657   5.342  1.00  0.00    -0.233 NA
HETATM   18  C   UNL     1      44.040 -19.264   4.164  1.00  0.00     0.102 A 
HETATM   19  C   UNL     1      43.165 -18.667   3.237  1.00  0.00    -0.004 A 
HETATM   20  C   UNL     1      44.631 -20.493   3.821  1.00  0.00     0.097 A 
HETATM   21  C   UNL     1      42.527 -17.465   3.592  1.00  0.00     0.028 A 
HETATM   22  C   UNL     1      42.934 -19.268   1.988  1.00  0.00     0.014 A 
HETATM   23  C   UNL     1      43.558 -20.466   1.655  1.00  0.00     0.004 A 
HETATM   24  C   UNL     1      44.402 -21.082   2.571  1.00  0.00     0.039 A 
BRANCH  20  25
HETATM   25  O   UNL     1      45.463 -21.048   4.769  1.00  0.00    -0.354 OA
HETATM   26  C   UNL     1      45.066 -22.302   5.308  1.00  0.00     0.210 C 
ENDBRANCH  20  25
ENDBRANCH   5  14
BRANCH  13  27
HETATM   27  O   UNL     1      41.792 -11.327   3.696  1.00  0.00    -0.394 OA
HETATM   28  H   UNL     1      41.649 -10.935   2.811  1.00  0.00     0.210 HD
ENDBRANCH  13  27
TORSDOF 3
ENDMDL
MODEL 2
REMARK VINA RESULT:      -8.4      1.934      3.016
REMARK  3 active torsions:
REMARK  status: ('A' for Active; 'I' for Inactive)
REMARK    1  A    between atoms: C_5  and  C_6 
REMARK    2  A    between atoms: C_13  and  O_14 
REMARK    3  A    between atoms: C_26  and  O_27 
ROOT
HETATM    1  C   UNL     1      40.212 -11.902   3.917  1.00  0.00     0.021 C 
HETATM    2  C   UNL     1      41.125 -13.091   4.231  1.00  0.00     0.033 C 
HETATM    3  C   UNL     1      41.913 -13.517   2.980  1.00  0.00     0.289 C 
HETATM    4  N   UNL     1      42.753 -14.690   3.278  1.00  0.00     0.126 N 
HETATM    5  C   UNL     1      41.921 -15.838   3.643  1.00  0.00     0.458 C 
HETATM    6  N   UNL     1      41.208 -15.468   4.925  1.00  0.00    -0.033 N 
HETATM    7  H   UNL     1      40.611 -16.253   5.200  1.00  0.00     0.282 HD
HETATM    8  C   UNL     1      40.282 -14.292   4.681  1.00  0.00     0.251 C 
HETATM    9  C   UNL     1      43.746 -14.359   4.310  1.00  0.00     0.289 C 
HETATM   10  C   UNL     1      43.047 -13.962   5.620  1.00  0.00     0.033 C 
HETATM   11  C   UNL     1      44.084 -13.654   6.705  1.00  0.00     0.021 C 
HETATM   12  C   UNL     1      42.170 -15.141   6.049  1.00  0.00     0.251 C 
HETATM   13  C   UNL     1      42.142 -12.740   5.343  1.00  0.00     0.141 C 
ENDROOT
BRANCH   5  14
HETATM   14  C   UNL     1      42.636 -17.181   3.627  1.00  0.00     0.044 A 
HETATM   15  C   UNL     1      43.012 -17.802   2.438  1.00  0.00     0.137 A 
HETATM   16 CL   UNL     1      42.611 -17.204   0.873  1.00  0.00    -0.062 Cl
HETATM   17  N   UNL     1      43.669 -18.976   2.358  1.00  0.00    -0.233 NA
HETATM   18  C   UNL     1      43.960 -19.663   3.481  1.00  0.00     0.102 A 
HETATM   19  C   UNL     1      43.547 -19.173   4.735  1.00  0.00    -0.004 A 
HETATM   20  C   UNL     1      44.671 -20.875   3.446  1.00  0.00     0.097 A 
HETATM   21  C   UNL     1      42.882 -17.935   4.787  1.00  0.00     0.028 A 
HETATM   22  C   UNL     1      43.802 -19.908   5.905  1.00  0.00     0.014 A 
HETATM   23  C   UNL     1      44.476 -21.123   5.842  1.00  0.00     0.004 A 
HETATM   24  C   UNL     1      44.914 -21.606   4.615  1.00  0.00     0.039 A 
BRANCH  20  25
HETATM   25  O   UNL     1      45.072 -21.304   2.199  1.00  0.00    -0.354 OA
HETATM   26  C   UNL     1      44.180 -22.168   1.506  1.00  0.00     0.210 C 
ENDBRANCH  20  25
ENDBRANCH   5  14
BRANCH  13  27
HETATM   27  O   UNL     1      41.437 -12.387   6.531  1.00  0.00    -0.394 OA
HETATM   28  H   UNL     1      40.588 -11.977   6.271  1.00  0.00     0.210 HD
ENDBRANCH  13  27
TORSDOF 3
ENDMDL
MODEL 3
REMARK VINA RESULT:      -8.2      1.743      2.312
REMARK  3 active torsions:
REMARK  status: ('A' for Active; 'I' for Inactive)
REMARK    1  A    between atoms: C_5  and  C_6 
REMARK    2  A    between atoms: C_13  and  O_14 
REMARK    3  A    between atoms: C_26  and  O_27 
ROOT
HETATM    1  C   UNL     1      40.737 -10.546   2.586  1.00  0.00     0.021 C 
HETATM    2  C   UNL     1      40.899 -12.067   2.667  1.00  0.00     0.033 C 
HETATM    3  C   UNL     1      41.108 -12.514   4.125  1.00  0.00     0.289 C 
HETATM    4  N   UNL     1      41.310 -13.972   4.189  1.00  0.00     0.126 N 
HETATM    5  C   UNL     1      42.526 -14.355   3.469  1.00  0.00     0.458 C 
HETATM    6  N   UNL     1      42.298 -14.004   2.015  1.00  0.00    -0.033 N 
HETATM    7  H   UNL     1      43.139 -14.256   1.488  1.00  0.00     0.282 HD
HETATM    8  C   UNL     1      42.132 -12.504   1.864  1.00  0.00     0.251 C 
HETATM    9  C   UNL     1      40.116 -14.675   3.699  1.00  0.00     0.289 C 
HETATM   10  C   UNL     1      39.851 -14.323   2.226  1.00  0.00     0.033 C 
HETATM   11  C   UNL     1      38.629 -15.086   1.706  1.00  0.00     0.021 C 
HETATM   12  C   UNL     1      41.097 -14.717   1.428  1.00  0.00     0.251 C 
HETATM   13  C   UNL     1      39.650 -12.795   2.116  1.00  0.00     0.141 C 
ENDROOT
BRANCH   5  14
HETATM   14  C   UNL     1      43.027 -15.762   3.758  1.00  0.00     0.044 A 
HETATM   15  C   UNL     1      43.434 -16.152   5.032  1.00  0.00     0.137 A 
HETATM   16 CL   UNL     1      43.539 -15.082   6.377  1.00  0.00    -0.062 Cl
HETATM   17  N   UNL     1      43.863 -17.388   5.357  1.00  0.00    -0.233 NA
HETATM   18  C   UNL     1      43.973 -18.335   4.404  1.00  0.00     0.102 A 
HETATM   19  C   UNL     1      43.674 -18.026   3.063  1.00  0.00    -0.004 A 
HETATM   20  C   UNL     1      44.386 -19.646   4.704  1.00  0.00     0.097 A 
HETATM   21  C   UNL     1      43.209 -16.734   2.759  1.00  0.00     0.028 A 
HETATM   22  C   UNL     1      43.835 -18.993   2.056  1.00  0.00     0.014 A 
HETATM   23  C   UNL     1      44.279 -20.273   2.372  1.00  0.00     0.004 A 
HETATM   24  C   UNL     1      44.551 -20.602   3.695  1.00  0.00     0.039 A 
BRANCH  20  25
HETATM   25  O   UNL     1      44.646 -19.907   6.032  1.00  0.00    -0.354 OA
HETATM   26  C   UNL     1      43.748 -20.787   6.696  1.00  0.00     0.210 C 
ENDBRANCH  20  25
ENDBRANCH   5  14
BRANCH  13  27
HETATM   27  O   UNL     1      39.460 -12.433   0.749  1.00  0.00    -0.394 OA
HETATM   28  H   UNL     1      39.980 -13.050   0.196  1.00  0.00     0.210 HD
ENDBRANCH  13  27
TORSDOF 3
ENDMDL
MODEL 4
REMARK VINA RESULT:      -8.1      2.351      3.863
REMARK  3 active torsions:
REMARK  status: ('A' for Active; 'I' for Inactive)
REMARK    1  A    between atoms: C_5  and  C_6 
REMARK    2  A    between atoms: C_13  and  O_14 
REMARK    3  A    between atoms: C_26  and  O_27 
ROOT
HETATM    1  C   UNL     1      38.577 -13.727  -0.368  1.00  0.00     0.021 C 
HETATM    2  C   UNL     1      39.467 -14.114   0.817  1.00  0.00     0.033 C 
HETATM    3  C   UNL     1      40.695 -14.908   0.338  1.00  0.00     0.289 C 
HETATM    4  N   UNL     1      41.520 -15.318   1.487  1.00  0.00     0.126 N 
HETATM    5  C   UNL     1      40.770 -16.220   2.363  1.00  0.00     0.458 C 
HETATM    6  N   UNL     1      39.609 -15.423   2.915  1.00  0.00    -0.033 N 
HETATM    7  H   UNL     1      39.061 -16.034   3.528  1.00  0.00     0.282 HD
HETATM    8  C   UNL     1      38.683 -15.008   1.788  1.00  0.00     0.251 C 
HETATM    9  C   UNL     1      42.032 -14.136   2.195  1.00  0.00     0.289 C 
HETATM   10  C   UNL     1      40.870 -13.297   2.752  1.00  0.00     0.033 C 
HETATM   11  C   UNL     1      41.407 -12.087   3.522  1.00  0.00     0.021 C 
HETATM   12  C   UNL     1      40.059 -14.200   3.687  1.00  0.00     0.251 C 
HETATM   13  C   UNL     1      39.970 -12.862   1.574  1.00  0.00     0.141 C 
ENDROOT
BRANCH   5  14
HETATM   14  C   UNL     1      41.613 -16.980   3.376  1.00  0.00     0.044 A 
HETATM   15  C   UNL     1      42.405 -18.067   3.008  1.00  0.00     0.137 A 
HETATM   16 CL   UNL     1      42.429 -18.746   1.426  1.00  0.00    -0.062 Cl
HETATM   17  N   UNL     1      43.192 -18.764   3.850  1.00  0.00    -0.233 NA
HETATM   18  C   UNL     1      43.209 -18.460   5.164  1.00  0.00     0.102 A 
HETATM   19  C   UNL     1      42.380 -17.438   5.663  1.00  0.00    -0.004 A 
HETATM   20  C   UNL     1      44.039 -19.141   6.072  1.00  0.00     0.097 A 
HETATM   21  C   UNL     1      41.585 -16.714   4.755  1.00  0.00     0.028 A 
HETATM   22  C   UNL     1      42.354 -17.149   7.038  1.00  0.00     0.014 A 
HETATM   23  C   UNL     1      43.157 -17.860   7.923  1.00  0.00     0.004 A 
HETATM   24  C   UNL     1      44.003 -18.853   7.442  1.00  0.00     0.039 A 
BRANCH  20  25
HETATM   25  O   UNL     1      44.848 -20.118   5.535  1.00  0.00    -0.354 OA
HETATM   26  C   UNL     1      44.477 -21.466   5.795  1.00  0.00     0.210 C 
ENDBRANCH  20  25
ENDBRANCH   5  14
BRANCH  13  27
HETATM   27  O   UNL     1      38.851 -12.131   2.070  1.00  0.00    -0.394 OA
HETATM   28  H   UNL     1      39.175 -11.275   2.416  1.00  0.00     0.210 HD
ENDBRANCH  13  27
TORSDOF 3
ENDMDL
MODEL 5
REMARK VINA RESULT:      -7.9      2.171      2.822
REMARK  3 active torsions:
REMARK  status: ('A' for Active; 'I' for Inactive)
REMARK    1  A    between atoms: C_5  and  C_6 
REMARK    2  A    between atoms: C_13  and  O_14 
REMARK    3  A    between atoms: C_26  and  O_27 
ROOT
HETATM    1  C   UNL     1      37.716 -12.014   1.470  1.00  0.00     0.021 C 
HETATM    2  C   UNL     1      38.925 -12.951   1.544  1.00  0.00     0.033 C 
HETATM    3  C   UNL     1      38.477 -14.422   1.496  1.00  0.00     0.289 C 
HETATM    4  N   UNL     1      39.642 -15.316   1.616  1.00  0.00     0.126 N 
HETATM    5  C   UNL     1      40.299 -15.134   2.911  1.00  0.00     0.458 C 
HETATM    6  N   UNL     1      40.826 -13.716   2.935  1.00  0.00    -0.033 N 
HETATM    7  H   UNL     1      41.287 -13.559   3.836  1.00  0.00     0.282 HD
HETATM    8  C   UNL     1      39.674 -12.734   2.866  1.00  0.00     0.251 C 
HETATM    9  C   UNL     1      40.557 -15.117   0.483  1.00  0.00     0.289 C 
HETATM   10  C   UNL     1      41.095 -13.677   0.473  1.00  0.00     0.033 C 
HETATM   11  C   UNL     1      42.078 -13.483  -0.686  1.00  0.00     0.021 C 
HETATM   12  C   UNL     1      41.804 -13.442   1.810  1.00  0.00     0.251 C 
HETATM   13  C   UNL     1      39.897 -12.707   0.365  1.00  0.00     0.141 C 
ENDROOT
BRANCH   5  14
HETATM   14  C   UNL     1      41.282 -16.230   3.292  1.00  0.00     0.044 A 
HETATM   15  C   UNL     1      41.855 -16.298   4.561  1.00  0.00     0.137 A 
HETATM   16 CL   UNL     1      41.625 -15.107   5.784  1.00  0.00    -0.062 Cl
HETATM   17  N   UNL     1      42.711 -17.256   4.968  1.00  0.00    -0.233 NA
HETATM   18  C   UNL     1      43.114 -18.211   4.104  1.00  0.00     0.102 A 
HETATM   19  C   UNL     1      42.668 -18.188   2.769  1.00  0.00    -0.004 A 
HETATM   20  C   UNL     1      43.980 -19.247   4.495  1.00  0.00     0.097 A 
HETATM   21  C   UNL     1      41.759 -17.188   2.381  1.00  0.00     0.028 A 
HETATM   22  C   UNL     1      43.123 -19.150   1.850  1.00  0.00     0.014 A 
HETATM   23  C   UNL     1      44.009 -20.145   2.251  1.00  0.00     0.004 A 
HETATM   24  C   UNL     1      44.435 -20.197   3.572  1.00  0.00     0.039 A 
BRANCH  20  25
HETATM   25  O   UNL     1      44.372 -19.240   5.816  1.00  0.00    -0.354 OA
HETATM   26  C   UNL     1      43.818 -20.250   6.650  1.00  0.00     0.210 C 
ENDBRANCH  20  25
ENDBRANCH   5  14
BRANCH  13  27
HETATM   27  O   UNL     1      40.365 -11.360   0.412  1.00  0.00    -0.394 OA
HETATM   28  H   UNL     1      40.962 -11.272   1.182  1.00  0.00     0.210 HD
ENDBRANCH  13  27
TORSDOF 3
ENDMDL
MODEL 6
REMARK VINA RESULT:      -7.9      2.718      7.263
REMARK  3 active torsions:
REMARK  status: ('A' for Active; 'I' for Inactive)
REMARK    1  A    between atoms: C_5  and  C_6 
REMARK    2  A    between atoms: C_13  and  O_14 
REMARK    3  A    between atoms: C_26  and  O_27 
ROOT
HETATM    1  C   UNL     1      43.996 -18.749   6.153  1.00  0.00     0.021 C 
HETATM    2  C   UNL     1      43.319 -17.837   5.125  1.00  0.00     0.033 C 
HETATM    3  C   UNL     1      43.498 -16.358   5.508  1.00  0.00     0.289 C 
HETATM    4  N   UNL     1      42.804 -15.490   4.541  1.00  0.00     0.126 N 
HETATM    5  C   UNL     1      41.363 -15.744   4.565  1.00  0.00     0.458 C 
HETATM    6  N   UNL     1      41.164 -17.170   4.100  1.00  0.00    -0.033 N 
HETATM    7  H   UNL     1      40.162 -17.377   4.114  1.00  0.00     0.282 HD
HETATM    8  C   UNL     1      41.813 -18.128   5.081  1.00  0.00     0.251 C 
HETATM    9  C   UNL     1      43.385 -15.652   3.201  1.00  0.00     0.289 C 
HETATM   10  C   UNL     1      43.214 -17.099   2.711  1.00  0.00     0.033 C 
HETATM   11  C   UNL     1      43.786 -17.255   1.299  1.00  0.00     0.021 C 
HETATM   12  C   UNL     1      41.714 -17.408   2.709  1.00  0.00     0.251 C 
HETATM   13  C   UNL     1      43.917 -18.043   3.712  1.00  0.00     0.141 C 
ENDROOT
BRANCH   5  14
HETATM   14  C   UNL     1      40.512 -14.683   3.881  1.00  0.00     0.044 A 
HETATM   15  C   UNL     1      40.416 -13.384   4.377  1.00  0.00     0.137 A 
HETATM   16 CL   UNL     1      41.128 -12.865   5.857  1.00  0.00    -0.062 Cl
HETATM   17  N   UNL     1      39.702 -12.394   3.805  1.00  0.00    -0.233 NA
HETATM   18  C   UNL     1      38.968 -12.644   2.701  1.00  0.00     0.102 A 
HETATM   19  C   UNL     1      38.919 -13.945   2.165  1.00  0.00    -0.004 A 
HETATM   20  C   UNL     1      38.234 -11.634   2.054  1.00  0.00     0.097 A 
HETATM   21  C   UNL     1      39.693 -14.951   2.772  1.00  0.00     0.028 A 
HETATM   22  C   UNL     1      38.118 -14.224   1.046  1.00  0.00     0.014 A 
HETATM   23  C   UNL     1      37.371 -13.216   0.443  1.00  0.00     0.004 A 
HETATM   24  C   UNL     1      37.431 -11.921   0.943  1.00  0.00     0.039 A 
BRANCH  20  25
HETATM   25  O   UNL     1      38.330 -10.373   2.603  1.00  0.00    -0.354 OA
HETATM   26  C   UNL     1      37.108  -9.680   2.820  1.00  0.00     0.210 C 
ENDBRANCH  20  25
ENDBRANCH   5  14
BRANCH  13  27
HETATM   27  O   UNL     1      43.722 -19.397   3.312  1.00  0.00    -0.394 OA
HETATM   28  H   UNL     1      42.773 -19.522   3.108  1.00  0.00     0.210 HD
ENDBRANCH  13  27
TORSDOF 3
ENDMDL
MODEL 7
REMARK VINA RESULT:      -7.5      3.336      6.201
REMARK  3 active torsions:
REMARK  status: ('A' for Active; 'I' for Inactive)
REMARK    1  A    between atoms: C_5  and  C_6 
REMARK    2  A    between atoms: C_13  and  O_14 
REMARK    3  A    between atoms: C_26  and  O_27 
ROOT
HETATM    1  C   UNL     1      43.197 -18.140   7.446  1.00  0.00     0.021 C 
HETATM    2  C   UNL     1      42.830 -17.184   6.306  1.00  0.00     0.033 C 
HETATM    3  C   UNL     1      41.369 -17.394   5.870  1.00  0.00     0.289 C 
HETATM    4  N   UNL     1      41.038 -16.504   4.743  1.00  0.00     0.126 N 
HETATM    5  C   UNL     1      41.861 -16.827   3.576  1.00  0.00     0.458 C 
HETATM    6  N   UNL     1      43.295 -16.538   3.960  1.00  0.00    -0.033 N 
HETATM    7  H   UNL     1      43.894 -16.763   3.161  1.00  0.00     0.282 HD
HETATM    8  C   UNL     1      43.723 -17.457   5.088  1.00  0.00     0.251 C 
HETATM    9  C   UNL     1      41.160 -15.097   5.150  1.00  0.00     0.289 C 
HETATM   10  C   UNL     1      42.606 -14.780   5.564  1.00  0.00     0.033 C 
HETATM   11  C   UNL     1      42.739 -13.304   5.950  1.00  0.00     0.021 C 
HETATM   12  C   UNL     1      43.506 -15.093   4.365  1.00  0.00     0.251 C 
HETATM   13  C   UNL     1      42.996 -15.707   6.737  1.00  0.00     0.141 C 
ENDROOT
BRANCH   5  14
HETATM   14  C   UNL     1      41.376 -16.229   2.264  1.00  0.00     0.044 A 
HETATM   15  C   UNL     1      42.074 -16.407   1.070  1.00  0.00     0.137 A 
HETATM   16 CL   UNL     1      43.599 -17.200   0.958  1.00  0.00    -0.062 Cl
HETATM   17  N   UNL     1      41.685 -15.926  -0.127  1.00  0.00    -0.233 NA
HETATM   18  C   UNL     1      40.574 -15.166  -0.219  1.00  0.00     0.102 A 
HETATM   19  C   UNL     1      39.841 -14.845   0.939  1.00  0.00    -0.004 A 
HETATM   20  C   UNL     1      40.115 -14.669  -1.452  1.00  0.00     0.097 A 
HETATM   21  C   UNL     1      40.260 -15.381   2.170  1.00  0.00     0.028 A 
HETATM   22  C   UNL     1      38.712 -14.012   0.859  1.00  0.00     0.014 A 
HETATM   23  C   UNL     1      38.296 -13.503  -0.368  1.00  0.00     0.004 A 
HETATM   24  C   UNL     1      38.994 -13.834  -1.523  1.00  0.00     0.039 A 
BRANCH  20  25
HETATM   25  O   UNL     1      40.854 -15.027  -2.559  1.00  0.00    -0.354 OA
HETATM   26  C   UNL     1      41.197 -13.981  -3.459  1.00  0.00     0.210 C 
ENDBRANCH  20  25
ENDBRANCH   5  14
BRANCH  13  27
HETATM   27  O   UNL     1      44.354 -15.473   7.102  1.00  0.00    -0.394 OA
HETATM   28  H   UNL     1      44.845 -15.210   6.298  1.00  0.00     0.210 HD
ENDBRANCH  13  27
TORSDOF 3
ENDMDL
MODEL 8
REMARK VINA RESULT:      -7.5      3.697      6.262
REMARK  3 active torsions:
REMARK  status: ('A' for Active; 'I' for Inactive)
REMARK    1  A    between atoms: C_5  and  C_6 
REMARK    2  A    between atoms: C_13  and  O_14 
REMARK    3  A    between atoms: C_26  and  O_27 
ROOT
HETATM    1  C   UNL     1      43.779 -14.937   6.660  1.00  0.00     0.021 C 
HETATM    2  C   UNL     1      42.940 -14.635   5.415  1.00  0.00     0.033 C 
HETATM    3  C   UNL     1      42.499 -15.939   4.727  1.00  0.00     0.289 C 
HETATM    4  N   UNL     1      41.733 -15.640   3.504  1.00  0.00     0.126 N 
HETATM    5  C   UNL     1      42.571 -14.932   2.534  1.00  0.00     0.458 C 
HETATM    6  N   UNL     1      42.937 -13.605   3.162  1.00  0.00    -0.033 N 
HETATM    7  H   UNL     1      43.531 -13.091   2.505  1.00  0.00     0.282 HD
HETATM    8  C   UNL     1      43.774 -13.834   4.405  1.00  0.00     0.251 C 
HETATM    9  C   UNL     1      40.507 -14.902   3.838  1.00  0.00     0.289 C 
HETATM   10  C   UNL     1      40.850 -13.555   4.495  1.00  0.00     0.033 C 
HETATM   11  C   UNL     1      39.571 -12.773   4.806  1.00  0.00     0.021 C 
HETATM   12  C   UNL     1      41.720 -12.772   3.508  1.00  0.00     0.251 C 
HETATM   13  C   UNL     1      41.670 -13.829   5.776  1.00  0.00     0.141 C 
ENDROOT
BRANCH   5  14
HETATM   14  C   UNL     1      42.012 -14.882   1.120  1.00  0.00     0.044 A 
HETATM   15  C   UNL     1      41.751 -16.040   0.390  1.00  0.00     0.137 A 
HETATM   16 CL   UNL     1      42.136 -17.628   0.935  1.00  0.00    -0.062 Cl
HETATM   17  N   UNL     1      41.234 -16.064  -0.855  1.00  0.00    -0.233 NA
HETATM   18  C   UNL     1      40.983 -14.908  -1.503  1.00  0.00     0.102 A 
HETATM   19  C   UNL     1      41.294 -13.677  -0.895  1.00  0.00    -0.004 A 
HETATM   20  C   UNL     1      40.415 -14.887  -2.788  1.00  0.00     0.097 A 
HETATM   21  C   UNL     1      41.812 -13.685   0.413  1.00  0.00     0.028 A 
HETATM   22  C   UNL     1      41.083 -12.470  -1.583  1.00  0.00     0.014 A 
HETATM   23  C   UNL     1      40.552 -12.475  -2.869  1.00  0.00     0.004 A 
HETATM   24  C   UNL     1      40.214 -13.681  -3.471  1.00  0.00     0.039 A 
BRANCH  20  25
HETATM   25  O   UNL     1      40.109 -16.115  -3.333  1.00  0.00    -0.354 OA
HETATM   26  C   UNL     1      38.965 -16.169  -4.176  1.00  0.00     0.210 C 
ENDBRANCH  20  25
ENDBRANCH   5  14
BRANCH  13  27
HETATM   27  O   UNL     1      42.052 -12.592   6.373  1.00  0.00    -0.394 OA
HETATM   28  H   UNL     1      42.967 -12.684   6.707  1.00  0.00     0.210 HD
ENDBRANCH  13  27
TORSDOF 3
ENDMDL
MODEL 9
REMARK VINA RESULT:      -7.5      2.429      3.530
REMARK  3 active torsions:
REMARK  status: ('A' for Active; 'I' for Inactive)
REMARK    1  A    between atoms: C_5  and  C_6 
REMARK    2  A    between atoms: C_13  and  O_14 
REMARK    3  A    between atoms: C_26  and  O_27 
ROOT
HETATM    1  C   UNL     1      40.001 -10.576   1.854  1.00  0.00     0.021 C 
HETATM    2  C   UNL     1      40.417 -11.916   2.468  1.00  0.00     0.033 C 
HETATM    3  C   UNL     1      41.941 -12.104   2.381  1.00  0.00     0.289 C 
HETATM    4  N   UNL     1      42.328 -13.416   2.931  1.00  0.00     0.126 N 
HETATM    5  C   UNL     1      41.740 -14.498   2.140  1.00  0.00     0.458 C 
HETATM    6  N   UNL     1      40.239 -14.381   2.291  1.00  0.00    -0.033 N 
HETATM    7  H   UNL     1      39.801 -15.125   1.741  1.00  0.00     0.282 HD
HETATM    8  C   UNL     1      39.760 -13.070   1.698  1.00  0.00     0.251 C 
HETATM    9  C   UNL     1      41.974 -13.497   4.355  1.00  0.00     0.289 C 
HETATM   10  C   UNL     1      40.453 -13.362   4.539  1.00  0.00     0.033 C 
HETATM   11  C   UNL     1      40.083 -13.486   6.020  1.00  0.00     0.021 C 
HETATM   12  C   UNL     1      39.792 -14.486   3.735  1.00  0.00     0.251 C 
HETATM   13  C   UNL     1      40.007 -12.002   3.958  1.00  0.00     0.141 C 
ENDROOT
BRANCH   5  14
HETATM   14  C   UNL     1      42.341 -15.874   2.387  1.00  0.00     0.044 A 
HETATM   15  C   UNL     1      42.252 -16.896   1.445  1.00  0.00     0.137 A 
HETATM   16 CL   UNL     1      41.364 -16.774  -0.026  1.00  0.00    -0.062 Cl
HETATM   17  N   UNL     1      42.785 -18.126   1.592  1.00  0.00    -0.233 NA
HETATM   18  C   UNL     1      43.413 -18.455   2.739  1.00  0.00     0.102 A 
HETATM   19  C   UNL     1      43.484 -17.528   3.796  1.00  0.00    -0.004 A 
HETATM   20  C   UNL     1      44.010 -19.715   2.922  1.00  0.00     0.097 A 
HETATM   21  C   UNL     1      42.937 -16.246   3.604  1.00  0.00     0.028 A 
HETATM   22  C   UNL     1      44.092 -17.880   5.012  1.00  0.00     0.014 A 
HETATM   23  C   UNL     1      44.645 -19.145   5.184  1.00  0.00     0.004 A 
HETATM   24  C   UNL     1      44.608 -20.062   4.140  1.00  0.00     0.039 A 
BRANCH  20  25
HETATM   25  O   UNL     1      43.934 -20.580   1.852  1.00  0.00    -0.354 OA
HETATM   26  C   UNL     1      44.267 -21.939   2.109  1.00  0.00     0.210 C 
ENDBRANCH  20  25
ENDBRANCH   5  14
BRANCH  13  27
HETATM   27  O   UNL     1      38.590 -11.878   4.064  1.00  0.00    -0.394 OA
HETATM   28  H   UNL     1      38.203 -12.035   3.179  1.00  0.00     0.210 HD
ENDBRANCH  13  27
TORSDOF 3
ENDMDL
MODEL 10
REMARK VINA RESULT:      -7.4      3.422      6.862
REMARK  3 active torsions:
REMARK  status: ('A' for Active; 'I' for Inactive)
REMARK    1  A    between atoms: C_5  and  C_6 
REMARK    2  A    between atoms: C_13  and  O_14 
REMARK    3  A    between atoms: C_26  and  O_27 
ROOT
HETATM    1  C   UNL     1      42.529 -16.573   6.888  1.00  0.00     0.021 C 
HETATM    2  C   UNL     1      42.518 -16.480   5.359  1.00  0.00     0.033 C 
HETATM    3  C   UNL     1      43.199 -15.183   4.889  1.00  0.00     0.289 C 
HETATM    4  N   UNL     1      43.143 -15.077   3.421  1.00  0.00     0.126 N 
HETATM    5  C   UNL     1      41.754 -14.996   2.964  1.00  0.00     0.458 C 
HETATM    6  N   UNL     1      41.095 -16.305   3.339  1.00  0.00    -0.033 N 
HETATM    7  H   UNL     1      40.118 -16.272   3.037  1.00  0.00     0.282 HD
HETATM    8  C   UNL     1      41.072 -16.460   4.848  1.00  0.00     0.251 C 
HETATM    9  C   UNL     1      43.878 -16.189   2.800  1.00  0.00     0.289 C 
HETATM   10  C   UNL     1      43.240 -17.535   3.180  1.00  0.00     0.033 C 
HETATM   11  C   UNL     1      43.985 -18.688   2.502  1.00  0.00     0.021 C 
HETATM   12  C   UNL     1      41.782 -17.500   2.711  1.00  0.00     0.251 C 
HETATM   13  C   UNL     1      43.266 -17.674   4.719  1.00  0.00     0.141 C 
ENDROOT
BRANCH   5  14
HETATM   14  C   UNL     1      41.577 -14.535   1.526  1.00  0.00     0.044 A 
HETATM   15  C   UNL     1      41.552 -13.184   1.182  1.00  0.00     0.137 A 
HETATM   16 CL   UNL     1      41.590 -11.900   2.329  1.00  0.00    -0.062 Cl
HETATM   17  N   UNL     1      41.424 -12.712  -0.074  1.00  0.00    -0.233 NA
HETATM   18  C   UNL     1      41.252 -13.569  -1.101  1.00  0.00     0.102 A 
HETATM   19  C   UNL     1      41.171 -14.954  -0.859  1.00  0.00    -0.004 A 
HETATM   20  C   UNL     1      41.147 -13.122  -2.430  1.00  0.00     0.097 A 
HETATM   21  C   UNL     1      41.329 -15.416   0.460  1.00  0.00     0.028 A 
HETATM   22  C   UNL     1      40.941 -15.849  -1.918  1.00  0.00     0.014 A 
HETATM   23  C   UNL     1      40.804 -15.381  -3.220  1.00  0.00     0.004 A 
HETATM   24  C   UNL     1      40.910 -14.020  -3.479  1.00  0.00     0.039 A 
BRANCH  20  25
HETATM   25  O   UNL     1      41.253 -11.762  -2.619  1.00  0.00    -0.354 OA
HETATM   26  C   UNL     1      42.297 -11.319  -3.477  1.00  0.00     0.210 C 
ENDBRANCH  20  25
ENDBRANCH   5  14
BRANCH  13  27
HETATM   27  O   UNL     1      42.626 -18.889   5.101  1.00  0.00    -0.394 OA
HETATM   28  H   UNL     1      42.359 -19.362   4.287  1.00  0.00     0.210 HD
ENDBRANCH  13  27
TORSDOF 3
ENDMDL
