MODEL 1
REMARK VINA RESULT:      -8.1      0.000      0.000
REMARK  8 active torsions:
REMARK  status: ('A' for Active; 'I' for Inactive)
REMARK    1  A    between atoms: C_2  and  C_3 
REMARK    2  A    between atoms: C_3  and  N_4 
REMARK       I    between atoms: N_4  and  C_5 
REMARK    3  A    between atoms: N_4  and  C_20 
REMARK    4  A    between atoms: C_5  and  C_6 
REMARK    5  A    between atoms: C_10  and  C_11 
REMARK    6  A    between atoms: C_12  and  O_13 
REMARK    7  A    between atoms: C_20  and  C_21 
REMARK    8  A    between atoms: C_21  and  C_22 
ROOT
HETATM    1  C   UNL     1      42.241 -17.025   1.095  1.00  0.00     0.120 A 
HETATM    2  N   UNL     1      43.586 -16.783   1.037  1.00  0.00    -0.272 N 
HETATM    3  H   UNL     1      44.031 -15.961   0.637  1.00  0.00     0.189 HD
HETATM    4  N   UNL     1      44.353 -17.750   1.566  1.00  0.00    -0.174 NA
HETATM    5  C   UNL     1      43.476 -18.650   2.043  1.00  0.00     0.092 A 
HETATM    6  C   UNL     1      42.144 -18.209   1.800  1.00  0.00     0.071 A 
ENDROOT
BRANCH   1   7
HETATM    7  C   UNL     1      41.309 -16.059   0.560  1.00  0.00     0.271 C 
HETATM    8  N   UNL     1      40.545 -15.241   1.412  1.00  0.00    -0.346 N 
HETATM    9  O   UNL     1      41.191 -15.974  -0.663  1.00  0.00    -0.266 OA
BRANCH   8  10
HETATM   10  C   UNL     1      39.908 -14.066   0.803  1.00  0.00     0.126 C 
BRANCH  10  11
HETATM   11  C   UNL     1      38.610 -13.653   1.503  1.00  0.00     0.015 C 
HETATM   12  C   UNL     1      37.365 -14.096   0.751  1.00  0.00     0.006 C 
ENDBRANCH  10  11
ENDBRANCH   8  10
BRANCH   8  13
HETATM   13  C   UNL     1      40.479 -15.406   2.875  1.00  0.00     0.130 C 
BRANCH  13  14
HETATM   14  C   UNL     1      41.588 -14.709   3.686  1.00  0.00     0.058 C 
BRANCH  14  15
HETATM   15  C   UNL     1      42.069 -15.458   4.913  1.00  0.00    -0.057 A 
HETATM   16  C   UNL     1      43.260 -15.043   5.532  1.00  0.00     0.007 A 
HETATM   17  C   UNL     1      43.727 -15.674   6.687  1.00  0.00     0.001 A 
HETATM   18  C   UNL     1      43.006 -16.724   7.246  1.00  0.00     0.000 A 
HETATM   19  C   UNL     1      41.813 -17.136   6.657  1.00  0.00     0.001 A 
HETATM   20  C   UNL     1      41.342 -16.501   5.503  1.00  0.00     0.007 A 
ENDBRANCH  14  15
ENDBRANCH  13  14
ENDBRANCH   8  13
ENDBRANCH   1   7
BRANCH   5  21
HETATM   21  C   UNL     1      43.935 -19.872   2.723  1.00  0.00     0.028 A 
HETATM   22  C   UNL     1      44.431 -19.845   4.040  1.00  0.00     0.078 A 
HETATM   23  C   UNL     1      44.860 -21.008   4.680  1.00  0.00     0.037 A 
HETATM   24  C   UNL     1      44.811 -22.227   4.009  1.00  0.00     0.003 A 
HETATM   25  C   UNL     1      44.333 -22.279   2.701  1.00  0.00     0.001 A 
HETATM   26  C   UNL     1      43.898 -21.112   2.063  1.00  0.00     0.017 A 
BRANCH  22  27
HETATM   27  O   UNL     1      44.527 -18.689   4.772  1.00  0.00    -0.360 OA
HETATM   28  H   UNL     1      44.867 -18.956   5.658  1.00  0.00     0.217 HD
ENDBRANCH  22  27
ENDBRANCH   5  21
TORSDOF 8
ENDMDL
MODEL 2
REMARK VINA RESULT:      -8.0      1.802      2.224
REMARK  8 active torsions:
REMARK  status: ('A' for Active; 'I' for Inactive)
REMARK    1  A    between atoms: C_2  and  C_3 
REMARK    2  A    between atoms: C_3  and  N_4 
REMARK       I    between atoms: N_4  and  C_5 
REMARK    3  A    between atoms: N_4  and  C_20 
REMARK    4  A    between atoms: C_5  and  C_6 
REMARK    5  A    between atoms: C_10  and  C_11 
REMARK    6  A    between atoms: C_12  and  O_13 
REMARK    7  A    between atoms: C_20  and  C_21 
REMARK    8  A    between atoms: C_21  and  C_22 
ROOT
HETATM    1  C   UNL     1      42.810 -16.701   2.274  1.00  0.00     0.120 A 
HETATM    2  N   UNL     1      43.841 -17.053   1.445  1.00  0.00    -0.272 N 
HETATM    3  H   UNL     1      44.191 -16.510   0.660  1.00  0.00     0.189 HD
HETATM    4  N   UNL     1      44.412 -18.234   1.731  1.00  0.00    -0.174 NA
HETATM    5  C   UNL     1      43.765 -18.662   2.829  1.00  0.00     0.092 A 
HETATM    6  C   UNL     1      42.782 -17.708   3.220  1.00  0.00     0.071 A 
ENDROOT
BRANCH   1   7
HETATM    7  C   UNL     1      42.114 -15.451   2.071  1.00  0.00     0.271 C 
HETATM    8  N   UNL     1      42.622 -14.247   2.592  1.00  0.00    -0.346 N 
HETATM    9  O   UNL     1      41.057 -15.464   1.439  1.00  0.00    -0.266 OA
BRANCH   8  10
HETATM   10  C   UNL     1      42.062 -13.003   2.047  1.00  0.00     0.126 C 
BRANCH  10  11
HETATM   11  C   UNL     1      41.327 -12.163   3.095  1.00  0.00     0.015 C 
HETATM   12  C   UNL     1      40.099 -12.860   3.657  1.00  0.00     0.006 C 
ENDBRANCH  10  11
ENDBRANCH   8  10
BRANCH   8  13
HETATM   13  C   UNL     1      43.768 -14.165   3.516  1.00  0.00     0.130 C 
BRANCH  13  14
HETATM   14  C   UNL     1      43.425 -13.940   5.000  1.00  0.00     0.058 C 
BRANCH  14  15
HETATM   15  C   UNL     1      43.098 -15.190   5.792  1.00  0.00    -0.057 A 
HETATM   16  C   UNL     1      44.140 -15.861   6.454  1.00  0.00     0.007 A 
HETATM   17  C   UNL     1      43.886 -16.995   7.229  1.00  0.00     0.001 A 
HETATM   18  C   UNL     1      42.586 -17.472   7.361  1.00  0.00     0.000 A 
HETATM   19  C   UNL     1      41.538 -16.808   6.727  1.00  0.00     0.001 A 
HETATM   20  C   UNL     1      41.791 -15.669   5.955  1.00  0.00     0.007 A 
ENDBRANCH  14  15
ENDBRANCH  13  14
ENDBRANCH   8  13
ENDBRANCH   1   7
BRANCH   5  21
HETATM   21  C   UNL     1      44.119 -19.939   3.470  1.00  0.00     0.028 A 
HETATM   22  C   UNL     1      44.182 -21.141   2.740  1.00  0.00     0.078 A 
HETATM   23  C   UNL     1      44.523 -22.347   3.352  1.00  0.00     0.037 A 
HETATM   24  C   UNL     1      44.799 -22.378   4.716  1.00  0.00     0.003 A 
HETATM   25  C   UNL     1      44.735 -21.203   5.463  1.00  0.00     0.001 A 
HETATM   26  C   UNL     1      44.398 -19.994   4.845  1.00  0.00     0.017 A 
BRANCH  22  27
HETATM   27  O   UNL     1      43.914 -21.207   1.396  1.00  0.00    -0.360 OA
HETATM   28  H   UNL     1      43.186 -20.563   1.232  1.00  0.00     0.217 HD
ENDBRANCH  22  27
ENDBRANCH   5  21
TORSDOF 8
ENDMDL
MODEL 3
REMARK VINA RESULT:      -7.9      2.205      6.994
REMARK  8 active torsions:
REMARK  status: ('A' for Active; 'I' for Inactive)
REMARK    1  A    between atoms: C_2  and  C_3 
REMARK    2  A    between atoms: C_3  and  N_4 
REMARK       I    between atoms: N_4  and  C_5 
REMARK    3  A    between atoms: N_4  and  C_20 
REMARK    4  A    between atoms: C_5  and  C_6 
REMARK    5  A    between atoms: C_10  and  C_11 
REMARK    6  A    between atoms: C_12  and  O_13 
REMARK    7  A    between atoms: C_20  and  C_21 
REMARK    8  A    between atoms: C_21  and  C_22 
ROOT
HETATM    1  C   UNL     1      41.337 -15.225   3.502  1.00  0.00     0.120 A 
HETATM    2  N   UNL     1      40.063 -15.321   3.014  1.00  0.00    -0.272 N 
HETATM    3  H   UNL     1      39.247 -15.648   3.526  1.00  0.00     0.189 HD
HETATM    4  N   UNL     1      39.922 -14.941   1.734  1.00  0.00    -0.174 NA
HETATM    5  C   UNL     1      41.149 -14.525   1.371  1.00  0.00     0.092 A 
HETATM    6  C   UNL     1      42.050 -14.652   2.466  1.00  0.00     0.071 A 
ENDROOT
BRANCH   1   7
HETATM    7  C   UNL     1      41.618 -15.603   4.868  1.00  0.00     0.271 C 
HETATM    8  N   UNL     1      42.073 -16.896   5.182  1.00  0.00    -0.346 N 
HETATM    9  O   UNL     1      41.440 -14.767   5.755  1.00  0.00    -0.266 OA
BRANCH   8  10
HETATM   10  C   UNL     1      42.667 -17.082   6.513  1.00  0.00     0.126 C 
BRANCH  10  11
HETATM   11  C   UNL     1      44.123 -16.615   6.595  1.00  0.00     0.015 C 
HETATM   12  C   UNL     1      45.109 -17.767   6.711  1.00  0.00     0.006 C 
ENDBRANCH  10  11
ENDBRANCH   8  10
BRANCH   8  13
HETATM   13  C   UNL     1      42.130 -18.009   4.218  1.00  0.00     0.130 C 
BRANCH  13  14
HETATM   14  C   UNL     1      43.470 -18.201   3.484  1.00  0.00     0.058 C 
BRANCH  14  15
HETATM   15  C   UNL     1      43.853 -19.637   3.187  1.00  0.00    -0.057 A 
HETATM   16  C   UNL     1      44.523 -20.375   4.177  1.00  0.00     0.007 A 
HETATM   17  C   UNL     1      44.863 -21.714   3.969  1.00  0.00     0.001 A 
HETATM   18  C   UNL     1      44.531 -22.338   2.771  1.00  0.00     0.000 A 
HETATM   19  C   UNL     1      43.850 -21.627   1.786  1.00  0.00     0.001 A 
HETATM   20  C   UNL     1      43.504 -20.289   1.996  1.00  0.00     0.007 A 
ENDBRANCH  14  15
ENDBRANCH  13  14
ENDBRANCH   8  13
ENDBRANCH   1   7
BRANCH   5  21
HETATM   21  C   UNL     1      41.406 -14.009   0.017  1.00  0.00     0.028 A 
HETATM   22  C   UNL     1      41.115 -14.767  -1.132  1.00  0.00     0.078 A 
HETATM   23  C   UNL     1      41.356 -14.270  -2.413  1.00  0.00     0.037 A 
HETATM   24  C   UNL     1      41.907 -13.001  -2.571  1.00  0.00     0.003 A 
HETATM   25  C   UNL     1      42.213 -12.234  -1.449  1.00  0.00     0.001 A 
HETATM   26  C   UNL     1      41.965 -12.733  -0.165  1.00  0.00     0.017 A 
BRANCH  22  27
HETATM   27  O   UNL     1      40.582 -16.030  -1.072  1.00  0.00    -0.360 OA
HETATM   28  H   UNL     1      39.641 -15.942  -1.351  1.00  0.00     0.217 HD
ENDBRANCH  22  27
ENDBRANCH   5  21
TORSDOF 8
ENDMDL
MODEL 4
REMARK VINA RESULT:      -7.9      2.297      6.972
REMARK  8 active torsions:
REMARK  status: ('A' for Active; 'I' for Inactive)
REMARK    1  A    between atoms: C_2  and  C_3 
REMARK    2  A    between atoms: C_3  and  N_4 
REMARK       I    between atoms: N_4  and  C_5 
REMARK    3  A    between atoms: N_4  and  C_20 
REMARK    4  A    between atoms: C_5  and  C_6 
REMARK    5  A    between atoms: C_10  and  C_11 
REMARK    6  A    between atoms: C_12  and  O_13 
REMARK    7  A    between atoms: C_20  and  C_21 
REMARK    8  A    between atoms: C_21  and  C_22 
ROOT
HETATM    1  C   UNL     1      40.979 -15.079   3.100  1.00  0.00     0.120 A 
HETATM    2  N   UNL     1      39.621 -15.187   2.966  1.00  0.00    -0.272 N 
HETATM    3  H   UNL     1      38.952 -15.306   3.722  1.00  0.00     0.189 HD
HETATM    4  N   UNL     1      39.176 -15.127   1.701  1.00  0.00    -0.174 NA
HETATM    5  C   UNL     1      40.283 -14.920   0.966  1.00  0.00     0.092 A 
HETATM    6  C   UNL     1      41.425 -14.845   1.814  1.00  0.00     0.071 A 
ENDROOT
BRANCH   1   7
HETATM    7  C   UNL     1      41.582 -15.126   4.413  1.00  0.00     0.271 C 
HETATM    8  N   UNL     1      42.211 -16.294   4.879  1.00  0.00    -0.346 N 
HETATM    9  O   UNL     1      41.522 -14.120   5.121  1.00  0.00    -0.266 OA
BRANCH   8  10
HETATM   10  C   UNL     1      43.092 -16.150   6.046  1.00  0.00     0.126 C 
BRANCH  10  11
HETATM   11  C   UNL     1      43.472 -17.488   6.685  1.00  0.00     0.015 C 
HETATM   12  C   UNL     1      44.971 -17.745   6.676  1.00  0.00     0.006 C 
ENDBRANCH  10  11
ENDBRANCH   8  10
BRANCH   8  13
HETATM   13  C   UNL     1      42.161 -17.593   4.184  1.00  0.00     0.130 C 
BRANCH  13  14
HETATM   14  C   UNL     1      43.253 -17.838   3.126  1.00  0.00     0.058 C 
BRANCH  14  15
HETATM   15  C   UNL     1      43.672 -19.283   2.942  1.00  0.00    -0.057 A 
HETATM   16  C   UNL     1      44.399 -19.911   3.967  1.00  0.00     0.007 A 
HETATM   17  C   UNL     1      44.776 -21.251   3.864  1.00  0.00     0.001 A 
HETATM   18  C   UNL     1      44.425 -21.988   2.737  1.00  0.00     0.000 A 
HETATM   19  C   UNL     1      43.688 -21.387   1.720  1.00  0.00     0.001 A 
HETATM   20  C   UNL     1      43.305 -20.046   1.825  1.00  0.00     0.007 A 
ENDBRANCH  14  15
ENDBRANCH  13  14
ENDBRANCH   8  13
ENDBRANCH   1   7
BRANCH   5  21
HETATM   21  C   UNL     1      40.208 -14.782  -0.497  1.00  0.00     0.028 A 
HETATM   22  C   UNL     1      39.250 -13.957  -1.115  1.00  0.00     0.078 A 
HETATM   23  C   UNL     1      39.188 -13.826  -2.502  1.00  0.00     0.037 A 
HETATM   24  C   UNL     1      40.081 -14.531  -3.306  1.00  0.00     0.003 A 
HETATM   25  C   UNL     1      41.034 -15.361  -2.719  1.00  0.00     0.001 A 
HETATM   26  C   UNL     1      41.097 -15.486  -1.326  1.00  0.00     0.017 A 
BRANCH  22  27
HETATM   27  O   UNL     1      38.324 -13.236  -0.405  1.00  0.00    -0.360 OA
HETATM   28  H   UNL     1      37.495 -13.770  -0.419  1.00  0.00     0.217 HD
ENDBRANCH  22  27
ENDBRANCH   5  21
TORSDOF 8
ENDMDL
MODEL 5
REMARK VINA RESULT:      -7.7      2.494      4.165
REMARK  8 active torsions:
REMARK  status: ('A' for Active; 'I' for Inactive)
REMARK    1  A    between atoms: C_2  and  C_3 
REMARK    2  A    between atoms: C_3  and  N_4 
REMARK       I    between atoms: N_4  and  C_5 
REMARK    3  A    between atoms: N_4  and  C_20 
REMARK    4  A    between atoms: C_5  and  C_6 
REMARK    5  A    between atoms: C_10  and  C_11 
REMARK    6  A    between atoms: C_12  and  O_13 
REMARK    7  A    between atoms: C_20  and  C_21 
REMARK    8  A    between atoms: C_21  and  C_22 
ROOT
HETATM    1  C   UNL     1      42.832 -15.784   4.859  1.00  0.00     0.120 A 
HETATM    2  N   UNL     1      42.202 -16.654   5.706  1.00  0.00    -0.272 N 
HETATM    3  H   UNL     1      41.612 -16.401   6.496  1.00  0.00     0.189 HD
HETATM    4  N   UNL     1      42.411 -17.952   5.435  1.00  0.00    -0.174 NA
HETATM    5  C   UNL     1      43.174 -17.944   4.327  1.00  0.00     0.092 A 
HETATM    6  C   UNL     1      43.423 -16.603   3.916  1.00  0.00     0.071 A 
ENDROOT
BRANCH   1   7
HETATM    7  C   UNL     1      42.683 -14.359   5.044  1.00  0.00     0.271 C 
HETATM    8  N   UNL     1      41.410 -13.761   5.073  1.00  0.00    -0.346 N 
HETATM    9  O   UNL     1      43.700 -13.674   5.167  1.00  0.00    -0.266 OA
BRANCH   8  10
HETATM   10  C   UNL     1      41.332 -12.398   5.615  1.00  0.00     0.126 C 
BRANCH  10  11
HETATM   11  C   UNL     1      41.249 -11.321   4.530  1.00  0.00     0.015 C 
HETATM   12  C   UNL     1      41.384  -9.911   5.083  1.00  0.00     0.006 C 
ENDBRANCH  10  11
ENDBRANCH   8  10
BRANCH   8  13
HETATM   13  C   UNL     1      40.158 -14.467   4.745  1.00  0.00     0.130 C 
BRANCH  13  14
HETATM   14  C   UNL     1      39.649 -14.307   3.301  1.00  0.00     0.058 C 
BRANCH  14  15
HETATM   15  C   UNL     1      40.326 -15.184   2.268  1.00  0.00    -0.057 A 
HETATM   16  C   UNL     1      41.237 -14.595   1.375  1.00  0.00     0.007 A 
HETATM   17  C   UNL     1      41.917 -15.365   0.429  1.00  0.00     0.001 A 
HETATM   18  C   UNL     1      41.704 -16.739   0.366  1.00  0.00     0.000 A 
HETATM   19  C   UNL     1      40.819 -17.343   1.256  1.00  0.00     0.001 A 
HETATM   20  C   UNL     1      40.141 -16.573   2.207  1.00  0.00     0.007 A 
ENDBRANCH  14  15
ENDBRANCH  13  14
ENDBRANCH   8  13
ENDBRANCH   1   7
BRANCH   5  21
HETATM   21  C   UNL     1      43.612 -19.200   3.698  1.00  0.00     0.028 A 
HETATM   22  C   UNL     1      44.402 -20.138   4.390  1.00  0.00     0.078 A 
HETATM   23  C   UNL     1      44.810 -21.329   3.789  1.00  0.00     0.037 A 
HETATM   24  C   UNL     1      44.443 -21.604   2.474  1.00  0.00     0.003 A 
HETATM   25  C   UNL     1      43.670 -20.687   1.765  1.00  0.00     0.001 A 
HETATM   26  C   UNL     1      43.257 -19.495   2.372  1.00  0.00     0.017 A 
BRANCH  22  27
HETATM   27  O   UNL     1      44.820 -19.946   5.682  1.00  0.00    -0.360 OA
HETATM   28  H   UNL     1      44.430 -19.088   5.970  1.00  0.00     0.217 HD
ENDBRANCH  22  27
ENDBRANCH   5  21
TORSDOF 8
ENDMDL
MODEL 6
REMARK VINA RESULT:      -7.6      2.141      2.711
REMARK  8 active torsions:
REMARK  status: ('A' for Active; 'I' for Inactive)
REMARK    1  A    between atoms: C_2  and  C_3 
REMARK    2  A    between atoms: C_3  and  N_4 
REMARK       I    between atoms: N_4  and  C_5 
REMARK    3  A    between atoms: N_4  and  C_20 
REMARK    4  A    between atoms: C_5  and  C_6 
REMARK    5  A    between atoms: C_10  and  C_11 
REMARK    6  A    between atoms: C_12  and  O_13 
REMARK    7  A    between atoms: C_20  and  C_21 
REMARK    8  A    between atoms: C_21  and  C_22 
ROOT
HETATM    1  C   UNL     1      40.515 -16.001   2.194  1.00  0.00     0.120 A 
HETATM    2  N   UNL     1      40.496 -16.118   3.557  1.00  0.00    -0.272 N 
HETATM    3  H   UNL     1      39.913 -15.584   4.197  1.00  0.00     0.189 HD
HETATM    4  N   UNL     1      41.345 -17.033   4.053  1.00  0.00    -0.174 NA
HETATM    5  C   UNL     1      41.915 -17.583   2.967  1.00  0.00     0.092 A 
HETATM    6  C   UNL     1      41.390 -16.988   1.785  1.00  0.00     0.071 A 
ENDROOT
BRANCH   1   7
HETATM    7  C   UNL     1      39.644 -15.051   1.539  1.00  0.00     0.271 C 
HETATM    8  N   UNL     1      40.170 -14.017   0.744  1.00  0.00    -0.346 N 
HETATM    9  O   UNL     1      38.428 -15.162   1.700  1.00  0.00    -0.266 OA
BRANCH   8  10
HETATM   10  C   UNL     1      39.231 -13.334  -0.157  1.00  0.00     0.126 C 
BRANCH  10  11
HETATM   11  C   UNL     1      39.361 -13.781  -1.616  1.00  0.00     0.015 C 
HETATM   12  C   UNL     1      38.022 -14.112  -2.256  1.00  0.00     0.006 C 
ENDBRANCH  10  11
ENDBRANCH   8  10
BRANCH   8  13
HETATM   13  C   UNL     1      41.605 -13.694   0.651  1.00  0.00     0.130 C 
BRANCH  13  14
HETATM   14  C   UNL     1      42.113 -12.589   1.596  1.00  0.00     0.058 C 
BRANCH  14  15
HETATM   15  C   UNL     1      42.336 -13.011   3.034  1.00  0.00    -0.057 A 
HETATM   16  C   UNL     1      43.394 -13.888   3.324  1.00  0.00     0.007 A 
HETATM   17  C   UNL     1      43.667 -14.277   4.637  1.00  0.00     0.001 A 
HETATM   18  C   UNL     1      42.890 -13.789   5.683  1.00  0.00     0.000 A 
HETATM   19  C   UNL     1      41.848 -12.904   5.417  1.00  0.00     0.001 A 
HETATM   20  C   UNL     1      41.578 -12.510   4.102  1.00  0.00     0.007 A 
ENDBRANCH  14  15
ENDBRANCH  13  14
ENDBRANCH   8  13
ENDBRANCH   1   7
BRANCH   5  21
HETATM   21  C   UNL     1      42.913 -18.658   3.096  1.00  0.00     0.028 A 
HETATM   22  C   UNL     1      43.783 -18.732   4.199  1.00  0.00     0.078 A 
HETATM   23  C   UNL     1      44.723 -19.756   4.318  1.00  0.00     0.037 A 
HETATM   24  C   UNL     1      44.819 -20.727   3.325  1.00  0.00     0.003 A 
HETATM   25  C   UNL     1      43.975 -20.671   2.217  1.00  0.00     0.001 A 
HETATM   26  C   UNL     1      43.029 -19.645   2.103  1.00  0.00     0.017 A 
BRANCH  22  27
HETATM   27  O   UNL     1      43.768 -17.813   5.218  1.00  0.00    -0.360 OA
HETATM   28  H   UNL     1      43.608 -18.326   6.044  1.00  0.00     0.217 HD
ENDBRANCH  22  27
ENDBRANCH   5  21
TORSDOF 8
ENDMDL
MODEL 7
REMARK VINA RESULT:      -7.5      1.995      2.979
REMARK  8 active torsions:
REMARK  status: ('A' for Active; 'I' for Inactive)
REMARK    1  A    between atoms: C_2  and  C_3 
REMARK    2  A    between atoms: C_3  and  N_4 
REMARK       I    between atoms: N_4  and  C_5 
REMARK    3  A    between atoms: N_4  and  C_20 
REMARK    4  A    between atoms: C_5  and  C_6 
REMARK    5  A    between atoms: C_10  and  C_11 
REMARK    6  A    between atoms: C_12  and  O_13 
REMARK    7  A    between atoms: C_20  and  C_21 
REMARK    8  A    between atoms: C_21  and  C_22 
ROOT
HETATM    1  C   UNL     1      41.675 -16.346   0.528  1.00  0.00     0.120 A 
HETATM    2  N   UNL     1      40.750 -17.253   0.968  1.00  0.00    -0.272 N 
HETATM    3  H   UNL     1      39.783 -17.321   0.659  1.00  0.00     0.189 HD
HETATM    4  N   UNL     1      41.202 -18.110   1.897  1.00  0.00    -0.174 NA
HETATM    5  C   UNL     1      42.501 -17.791   2.042  1.00  0.00     0.092 A 
HETATM    6  C   UNL     1      42.840 -16.717   1.172  1.00  0.00     0.071 A 
ENDROOT
BRANCH   1   7
HETATM    7  C   UNL     1      41.310 -15.370  -0.473  1.00  0.00     0.271 C 
HETATM    8  N   UNL     1      41.013 -14.043  -0.116  1.00  0.00    -0.346 N 
HETATM    9  O   UNL     1      41.256 -15.730  -1.650  1.00  0.00    -0.266 OA
BRANCH   8  10
HETATM   10  C   UNL     1      41.008 -13.051  -1.201  1.00  0.00     0.126 C 
BRANCH  10  11
HETATM   11  C   UNL     1      42.407 -12.546  -1.563  1.00  0.00     0.015 C 
HETATM   12  C   UNL     1      42.652 -12.505  -3.064  1.00  0.00     0.006 C 
ENDBRANCH  10  11
ENDBRANCH   8  10
BRANCH   8  13
HETATM   13  C   UNL     1      40.866 -13.574   1.274  1.00  0.00     0.130 C 
BRANCH  13  14
HETATM   14  C   UNL     1      42.170 -13.204   2.005  1.00  0.00     0.058 C 
BRANCH  14  15
HETATM   15  C   UNL     1      42.343 -13.816   3.381  1.00  0.00    -0.057 A 
HETATM   16  C   UNL     1      41.288 -14.568   3.923  1.00  0.00     0.007 A 
HETATM   17  C   UNL     1      41.412 -15.185   5.170  1.00  0.00     0.001 A 
HETATM   18  C   UNL     1      42.596 -15.068   5.891  1.00  0.00     0.000 A 
HETATM   19  C   UNL     1      43.659 -14.342   5.360  1.00  0.00     0.001 A 
HETATM   20  C   UNL     1      43.539 -13.728   4.109  1.00  0.00     0.007 A 
ENDBRANCH  14  15
ENDBRANCH  13  14
ENDBRANCH   8  13
ENDBRANCH   1   7
BRANCH   5  21
HETATM   21  C   UNL     1      43.363 -18.528   2.980  1.00  0.00     0.028 A 
HETATM   22  C   UNL     1      43.784 -19.846   2.719  1.00  0.00     0.078 A 
HETATM   23  C   UNL     1      44.606 -20.537   3.609  1.00  0.00     0.037 A 
HETATM   24  C   UNL     1      45.018 -19.925   4.790  1.00  0.00     0.003 A 
HETATM   25  C   UNL     1      44.607 -18.624   5.076  1.00  0.00     0.001 A 
HETATM   26  C   UNL     1      43.787 -17.931   4.179  1.00  0.00     0.017 A 
BRANCH  22  27
HETATM   27  O   UNL     1      43.418 -20.531   1.588  1.00  0.00    -0.360 OA
HETATM   28  H   UNL     1      43.849 -20.063   0.835  1.00  0.00     0.217 HD
ENDBRANCH  22  27
ENDBRANCH   5  21
TORSDOF 8
ENDMDL
MODEL 8
REMARK VINA RESULT:      -7.4      2.677      3.728
REMARK  8 active torsions:
REMARK  status: ('A' for Active; 'I' for Inactive)
REMARK    1  A    between atoms: C_2  and  C_3 
REMARK    2  A    between atoms: C_3  and  N_4 
REMARK       I    between atoms: N_4  and  C_5 
REMARK    3  A    between atoms: N_4  and  C_20 
REMARK    4  A    between atoms: C_5  and  C_6 
REMARK    5  A    between atoms: C_10  and  C_11 
REMARK    6  A    between atoms: C_12  and  O_13 
REMARK    7  A    between atoms: C_20  and  C_21 
REMARK    8  A    between atoms: C_21  and  C_22 
ROOT
HETATM    1  C   UNL     1      42.818 -15.950   3.351  1.00  0.00     0.120 A 
HETATM    2  N   UNL     1      43.748 -15.977   2.348  1.00  0.00    -0.272 N 
HETATM    3  H   UNL     1      44.090 -15.174   1.826  1.00  0.00     0.189 HD
HETATM    4  N   UNL     1      44.224 -17.198   2.057  1.00  0.00    -0.174 NA
HETATM    5  C   UNL     1      43.621 -18.012   2.941  1.00  0.00     0.092 A 
HETATM    6  C   UNL     1      42.764 -17.258   3.792  1.00  0.00     0.071 A 
ENDROOT
BRANCH   1   7
HETATM    7  C   UNL     1      42.231 -14.694   3.759  1.00  0.00     0.271 C 
HETATM    8  N   UNL     1      42.510 -14.141   5.021  1.00  0.00    -0.346 N 
HETATM    9  O   UNL     1      41.470 -14.122   2.977  1.00  0.00    -0.266 OA
BRANCH   8  10
HETATM   10  C   UNL     1      42.172 -12.724   5.211  1.00  0.00     0.126 C 
BRANCH  10  11
HETATM   11  C   UNL     1      41.094 -12.498   6.274  1.00  0.00     0.015 C 
HETATM   12  C   UNL     1      39.806 -13.252   5.982  1.00  0.00     0.006 C 
ENDBRANCH  10  11
ENDBRANCH   8  10
BRANCH   8  13
HETATM   13  C   UNL     1      43.248 -14.843   6.087  1.00  0.00     0.130 C 
BRANCH  13  14
HETATM   14  C   UNL     1      44.752 -14.533   6.186  1.00  0.00     0.058 C 
BRANCH  14  15
HETATM   15  C   UNL     1      45.142 -13.517   7.241  1.00  0.00    -0.057 A 
HETATM   16  C   UNL     1      46.413 -12.923   7.169  1.00  0.00     0.007 A 
HETATM   17  C   UNL     1      46.806 -11.953   8.093  1.00  0.00     0.001 A 
HETATM   18  C   UNL     1      45.932 -11.555   9.100  1.00  0.00     0.000 A 
HETATM   19  C   UNL     1      44.661 -12.119   9.174  1.00  0.00     0.001 A 
HETATM   20  C   UNL     1      44.264 -13.087   8.246  1.00  0.00     0.007 A 
ENDBRANCH  14  15
ENDBRANCH  13  14
ENDBRANCH   8  13
ENDBRANCH   1   7
BRANCH   5  21
HETATM   21  C   UNL     1      43.897 -19.458   2.954  1.00  0.00     0.028 A 
HETATM   22  C   UNL     1      44.556 -20.076   4.033  1.00  0.00     0.078 A 
HETATM   23  C   UNL     1      44.811 -21.447   4.041  1.00  0.00     0.037 A 
HETATM   24  C   UNL     1      44.418 -22.232   2.960  1.00  0.00     0.003 A 
HETATM   25  C   UNL     1      43.772 -21.642   1.875  1.00  0.00     0.001 A 
HETATM   26  C   UNL     1      43.513 -20.267   1.872  1.00  0.00     0.017 A 
BRANCH  22  27
HETATM   27  O   UNL     1      44.989 -19.381   5.134  1.00  0.00    -0.360 OA
HETATM   28  H   UNL     1      45.953 -19.570   5.214  1.00  0.00     0.217 HD
ENDBRANCH  22  27
ENDBRANCH   5  21
TORSDOF 8
ENDMDL
MODEL 9
REMARK VINA RESULT:      -7.3      2.369      4.701
REMARK  8 active torsions:
REMARK  status: ('A' for Active; 'I' for Inactive)
REMARK    1  A    between atoms: C_2  and  C_3 
REMARK    2  A    between atoms: C_3  and  N_4 
REMARK       I    between atoms: N_4  and  C_5 
REMARK    3  A    between atoms: N_4  and  C_20 
REMARK    4  A    between atoms: C_5  and  C_6 
REMARK    5  A    between atoms: C_10  and  C_11 
REMARK    6  A    between atoms: C_12  and  O_13 
REMARK    7  A    between atoms: C_20  and  C_21 
REMARK    8  A    between atoms: C_21  and  C_22 
ROOT
HETATM    1  C   UNL     1      41.947 -16.135   3.784  1.00  0.00     0.120 A 
HETATM    2  N   UNL     1      43.167 -16.061   4.398  1.00  0.00    -0.272 N 
HETATM    3  H   UNL     1      43.535 -15.261   4.907  1.00  0.00     0.189 HD
HETATM    4  N   UNL     1      43.917 -17.170   4.292  1.00  0.00    -0.174 NA
HETATM    5  C   UNL     1      43.139 -18.037   3.620  1.00  0.00     0.092 A 
HETATM    6  C   UNL     1      41.883 -17.435   3.320  1.00  0.00     0.071 A 
ENDROOT
BRANCH   1   7
HETATM    7  C   UNL     1      41.046 -15.006   3.829  1.00  0.00     0.271 C 
HETATM    8  N   UNL     1      40.978 -14.091   2.763  1.00  0.00    -0.346 N 
HETATM    9  O   UNL     1      40.344 -14.856   4.830  1.00  0.00    -0.266 OA
BRANCH   8  10
HETATM   10  C   UNL     1      39.808 -13.202   2.729  1.00  0.00     0.126 C 
BRANCH  10  11
HETATM   11  C   UNL     1      39.068 -13.230   1.388  1.00  0.00     0.015 C 
HETATM   12  C   UNL     1      38.162 -14.442   1.238  1.00  0.00     0.006 C 
ENDBRANCH  10  11
ENDBRANCH   8  10
BRANCH   8  13
HETATM   13  C   UNL     1      41.910 -14.082   1.621  1.00  0.00     0.130 C 
BRANCH  13  14
HETATM   14  C   UNL     1      41.713 -15.197   0.578  1.00  0.00     0.058 C 
BRANCH  14  15
HETATM   15  C   UNL     1      41.476 -14.728  -0.844  1.00  0.00    -0.057 A 
HETATM   16  C   UNL     1      41.853 -13.421  -1.195  1.00  0.00     0.007 A 
HETATM   17  C   UNL     1      41.691 -12.953  -2.501  1.00  0.00     0.001 A 
HETATM   18  C   UNL     1      41.158 -13.787  -3.479  1.00  0.00     0.000 A 
HETATM   19  C   UNL     1      40.796 -15.092  -3.152  1.00  0.00     0.001 A 
HETATM   20  C   UNL     1      40.963 -15.564  -1.846  1.00  0.00     0.007 A 
ENDBRANCH  14  15
ENDBRANCH  13  14
ENDBRANCH   8  13
ENDBRANCH   1   7
BRANCH   5  21
HETATM   21  C   UNL     1      43.608 -19.397   3.311  1.00  0.00     0.028 A 
HETATM   22  C   UNL     1      44.397 -20.131   4.216  1.00  0.00     0.078 A 
HETATM   23  C   UNL     1      44.834 -21.422   3.919  1.00  0.00     0.037 A 
HETATM   24  C   UNL     1      44.499 -22.004   2.699  1.00  0.00     0.003 A 
HETATM   25  C   UNL     1      43.727 -21.294   1.782  1.00  0.00     0.001 A 
HETATM   26  C   UNL     1      43.285 -20.001   2.084  1.00  0.00     0.017 A 
BRANCH  22  27
HETATM   27  O   UNL     1      44.784 -19.634   5.434  1.00  0.00    -0.360 OA
HETATM   28  H   UNL     1      44.774 -18.653   5.343  1.00  0.00     0.217 HD
ENDBRANCH  22  27
ENDBRANCH   5  21
TORSDOF 8
ENDMDL
MODEL 10
REMARK VINA RESULT:      -7.3      2.932      7.236
REMARK  8 active torsions:
REMARK  status: ('A' for Active; 'I' for Inactive)
REMARK    1  A    between atoms: C_2  and  C_3 
REMARK    2  A    between atoms: C_3  and  N_4 
REMARK       I    between atoms: N_4  and  C_5 
REMARK    3  A    between atoms: N_4  and  C_20 
REMARK    4  A    between atoms: C_5  and  C_6 
REMARK    5  A    between atoms: C_10  and  C_11 
REMARK    6  A    between atoms: C_12  and  O_13 
REMARK    7  A    between atoms: C_20  and  C_21 
REMARK    8  A    between atoms: C_21  and  C_22 
ROOT
HETATM    1  C   UNL     1      41.138 -14.858   1.321  1.00  0.00     0.120 A 
HETATM    2  N   UNL     1      40.726 -15.476   0.173  1.00  0.00    -0.272 N 
HETATM    3  H   UNL     1      40.252 -16.374   0.113  1.00  0.00     0.189 HD
HETATM    4  N   UNL     1      40.995 -14.801  -0.956  1.00  0.00    -0.174 NA
HETATM    5  C   UNL     1      41.566 -13.659  -0.534  1.00  0.00     0.092 A 
HETATM    6  C   UNL     1      41.636 -13.644   0.888  1.00  0.00     0.071 A 
ENDROOT
BRANCH   1   7
HETATM    7  C   UNL     1      40.905 -15.483   2.603  1.00  0.00     0.271 C 
HETATM    8  N   UNL     1      41.832 -16.391   3.145  1.00  0.00    -0.346 N 
HETATM    9  O   UNL     1      39.867 -15.209   3.208  1.00  0.00    -0.266 OA
BRANCH   8  10
HETATM   10  C   UNL     1      41.700 -16.695   4.577  1.00  0.00     0.126 C 
BRANCH  10  11
HETATM   11  C   UNL     1      42.617 -15.845   5.461  1.00  0.00     0.015 C 
HETATM   12  C   UNL     1      43.704 -16.661   6.143  1.00  0.00     0.006 C 
ENDBRANCH  10  11
ENDBRANCH   8  10
BRANCH   8  13
HETATM   13  C   UNL     1      42.996 -16.920   2.412  1.00  0.00     0.130 C 
BRANCH  13  14
HETATM   14  C   UNL     1      42.805 -18.291   1.737  1.00  0.00     0.058 C 
BRANCH  14  15
HETATM   15  C   UNL     1      43.479 -19.459   2.427  1.00  0.00    -0.057 A 
HETATM   16  C   UNL     1      43.527 -20.698   1.766  1.00  0.00     0.007 A 
HETATM   17  C   UNL     1      44.170 -21.796   2.342  1.00  0.00     0.001 A 
HETATM   18  C   UNL     1      44.783 -21.671   3.585  1.00  0.00     0.000 A 
HETATM   19  C   UNL     1      44.762 -20.445   4.245  1.00  0.00     0.001 A 
HETATM   20  C   UNL     1      44.124 -19.343   3.667  1.00  0.00     0.007 A 
ENDBRANCH  14  15
ENDBRANCH  13  14
ENDBRANCH   8  13
ENDBRANCH   1   7
BRANCH   5  21
HETATM   21  C   UNL     1      42.000 -12.629  -1.492  1.00  0.00     0.028 A 
HETATM   22  C   UNL     1      42.667 -11.462  -1.073  1.00  0.00     0.078 A 
HETATM   23  C   UNL     1      43.080 -10.492  -1.986  1.00  0.00     0.037 A 
HETATM   24  C   UNL     1      42.824 -10.665  -3.344  1.00  0.00     0.003 A 
HETATM   25  C   UNL     1      42.157 -11.807  -3.783  1.00  0.00     0.001 A 
HETATM   26  C   UNL     1      41.748 -12.781  -2.865  1.00  0.00     0.017 A 
BRANCH  22  27
HETATM   27  O   UNL     1      42.951 -11.203   0.244  1.00  0.00    -0.360 OA
HETATM   28  H   UNL     1      42.196 -11.568   0.762  1.00  0.00     0.217 HD
ENDBRANCH  22  27
ENDBRANCH   5  21
TORSDOF 8
ENDMDL
