MODEL 1
REMARK VINA RESULT:      -8.8      0.000      0.000
REMARK  5 active torsions:
REMARK  status: ('A' for Active; 'I' for Inactive)
REMARK    1  A    between atoms: C_3  and  N_4 
REMARK       I    between atoms: N_4  and  C_5 
REMARK    2  A    between atoms: C_9  and  N_10 
REMARK       I    between atoms: N_10  and  C_11 
REMARK    3  A    between atoms: C_11  and  C_12 
REMARK    4  A    between atoms: C_17  and  C_18 
REMARK    5  A    between atoms: C_24  and  C_25 
ROOT
HETATM    1  C   UNL     1      41.740 -15.602   0.728  1.00  0.00     0.148 A 
HETATM    2  N   UNL     1      41.241 -14.357   0.919  1.00  0.00    -0.165 NA
HETATM    3  N   UNL     1      40.468 -14.170  -0.168  1.00  0.00    -0.240 N 
HETATM    4  C   UNL     1      40.556 -15.167  -1.094  1.00  0.00     0.123 A 
HETATM    5  N   UNL     1      39.930 -15.064  -2.284  1.00  0.00    -0.364 N 
HETATM    6  C   UNL     1      39.556 -13.766  -2.857  1.00  0.00     0.143 C 
HETATM    7  C   UNL     1      39.767 -12.591  -1.875  1.00  0.00     0.068 C 
HETATM    8  C   UNL     1      39.688 -12.970  -0.388  1.00  0.00     0.221 C 
HETATM    9  C   UNL     1      41.314 -16.147  -0.517  1.00  0.00     0.089 A 
HETATM   10  H   UNL     1      40.042 -15.800  -2.981  1.00  0.00     0.162 HD
ENDROOT
BRANCH   1  11
HETATM   11  C   UNL     1      42.636 -16.259   1.696  1.00  0.00     0.276 C 
HETATM   12  N   UNL     1      42.482 -17.632   1.709  1.00  0.00    -0.322 N 
HETATM   13  H   UNL     1      41.787 -17.970   1.049  1.00  0.00     0.169 HD
HETATM   14  O   UNL     1      43.391 -15.602   2.405  1.00  0.00    -0.266 OA
BRANCH  12  15
HETATM   15  C   UNL     1      43.117 -18.567   2.550  1.00  0.00     0.037 A 
HETATM   16  C   UNL     1      43.169 -18.450   3.940  1.00  0.00     0.059 A 
HETATM   17  C   UNL     1      43.774 -19.431   4.754  1.00  0.00     0.042 A 
HETATM   18  C   UNL     1      44.408 -20.524   4.143  1.00  0.00    -0.035 A 
HETATM   19  C   UNL     1      45.201 -21.575   4.869  1.00  0.00     0.050 C 
HETATM   20  C   UNL     1      44.339 -20.643   2.740  1.00  0.00     0.011 A 
HETATM   21  C   UNL     1      43.705 -19.677   1.953  1.00  0.00     0.030 A 
BRANCH  17  22
HETATM   22  N   UNL     1      43.710 -19.160   6.141  1.00  0.00    -0.327 N 
HETATM   23  C   UNL     1      44.592 -18.433   6.917  1.00  0.00     0.218 C 
HETATM   24  C   UNL     1      44.128 -18.328   8.350  1.00  0.00     0.117 C 
HETATM   25  O   UNL     1      45.648 -17.923   6.564  1.00  0.00    -0.274 OA
HETATM   26  H   UNL     1      43.088 -19.766   6.663  1.00  0.00     0.169 HD
ENDBRANCH  17  22
ENDBRANCH  12  15
ENDBRANCH   1  11
BRANCH   8  27
HETATM   27  C   UNL     1      38.278 -13.173   0.114  1.00  0.00     0.409 C 
HETATM   28  F   UNL     1      38.170 -12.885   1.432  1.00  0.00    -0.169 F 
HETATM   29  F   UNL     1      37.430 -12.329  -0.531  1.00  0.00    -0.169 F 
HETATM   30  F   UNL     1      37.801 -14.420  -0.065  1.00  0.00    -0.169 F 
ENDBRANCH   8  27
BRANCH   6  31
HETATM   31  C   UNL     1      38.192 -13.747  -3.471  1.00  0.00     0.075 A 
HETATM   32  O   UNL     1      37.653 -12.514  -3.705  1.00  0.00    -0.325 OA
HETATM   33  C   UNL     1      36.450 -12.710  -4.303  1.00  0.00     0.142 A 
HETATM   34  C   UNL     1      36.203 -14.053  -4.457  1.00  0.00     0.027 A 
HETATM   35  C   UNL     1      37.327 -14.725  -3.921  1.00  0.00     0.037 A 
ENDBRANCH   6  31
TORSDOF 5
ENDMDL
MODEL 2
REMARK VINA RESULT:      -8.7      2.639      3.586
REMARK  5 active torsions:
REMARK  status: ('A' for Active; 'I' for Inactive)
REMARK    1  A    between atoms: C_3  and  N_4 
REMARK       I    between atoms: N_4  and  C_5 
REMARK    2  A    between atoms: C_9  and  N_10 
REMARK       I    between atoms: N_10  and  C_11 
REMARK    3  A    between atoms: C_11  and  C_12 
REMARK    4  A    between atoms: C_17  and  C_18 
REMARK    5  A    between atoms: C_24  and  C_25 
ROOT
HETATM    1  C   UNL     1      41.462 -15.299   0.955  1.00  0.00     0.148 A 
HETATM    2  N   UNL     1      40.906 -15.342  -0.280  1.00  0.00    -0.165 NA
HETATM    3  N   UNL     1      41.022 -14.071  -0.708  1.00  0.00    -0.240 N 
HETATM    4  C   UNL     1      41.495 -13.204   0.232  1.00  0.00     0.123 A 
HETATM    5  N   UNL     1      41.555 -11.880  -0.014  1.00  0.00    -0.364 N 
HETATM    6  C   UNL     1      40.711 -11.238  -1.029  1.00  0.00     0.143 C 
HETATM    7  C   UNL     1      39.928 -12.254  -1.892  1.00  0.00     0.068 C 
HETATM    8  C   UNL     1      40.587 -13.635  -2.020  1.00  0.00     0.221 C 
HETATM    9  C   UNL     1      41.859 -13.976   1.300  1.00  0.00     0.089 A 
HETATM   10  H   UNL     1      41.870 -11.243   0.717  1.00  0.00     0.162 HD
ENDROOT
BRANCH   1  11
HETATM   11  C   UNL     1      41.587 -16.489   1.815  1.00  0.00     0.276 C 
HETATM   12  N   UNL     1      42.901 -16.889   1.973  1.00  0.00    -0.322 N 
HETATM   13  H   UNL     1      43.568 -16.300   1.483  1.00  0.00     0.169 HD
HETATM   14  O   UNL     1      40.596 -17.038   2.284  1.00  0.00    -0.266 OA
BRANCH  12  15
HETATM   15  C   UNL     1      43.386 -18.017   2.663  1.00  0.00     0.037 A 
HETATM   16  C   UNL     1      43.434 -18.115   4.054  1.00  0.00     0.059 A 
HETATM   17  C   UNL     1      43.884 -19.279   4.710  1.00  0.00     0.042 A 
HETATM   18  C   UNL     1      44.368 -20.349   3.941  1.00  0.00    -0.035 A 
HETATM   19  C   UNL     1      44.996 -21.595   4.499  1.00  0.00     0.050 C 
HETATM   20  C   UNL     1      44.305 -20.249   2.536  1.00  0.00     0.011 A 
HETATM   21  C   UNL     1      43.823 -19.099   1.905  1.00  0.00     0.030 A 
BRANCH  17  22
HETATM   22  N   UNL     1      43.837 -19.209   6.123  1.00  0.00    -0.327 N 
HETATM   23  C   UNL     1      44.643 -18.479   6.975  1.00  0.00     0.218 C 
HETATM   24  C   UNL     1      44.224 -18.634   8.417  1.00  0.00     0.117 C 
HETATM   25  O   UNL     1      45.607 -17.786   6.676  1.00  0.00    -0.274 OA
HETATM   26  H   UNL     1      43.322 -19.960   6.568  1.00  0.00     0.169 HD
ENDBRANCH  17  22
ENDBRANCH  12  15
ENDBRANCH   1  11
BRANCH   8  27
HETATM   27  C   UNL     1      41.750 -13.668  -2.984  1.00  0.00     0.409 C 
HETATM   28  F   UNL     1      41.926 -14.901  -3.514  1.00  0.00    -0.169 F 
HETATM   29  F   UNL     1      41.507 -12.836  -4.030  1.00  0.00    -0.169 F 
HETATM   30  F   UNL     1      42.926 -13.290  -2.446  1.00  0.00    -0.169 F 
ENDBRANCH   8  27
BRANCH   6  31
HETATM   31  C   UNL     1      41.432 -10.228  -1.864  1.00  0.00     0.075 A 
HETATM   32  O   UNL     1      40.672  -9.214  -2.373  1.00  0.00    -0.325 OA
HETATM   33  C   UNL     1      41.511  -8.388  -3.050  1.00  0.00     0.142 A 
HETATM   34  C   UNL     1      42.801  -8.856  -2.987  1.00  0.00     0.027 A 
HETATM   35  C   UNL     1      42.753 -10.044  -2.220  1.00  0.00     0.037 A 
ENDBRANCH   6  31
TORSDOF 5
ENDMDL
MODEL 3
REMARK VINA RESULT:      -8.5      1.938      2.348
REMARK  5 active torsions:
REMARK  status: ('A' for Active; 'I' for Inactive)
REMARK    1  A    between atoms: C_3  and  N_4 
REMARK       I    between atoms: N_4  and  C_5 
REMARK    2  A    between atoms: C_9  and  N_10 
REMARK       I    between atoms: N_10  and  C_11 
REMARK    3  A    between atoms: C_11  and  C_12 
REMARK    4  A    between atoms: C_17  and  C_18 
REMARK    5  A    between atoms: C_24  and  C_25 
ROOT
HETATM    1  C   UNL     1      41.603 -15.743   0.332  1.00  0.00     0.148 A 
HETATM    2  N   UNL     1      42.049 -14.494   0.613  1.00  0.00    -0.165 NA
HETATM    3  N   UNL     1      41.765 -13.811  -0.511  1.00  0.00    -0.240 N 
HETATM    4  C   UNL     1      41.289 -14.582  -1.530  1.00  0.00     0.123 A 
HETATM    5  N   UNL     1      41.071 -14.057  -2.753  1.00  0.00    -0.364 N 
HETATM    6  C   UNL     1      41.750 -12.839  -3.210  1.00  0.00     0.143 C 
HETATM    7  C   UNL     1      42.555 -12.142  -2.089  1.00  0.00     0.068 C 
HETATM    8  C   UNL     1      42.034 -12.396  -0.667  1.00  0.00     0.221 C 
HETATM    9  C   UNL     1      41.102 -15.828  -0.999  1.00  0.00     0.089 A 
HETATM   10  H   UNL     1      40.756 -14.659  -3.514  1.00  0.00     0.162 HD
ENDROOT
BRANCH   1  11
HETATM   11  C   UNL     1      41.678 -16.853   1.298  1.00  0.00     0.276 C 
HETATM   12  N   UNL     1      42.981 -17.191   1.611  1.00  0.00    -0.322 N 
HETATM   13  H   UNL     1      43.676 -16.621   1.136  1.00  0.00     0.169 HD
HETATM   14  O   UNL     1      40.662 -17.395   1.718  1.00  0.00    -0.266 OA
BRANCH  12  15
HETATM   15  C   UNL     1      43.429 -18.240   2.437  1.00  0.00     0.037 A 
HETATM   16  C   UNL     1      43.419 -18.188   3.832  1.00  0.00     0.059 A 
HETATM   17  C   UNL     1      43.832 -19.277   4.627  1.00  0.00     0.042 A 
HETATM   18  C   UNL     1      44.340 -20.425   3.997  1.00  0.00    -0.035 A 
HETATM   19  C   UNL     1      44.935 -21.606   4.711  1.00  0.00     0.050 C 
HETATM   20  C   UNL     1      44.335 -20.476   2.589  1.00  0.00     0.011 A 
HETATM   21  C   UNL     1      43.888 -19.398   1.818  1.00  0.00     0.030 A 
BRANCH  17  22
HETATM   22  N   UNL     1      43.728 -19.056   6.021  1.00  0.00    -0.327 N 
HETATM   23  C   UNL     1      44.612 -18.401   6.856  1.00  0.00     0.218 C 
HETATM   24  C   UNL     1      44.099 -18.329   8.274  1.00  0.00     0.117 C 
HETATM   25  O   UNL     1      45.703 -17.929   6.562  1.00  0.00    -0.274 OA
HETATM   26  H   UNL     1      43.060 -19.651   6.496  1.00  0.00     0.169 HD
ENDBRANCH  17  22
ENDBRANCH  12  15
ENDBRANCH   1  11
BRANCH   8  27
HETATM   27  C   UNL     1      40.800 -11.596  -0.319  1.00  0.00     0.409 C 
HETATM   28  F   UNL     1      39.670 -12.323  -0.484  1.00  0.00    -0.169 F 
HETATM   29  F   UNL     1      40.834 -11.239   0.992  1.00  0.00    -0.169 F 
HETATM   30  F   UNL     1      40.656 -10.462  -1.031  1.00  0.00    -0.169 F 
ENDBRANCH   8  27
BRANCH   6  31
HETATM   31  C   UNL     1      40.857 -11.886  -3.938  1.00  0.00     0.075 A 
HETATM   32  O   UNL     1      39.518 -12.010  -3.696  1.00  0.00    -0.325 OA
HETATM   33  C   UNL     1      38.893 -11.035  -4.404  1.00  0.00     0.142 A 
HETATM   34  C   UNL     1      39.808 -10.284  -5.102  1.00  0.00     0.027 A 
HETATM   35  C   UNL     1      41.077 -10.831  -4.802  1.00  0.00     0.037 A 
ENDBRANCH   6  31
TORSDOF 5
ENDMDL
MODEL 4
REMARK VINA RESULT:      -8.4      7.116      9.770
REMARK  5 active torsions:
REMARK  status: ('A' for Active; 'I' for Inactive)
REMARK    1  A    between atoms: C_3  and  N_4 
REMARK       I    between atoms: N_4  and  C_5 
REMARK    2  A    between atoms: C_9  and  N_10 
REMARK       I    between atoms: N_10  and  C_11 
REMARK    3  A    between atoms: C_11  and  C_12 
REMARK    4  A    between atoms: C_17  and  C_18 
REMARK    5  A    between atoms: C_24  and  C_25 
ROOT
HETATM    1  C   UNL     1      41.647 -12.754   5.801  1.00  0.00     0.148 A 
HETATM    2  N   UNL     1      40.677 -13.693   5.686  1.00  0.00    -0.165 NA
HETATM    3  N   UNL     1      41.291 -14.680   5.006  1.00  0.00    -0.240 N 
HETATM    4  C   UNL     1      42.544 -14.364   4.571  1.00  0.00     0.123 A 
HETATM    5  N   UNL     1      43.235 -15.208   3.779  1.00  0.00    -0.364 N 
HETATM    6  C   UNL     1      42.569 -16.223   2.954  1.00  0.00     0.143 C 
HETATM    7  C   UNL     1      41.057 -16.343   3.251  1.00  0.00     0.068 C 
HETATM    8  C   UNL     1      40.644 -15.933   4.672  1.00  0.00     0.221 C 
HETATM    9  C   UNL     1      42.838 -13.151   5.129  1.00  0.00     0.089 A 
HETATM   10  H   UNL     1      44.154 -14.936   3.428  1.00  0.00     0.162 HD
ENDROOT
BRANCH   1  11
HETATM   11  C   UNL     1      41.441 -11.479   6.511  1.00  0.00     0.276 C 
HETATM   12  N   UNL     1      40.968 -11.662   7.797  1.00  0.00    -0.322 N 
HETATM   13  H   UNL     1      40.845 -12.639   8.050  1.00  0.00     0.169 HD
HETATM   14  O   UNL     1      41.656 -10.405   5.958  1.00  0.00    -0.266 OA
BRANCH  12  15
HETATM   15  C   UNL     1      40.594 -10.677   8.731  1.00  0.00     0.037 A 
HETATM   16  C   UNL     1      41.368 -10.324   9.837  1.00  0.00     0.059 A 
HETATM   17  C   UNL     1      40.983  -9.299  10.727  1.00  0.00     0.042 A 
HETATM   18  C   UNL     1      39.747  -8.662  10.536  1.00  0.00    -0.035 A 
HETATM   19  C   UNL     1      39.148  -7.648  11.470  1.00  0.00     0.050 C 
HETATM   20  C   UNL     1      38.977  -9.014   9.409  1.00  0.00     0.011 A 
HETATM   21  C   UNL     1      39.393 -10.009   8.520  1.00  0.00     0.030 A 
BRANCH  17  22
HETATM   22  N   UNL     1      41.903  -9.059  11.775  1.00  0.00    -0.327 N 
HETATM   23  C   UNL     1      42.007  -9.704  12.992  1.00  0.00     0.218 C 
HETATM   24  C   UNL     1      43.167  -9.185  13.808  1.00  0.00     0.117 C 
HETATM   25  O   UNL     1      41.277 -10.582  13.434  1.00  0.00    -0.274 OA
HETATM   26  H   UNL     1      42.372  -8.162  11.731  1.00  0.00     0.169 HD
ENDBRANCH  17  22
ENDBRANCH  12  15
ENDBRANCH   1  11
BRANCH   8  27
HETATM   27  C   UNL     1      40.962 -16.971   5.722  1.00  0.00     0.409 C 
HETATM   28  F   UNL     1      40.006 -17.025   6.679  1.00  0.00    -0.169 F 
HETATM   29  F   UNL     1      41.002 -18.205   5.156  1.00  0.00    -0.169 F 
HETATM   30  F   UNL     1      42.143 -16.786   6.344  1.00  0.00    -0.169 F 
ENDBRANCH   8  27
BRANCH   6  31
HETATM   31  C   UNL     1      43.252 -17.554   2.964  1.00  0.00     0.075 A 
HETATM   32  O   UNL     1      43.937 -17.870   4.103  1.00  0.00    -0.325 OA
HETATM   33  C   UNL     1      44.436 -19.121   3.934  1.00  0.00     0.142 A 
HETATM   34  C   UNL     1      44.086 -19.617   2.701  1.00  0.00     0.027 A 
HETATM   35  C   UNL     1      43.320 -18.606   2.074  1.00  0.00     0.037 A 
ENDBRANCH   6  31
TORSDOF 5
ENDMDL
MODEL 5
REMARK VINA RESULT:      -8.4      1.826      2.269
REMARK  5 active torsions:
REMARK  status: ('A' for Active; 'I' for Inactive)
REMARK    1  A    between atoms: C_3  and  N_4 
REMARK       I    between atoms: N_4  and  C_5 
REMARK    2  A    between atoms: C_9  and  N_10 
REMARK       I    between atoms: N_10  and  C_11 
REMARK    3  A    between atoms: C_11  and  C_12 
REMARK    4  A    between atoms: C_17  and  C_18 
REMARK    5  A    between atoms: C_24  and  C_25 
ROOT
HETATM    1  C   UNL     1      41.306 -15.290   0.387  1.00  0.00     0.148 A 
HETATM    2  N   UNL     1      41.644 -15.239  -0.924  1.00  0.00    -0.165 NA
HETATM    3  N   UNL     1      40.576 -14.642  -1.488  1.00  0.00    -0.240 N 
HETATM    4  C   UNL     1      39.533 -14.437  -0.633  1.00  0.00     0.123 A 
HETATM    5  N   UNL     1      38.356 -13.956  -1.080  1.00  0.00    -0.364 N 
HETATM    6  C   UNL     1      37.944 -14.085  -2.483  1.00  0.00     0.143 C 
HETATM    7  C   UNL     1      39.069 -14.628  -3.393  1.00  0.00     0.068 C 
HETATM    8  C   UNL     1      40.495 -14.336  -2.902  1.00  0.00     0.221 C 
HETATM    9  C   UNL     1      39.996 -14.778   0.607  1.00  0.00     0.089 A 
HETATM   10  H   UNL     1      37.574 -13.850  -0.433  1.00  0.00     0.162 HD
ENDROOT
BRANCH   1  11
HETATM   11  C   UNL     1      42.199 -15.848   1.418  1.00  0.00     0.276 C 
HETATM   12  N   UNL     1      42.201 -17.230   1.422  1.00  0.00    -0.322 N 
HETATM   13  H   UNL     1      41.598 -17.640   0.715  1.00  0.00     0.169 HD
HETATM   14  O   UNL     1      42.823 -15.115   2.178  1.00  0.00    -0.266 OA
BRANCH  12  15
HETATM   15  C   UNL     1      42.875 -18.093   2.308  1.00  0.00     0.037 A 
HETATM   16  C   UNL     1      42.843 -17.959   3.697  1.00  0.00     0.059 A 
HETATM   17  C   UNL     1      43.493 -18.871   4.554  1.00  0.00     0.042 A 
HETATM   18  C   UNL     1      44.259 -19.905   3.992  1.00  0.00    -0.035 A 
HETATM   19  C   UNL     1      45.108 -20.869   4.773  1.00  0.00     0.050 C 
HETATM   20  C   UNL     1      44.276 -20.042   2.590  1.00  0.00     0.011 A 
HETATM   21  C   UNL     1      43.596 -19.148   1.758  1.00  0.00     0.030 A 
BRANCH  17  22
HETATM   22  N   UNL     1      43.330 -18.595   5.933  1.00  0.00    -0.327 N 
HETATM   23  C   UNL     1      44.245 -18.053   6.815  1.00  0.00     0.218 C 
HETATM   24  C   UNL     1      43.655 -17.863   8.192  1.00  0.00     0.117 C 
HETATM   25  O   UNL     1      45.412 -17.757   6.589  1.00  0.00    -0.274 OA
HETATM   26  H   UNL     1      42.550 -19.069   6.371  1.00  0.00     0.169 HD
ENDBRANCH  17  22
ENDBRANCH  12  15
ENDBRANCH   1  11
BRANCH   8  27
HETATM   27  C   UNL     1      40.944 -12.914  -3.146  1.00  0.00     0.409 C 
HETATM   28  F   UNL     1      42.261 -12.851  -3.453  1.00  0.00    -0.169 F 
HETATM   29  F   UNL     1      40.281 -12.396  -4.213  1.00  0.00    -0.169 F 
HETATM   30  F   UNL     1      40.732 -12.081  -2.110  1.00  0.00    -0.169 F 
ENDBRANCH   8  27
BRANCH   6  31
HETATM   31  C   UNL     1      37.314 -12.849  -3.043  1.00  0.00     0.075 A 
HETATM   32  O   UNL     1      37.569 -11.686  -2.374  1.00  0.00    -0.325 OA
HETATM   33  C   UNL     1      36.956 -10.688  -3.060  1.00  0.00     0.142 A 
HETATM   34  C   UNL     1      36.307 -11.190  -4.162  1.00  0.00     0.027 A 
HETATM   35  C   UNL     1      36.538 -12.585  -4.154  1.00  0.00     0.037 A 
ENDBRANCH   6  31
TORSDOF 5
ENDMDL
MODEL 6
REMARK VINA RESULT:      -8.4      1.221      2.342
REMARK  5 active torsions:
REMARK  status: ('A' for Active; 'I' for Inactive)
REMARK    1  A    between atoms: C_3  and  N_4 
REMARK       I    between atoms: N_4  and  C_5 
REMARK    2  A    between atoms: C_9  and  N_10 
REMARK       I    between atoms: N_10  and  C_11 
REMARK    3  A    between atoms: C_11  and  C_12 
REMARK    4  A    between atoms: C_17  and  C_18 
REMARK    5  A    between atoms: C_24  and  C_25 
ROOT
HETATM    1  C   UNL     1      41.872 -15.641   1.180  1.00  0.00     0.148 A 
HETATM    2  N   UNL     1      41.303 -14.422   1.344  1.00  0.00    -0.165 NA
HETATM    3  N   UNL     1      40.565 -14.280   0.227  1.00  0.00    -0.240 N 
HETATM    4  C   UNL     1      40.739 -15.275  -0.689  1.00  0.00     0.123 A 
HETATM    5  N   UNL     1      40.155 -15.209  -1.903  1.00  0.00    -0.364 N 
HETATM    6  C   UNL     1      39.739 -13.934  -2.499  1.00  0.00     0.143 C 
HETATM    7  C   UNL     1      39.852 -12.745  -1.517  1.00  0.00     0.068 C 
HETATM    8  C   UNL     1      39.735 -13.121  -0.032  1.00  0.00     0.221 C 
HETATM    9  C   UNL     1      41.523 -16.213  -0.077  1.00  0.00     0.089 A 
HETATM   10  H   UNL     1      40.332 -15.942  -2.590  1.00  0.00     0.162 HD
ENDROOT
BRANCH   1  11
HETATM   11  C   UNL     1      42.761 -16.247   2.186  1.00  0.00     0.276 C 
HETATM   12  N   UNL     1      42.092 -16.581   3.349  1.00  0.00    -0.322 N 
HETATM   13  H   UNL     1      41.099 -16.366   3.323  1.00  0.00     0.169 HD
HETATM   14  O   UNL     1      43.960 -16.385   1.969  1.00  0.00    -0.266 OA
BRANCH  12  15
HETATM   15  C   UNL     1      42.631 -17.109   4.537  1.00  0.00     0.037 A 
HETATM   16  C   UNL     1      43.013 -18.443   4.691  1.00  0.00     0.059 A 
HETATM   17  C   UNL     1      43.592 -18.926   5.883  1.00  0.00     0.042 A 
HETATM   18  C   UNL     1      43.724 -18.055   6.976  1.00  0.00    -0.035 A 
HETATM   19  C   UNL     1      44.201 -18.457   8.344  1.00  0.00     0.050 C 
HETATM   20  C   UNL     1      43.350 -16.706   6.810  1.00  0.00     0.011 A 
HETATM   21  C   UNL     1      42.809 -16.240   5.608  1.00  0.00     0.030 A 
BRANCH  17  22
HETATM   22  N   UNL     1      43.941 -20.297   5.849  1.00  0.00    -0.327 N 
HETATM   23  C   UNL     1      44.823 -20.940   5.002  1.00  0.00     0.218 C 
HETATM   24  C   UNL     1      44.960 -22.405   5.337  1.00  0.00     0.117 C 
HETATM   25  O   UNL     1      45.440 -20.454   4.062  1.00  0.00    -0.274 OA
HETATM   26  H   UNL     1      43.296 -20.911   6.332  1.00  0.00     0.169 HD
ENDBRANCH  17  22
ENDBRANCH  12  15
ENDBRANCH   1  11
BRANCH   8  27
HETATM   27  C   UNL     1      38.318 -13.394   0.417  1.00  0.00     0.409 C 
HETATM   28  F   UNL     1      38.095 -14.717   0.593  1.00  0.00    -0.169 F 
HETATM   29  F   UNL     1      38.092 -12.807   1.621  1.00  0.00    -0.169 F 
HETATM   30  F   UNL     1      37.372 -12.937  -0.427  1.00  0.00    -0.169 F 
ENDBRANCH   8  27
BRANCH   6  31
HETATM   31  C   UNL     1      38.401 -13.987  -3.165  1.00  0.00     0.075 A 
HETATM   32  O   UNL     1      37.858 -12.786  -3.524  1.00  0.00    -0.325 OA
HETATM   33  C   UNL     1      36.682 -13.050  -4.150  1.00  0.00     0.142 A 
HETATM   34  C   UNL     1      36.457 -14.405  -4.198  1.00  0.00     0.027 A 
HETATM   35  C   UNL     1      37.566 -15.012  -3.564  1.00  0.00     0.037 A 
ENDBRANCH   6  31
TORSDOF 5
ENDMDL
MODEL 7
REMARK VINA RESULT:      -8.3      2.537      3.078
REMARK  5 active torsions:
REMARK  status: ('A' for Active; 'I' for Inactive)
REMARK    1  A    between atoms: C_3  and  N_4 
REMARK       I    between atoms: N_4  and  C_5 
REMARK    2  A    between atoms: C_9  and  N_10 
REMARK       I    between atoms: N_10  and  C_11 
REMARK    3  A    between atoms: C_11  and  C_12 
REMARK    4  A    between atoms: C_17  and  C_18 
REMARK    5  A    between atoms: C_24  and  C_25 
ROOT
HETATM    1  C   UNL     1      40.717 -15.397   0.354  1.00  0.00     0.148 A 
HETATM    2  N   UNL     1      41.329 -15.373  -0.855  1.00  0.00    -0.165 NA
HETATM    3  N   UNL     1      40.819 -14.268  -1.431  1.00  0.00    -0.240 N 
HETATM    4  C   UNL     1      39.826 -13.670  -0.712  1.00  0.00     0.123 A 
HETATM    5  N   UNL     1      39.142 -12.623  -1.214  1.00  0.00    -0.364 N 
HETATM    6  C   UNL     1      39.049 -12.373  -2.658  1.00  0.00     0.143 C 
HETATM    7  C   UNL     1      39.969 -13.297  -3.489  1.00  0.00     0.068 C 
HETATM    8  C   UNL     1      41.213 -13.806  -2.746  1.00  0.00     0.221 C 
HETATM    9  C   UNL     1      39.782 -14.331   0.484  1.00  0.00     0.089 A 
HETATM   10  H   UNL     1      38.374 -12.216  -0.680  1.00  0.00     0.162 HD
ENDROOT
BRANCH   1  11
HETATM   11  C   UNL     1      40.989 -16.435   1.364  1.00  0.00     0.276 C 
HETATM   12  N   UNL     1      42.337 -16.718   1.480  1.00  0.00    -0.322 N 
HETATM   13  H   UNL     1      42.923 -16.165   0.860  1.00  0.00     0.169 HD
HETATM   14  O   UNL     1      40.075 -16.971   1.981  1.00  0.00    -0.266 OA
BRANCH  12  15
HETATM   15  C   UNL     1      42.951 -17.695   2.286  1.00  0.00     0.037 A 
HETATM   16  C   UNL     1      42.944 -17.666   3.682  1.00  0.00     0.059 A 
HETATM   17  C   UNL     1      43.531 -18.687   4.457  1.00  0.00     0.042 A 
HETATM   18  C   UNL     1      44.207 -19.731   3.807  1.00  0.00    -0.035 A 
HETATM   19  C   UNL     1      44.987 -20.815   4.498  1.00  0.00     0.050 C 
HETATM   20  C   UNL     1      44.199 -19.762   2.397  1.00  0.00     0.011 A 
HETATM   21  C   UNL     1      43.582 -18.757   1.647  1.00  0.00     0.030 A 
BRANCH  17  22
HETATM   22  N   UNL     1      43.404 -18.506   5.855  1.00  0.00    -0.327 N 
HETATM   23  C   UNL     1      44.364 -18.091   6.758  1.00  0.00     0.218 C 
HETATM   24  C   UNL     1      43.806 -17.968   8.156  1.00  0.00     0.117 C 
HETATM   25  O   UNL     1      45.544 -17.853   6.534  1.00  0.00    -0.274 OA
HETATM   26  H   UNL     1      42.601 -18.962   6.271  1.00  0.00     0.169 HD
ENDBRANCH  17  22
ENDBRANCH  12  15
ENDBRANCH   1  11
BRANCH   8  27
HETATM   27  C   UNL     1      42.312 -12.777  -2.622  1.00  0.00     0.409 C 
HETATM   28  F   UNL     1      43.539 -13.344  -2.694  1.00  0.00    -0.169 F 
HETATM   29  F   UNL     1      42.240 -11.896  -3.653  1.00  0.00    -0.169 F 
HETATM   30  F   UNL     1      42.269 -12.055  -1.485  1.00  0.00    -0.169 F 
ENDBRANCH   8  27
BRANCH   6  31
HETATM   31  C   UNL     1      39.210 -10.934  -3.034  1.00  0.00     0.075 A 
HETATM   32  O   UNL     1      39.380 -10.057  -2.000  1.00  0.00    -0.325 OA
HETATM   33  C   UNL     1      39.554  -8.826  -2.547  1.00  0.00     0.142 A 
HETATM   34  C   UNL     1      39.497  -8.896  -3.918  1.00  0.00     0.027 A 
HETATM   35  C   UNL     1      39.275 -10.256  -4.234  1.00  0.00     0.037 A 
ENDBRANCH   6  31
TORSDOF 5
ENDMDL
MODEL 8
REMARK VINA RESULT:      -8.1      2.640      3.785
REMARK  5 active torsions:
REMARK  status: ('A' for Active; 'I' for Inactive)
REMARK    1  A    between atoms: C_3  and  N_4 
REMARK       I    between atoms: N_4  and  C_5 
REMARK    2  A    between atoms: C_9  and  N_10 
REMARK       I    between atoms: N_10  and  C_11 
REMARK    3  A    between atoms: C_11  and  C_12 
REMARK    4  A    between atoms: C_17  and  C_18 
REMARK    5  A    between atoms: C_24  and  C_25 
ROOT
HETATM    1  C   UNL     1      41.337 -15.101   1.406  1.00  0.00     0.148 A 
HETATM    2  N   UNL     1      40.439 -15.380   0.431  1.00  0.00    -0.165 NA
HETATM    3  N   UNL     1      40.613 -14.368  -0.440  1.00  0.00    -0.240 N 
HETATM    4  C   UNL     1      41.471 -13.400  -0.008  1.00  0.00     0.123 A 
HETATM    5  N   UNL     1      41.656 -12.270  -0.720  1.00  0.00    -0.364 N 
HETATM    6  C   UNL     1      40.655 -11.780  -1.676  1.00  0.00     0.143 C 
HETATM    7  C   UNL     1      39.506 -12.786  -1.913  1.00  0.00     0.068 C 
HETATM    8  C   UNL     1      39.879 -14.258  -1.684  1.00  0.00     0.221 C 
HETATM    9  C   UNL     1      42.016 -13.875   1.152  1.00  0.00     0.089 A 
HETATM   10  H   UNL     1      42.268 -11.538  -0.359  1.00  0.00     0.162 HD
ENDROOT
BRANCH   1  11
HETATM   11  C   UNL     1      41.531 -15.967   2.583  1.00  0.00     0.276 C 
HETATM   12  N   UNL     1      42.748 -15.751   3.202  1.00  0.00    -0.322 N 
HETATM   13  H   UNL     1      43.309 -15.030   2.756  1.00  0.00     0.169 HD
HETATM   14  O   UNL     1      40.682 -16.790   2.909  1.00  0.00    -0.266 OA
BRANCH  12  15
HETATM   15  C   UNL     1      43.295 -16.440   4.301  1.00  0.00     0.037 A 
HETATM   16  C   UNL     1      43.774 -17.750   4.236  1.00  0.00     0.059 A 
HETATM   17  C   UNL     1      44.357 -18.392   5.348  1.00  0.00     0.042 A 
HETATM   18  C   UNL     1      44.393 -17.720   6.580  1.00  0.00    -0.035 A 
HETATM   19  C   UNL     1      44.864 -18.321   7.875  1.00  0.00     0.050 C 
HETATM   20  C   UNL     1      43.920 -16.393   6.635  1.00  0.00     0.011 A 
HETATM   21  C   UNL     1      43.376 -15.762   5.513  1.00  0.00     0.030 A 
BRANCH  17  22
HETATM   22  N   UNL     1      44.812 -19.708   5.091  1.00  0.00    -0.327 N 
HETATM   23  C   UNL     1      44.384 -20.891   5.661  1.00  0.00     0.218 C 
HETATM   24  C   UNL     1      45.086 -22.088   5.065  1.00  0.00     0.117 C 
HETATM   25  O   UNL     1      43.559 -21.032   6.554  1.00  0.00    -0.274 OA
HETATM   26  H   UNL     1      45.709 -19.763   4.625  1.00  0.00     0.169 HD
ENDBRANCH  17  22
ENDBRANCH  12  15
ENDBRANCH   1  11
BRANCH   8  27
HETATM   27  C   UNL     1      40.682 -14.865  -2.810  1.00  0.00     0.409 C 
HETATM   28  F   UNL     1      40.613 -16.217  -2.802  1.00  0.00    -0.169 F 
HETATM   29  F   UNL     1      40.177 -14.466  -4.007  1.00  0.00    -0.169 F 
HETATM   30  F   UNL     1      41.987 -14.530  -2.803  1.00  0.00    -0.169 F 
ENDBRANCH   8  27
BRANCH   6  31
HETATM   31  C   UNL     1      41.240 -11.280  -2.959  1.00  0.00     0.075 A 
HETATM   32  O   UNL     1      40.393 -11.235  -4.030  1.00  0.00    -0.325 OA
HETATM   33  C   UNL     1      41.093 -10.713  -5.070  1.00  0.00     0.142 A 
HETATM   34  C   UNL     1      42.380 -10.423  -4.687  1.00  0.00     0.027 A 
HETATM   35  C   UNL     1      42.477 -10.787  -3.323  1.00  0.00     0.037 A 
ENDBRANCH   6  31
TORSDOF 5
ENDMDL
MODEL 9
REMARK VINA RESULT:      -8.0      2.845     10.325
REMARK  5 active torsions:
REMARK  status: ('A' for Active; 'I' for Inactive)
REMARK    1  A    between atoms: C_3  and  N_4 
REMARK       I    between atoms: N_4  and  C_5 
REMARK    2  A    between atoms: C_9  and  N_10 
REMARK       I    between atoms: N_10  and  C_11 
REMARK    3  A    between atoms: C_11  and  C_12 
REMARK    4  A    between atoms: C_17  and  C_18 
REMARK    5  A    between atoms: C_24  and  C_25 
ROOT
HETATM    1  C   UNL     1      40.774 -14.776  -0.057  1.00  0.00     0.148 A 
HETATM    2  N   UNL     1      40.913 -14.481   1.259  1.00  0.00    -0.165 NA
HETATM    3  N   UNL     1      41.481 -15.594   1.760  1.00  0.00    -0.240 N 
HETATM    4  C   UNL     1      41.585 -16.620   0.867  1.00  0.00     0.123 A 
HETATM    5  N   UNL     1      42.026 -17.833   1.255  1.00  0.00    -0.364 N 
HETATM    6  C   UNL     1      41.951 -18.280   2.651  1.00  0.00     0.143 C 
HETATM    7  C   UNL     1      41.517 -17.156   3.620  1.00  0.00     0.068 C 
HETATM    8  C   UNL     1      41.857 -15.733   3.152  1.00  0.00     0.221 C 
HETATM    9  C   UNL     1      41.204 -16.103  -0.340  1.00  0.00     0.089 A 
HETATM   10  H   UNL     1      42.056 -18.600   0.583  1.00  0.00     0.162 HD
ENDROOT
BRANCH   1  11
HETATM   11  C   UNL     1      40.211 -13.825  -1.031  1.00  0.00     0.276 C 
HETATM   12  N   UNL     1      38.840 -13.696  -0.910  1.00  0.00    -0.322 N 
HETATM   13  H   UNL     1      38.441 -14.267  -0.170  1.00  0.00     0.169 HD
HETATM   14  O   UNL     1      40.927 -13.263  -1.853  1.00  0.00    -0.266 OA
BRANCH  12  15
HETATM   15  C   UNL     1      37.967 -12.937  -1.713  1.00  0.00     0.037 A 
HETATM   16  C   UNL     1      37.643 -13.263  -3.031  1.00  0.00     0.059 A 
HETATM   17  C   UNL     1      36.728 -12.503  -3.789  1.00  0.00     0.042 A 
HETATM   18  C   UNL     1      36.180 -11.340  -3.226  1.00  0.00    -0.035 A 
HETATM   19  C   UNL     1      35.296 -10.365  -3.954  1.00  0.00     0.050 C 
HETATM   20  C   UNL     1      36.500 -11.024  -1.890  1.00  0.00     0.011 A 
HETATM   21  C   UNL     1      37.383 -11.810  -1.144  1.00  0.00     0.030 A 
BRANCH  17  22
HETATM   22  N   UNL     1      36.500 -12.996  -5.096  1.00  0.00    -0.327 N 
HETATM   23  C   UNL     1      35.425 -13.727  -5.563  1.00  0.00     0.218 C 
HETATM   24  C   UNL     1      35.535 -14.007  -7.043  1.00  0.00     0.117 C 
HETATM   25  O   UNL     1      34.474 -14.149  -4.917  1.00  0.00    -0.274 OA
HETATM   26  H   UNL     1      37.323 -13.029  -5.686  1.00  0.00     0.169 HD
ENDBRANCH  17  22
ENDBRANCH  12  15
ENDBRANCH   1  11
BRANCH   8  27
HETATM   27  C   UNL     1      43.312 -15.365   3.331  1.00  0.00     0.409 C 
HETATM   28  F   UNL     1      43.495 -14.024   3.313  1.00  0.00    -0.169 F 
HETATM   29  F   UNL     1      43.752 -15.792   4.543  1.00  0.00    -0.169 F 
HETATM   30  F   UNL     1      44.135 -15.895   2.406  1.00  0.00    -0.169 F 
ENDBRANCH   8  27
BRANCH   6  31
HETATM   31  C   UNL     1      43.179 -18.989   3.126  1.00  0.00     0.075 A 
HETATM   32  O   UNL     1      43.438 -18.915   4.465  1.00  0.00    -0.325 OA
HETATM   33  C   UNL     1      44.553 -19.654   4.698  1.00  0.00     0.142 A 
HETATM   34  C   UNL     1      45.019 -20.202   3.527  1.00  0.00     0.027 A 
HETATM   35  C   UNL     1      44.133 -19.775   2.511  1.00  0.00     0.037 A 
ENDBRANCH   6  31
TORSDOF 5
ENDMDL
MODEL 10
REMARK VINA RESULT:      -8.0      2.901     10.133
REMARK  5 active torsions:
REMARK  status: ('A' for Active; 'I' for Inactive)
REMARK    1  A    between atoms: C_3  and  N_4 
REMARK       I    between atoms: N_4  and  C_5 
REMARK    2  A    between atoms: C_9  and  N_10 
REMARK       I    between atoms: N_10  and  C_11 
REMARK    3  A    between atoms: C_11  and  C_12 
REMARK    4  A    between atoms: C_17  and  C_18 
REMARK    5  A    between atoms: C_24  and  C_25 
ROOT
HETATM    1  C   UNL     1      40.791 -15.059   0.079  1.00  0.00     0.148 A 
HETATM    2  N   UNL     1      40.940 -14.411   1.259  1.00  0.00    -0.165 NA
HETATM    3  N   UNL     1      41.467 -15.356   2.060  1.00  0.00    -0.240 N 
HETATM    4  C   UNL     1      41.535 -16.595   1.493  1.00  0.00     0.123 A 
HETATM    5  N   UNL     1      41.931 -17.665   2.211  1.00  0.00    -0.364 N 
HETATM    6  C   UNL     1      41.839 -17.697   3.676  1.00  0.00     0.143 C 
HETATM    7  C   UNL     1      41.446 -16.332   4.284  1.00  0.00     0.068 C 
HETATM    8  C   UNL     1      41.838 -15.111   3.439  1.00  0.00     0.221 C 
HETATM    9  C   UNL     1      41.173 -16.427   0.185  1.00  0.00     0.089 A 
HETATM   10  H   UNL     1      41.933 -18.590   1.782  1.00  0.00     0.162 HD
ENDROOT
BRANCH   1  11
HETATM   11  C   UNL     1      40.262 -14.402  -1.130  1.00  0.00     0.276 C 
HETATM   12  N   UNL     1      38.887 -14.500  -1.225  1.00  0.00    -0.322 N 
HETATM   13  H   UNL     1      38.460 -14.999  -0.448  1.00  0.00     0.169 HD
HETATM   14  O   UNL     1      41.014 -13.870  -1.940  1.00  0.00    -0.266 OA
BRANCH  12  15
HETATM   15  C   UNL     1      38.057 -14.055  -2.271  1.00  0.00     0.037 A 
HETATM   16  C   UNL     1      37.640 -12.731  -2.422  1.00  0.00     0.059 A 
HETATM   17  C   UNL     1      36.846 -12.313  -3.509  1.00  0.00     0.042 A 
HETATM   18  C   UNL     1      36.398 -13.272  -4.432  1.00  0.00    -0.035 A 
HETATM   19  C   UNL     1      35.444 -12.999  -5.562  1.00  0.00     0.050 C 
HETATM   20  C   UNL     1      36.833 -14.604  -4.282  1.00  0.00     0.011 A 
HETATM   21  C   UNL     1      37.649 -14.992  -3.215  1.00  0.00     0.030 A 
BRANCH  17  22
HETATM   22  N   UNL     1      36.542 -10.931  -3.515  1.00  0.00    -0.327 N 
HETATM   23  C   UNL     1      35.445 -10.289  -2.973  1.00  0.00     0.218 C 
HETATM   24  C   UNL     1      35.529  -8.791  -3.142  1.00  0.00     0.117 C 
HETATM   25  O   UNL     1      34.477 -10.803  -2.428  1.00  0.00    -0.274 OA
HETATM   26  H   UNL     1      37.056 -10.387  -4.197  1.00  0.00     0.169 HD
ENDBRANCH  17  22
ENDBRANCH  12  15
ENDBRANCH   1  11
BRANCH   8  27
HETATM   27  C   UNL     1      43.305 -14.758   3.522  1.00  0.00     0.409 C 
HETATM   28  F   UNL     1      43.528 -13.465   3.188  1.00  0.00    -0.169 F 
HETATM   29  F   UNL     1      43.744 -14.902   4.799  1.00  0.00    -0.169 F 
HETATM   30  F   UNL     1      44.101 -15.517   2.745  1.00  0.00    -0.169 F 
ENDBRANCH   8  27
BRANCH   6  31
HETATM   31  C   UNL     1      43.041 -18.286   4.344  1.00  0.00     0.075 A 
HETATM   32  O   UNL     1      43.652 -19.316   3.686  1.00  0.00    -0.325 OA
HETATM   33  C   UNL     1      44.736 -19.672   4.422  1.00  0.00     0.142 A 
HETATM   34  C   UNL     1      44.832 -18.889   5.547  1.00  0.00     0.027 A 
HETATM   35  C   UNL     1      43.739 -17.992   5.498  1.00  0.00     0.037 A 
ENDBRANCH   6  31
TORSDOF 5
ENDMDL
