MODEL 1
REMARK VINA RESULT:      -8.1      0.000      0.000
REMARK  5 active torsions:
REMARK  status: ('A' for Active; 'I' for Inactive)
REMARK    1  A    between atoms: C_4  and  C_5 
REMARK       I    between atoms: C_5  and  N_6 
REMARK    2  A    between atoms: N_6  and  C_7 
REMARK    3  A    between atoms: C_10  and  C_11 
REMARK    4  A    between atoms: C_18  and  N_19 
REMARK       I    between atoms: N_19  and  C_20 
REMARK    5  A    between atoms: C_20  and  C_21 
ROOT
HETATM    1  C   UNL     1      40.578 -13.939   2.141  1.00  0.00     0.139 A 
HETATM    2  N   UNL     1      40.868 -12.940   2.959  1.00  0.00    -0.228 NA
HETATM    3  C   UNL     1      41.598 -13.483   3.992  1.00  0.00     0.088 A 
HETATM    4  C   UNL     1      41.757 -14.848   3.811  1.00  0.00     0.063 A 
HETATM    5  N   UNL     1      41.106 -15.110   2.636  1.00  0.00    -0.338 N 
HETATM    6  H   UNL     1      41.002 -16.022   2.219  1.00  0.00     0.167 HD
HETATM    7  C   UNL     1      42.155 -12.869   5.128  1.00  0.00     0.063 A 
HETATM    8  C   UNL     1      42.853 -13.660   6.051  1.00  0.00     0.037 A 
HETATM    9  C   UNL     1      42.988 -15.041   5.828  1.00  0.00     0.032 A 
HETATM   10  C   UNL     1      42.443 -15.669   4.702  1.00  0.00     0.034 A 
ENDROOT
BRANCH   1  11
HETATM   11  C   UNL     1      39.778 -13.862   0.914  1.00  0.00     0.010 A 
HETATM   12  C   UNL     1      38.389 -14.043   0.916  1.00  0.00     0.017 A 
HETATM   13  C   UNL     1      37.641 -13.908  -0.260  1.00  0.00     0.030 A 
HETATM   14  C   UNL     1      38.263 -13.594  -1.467  1.00  0.00     0.035 A 
HETATM   15  C   UNL     1      39.654 -13.450  -1.485  1.00  0.00     0.030 A 
HETATM   16  C   UNL     1      40.403 -13.582  -0.307  1.00  0.00     0.017 A 
BRANCH  14  17
HETATM   17  N   UNL     1      37.571 -13.401  -2.677  1.00  0.00    -0.321 N 
HETATM   18  C   UNL     1      37.181 -14.357  -3.601  1.00  0.00     0.279 C 
HETATM   19  O   UNL     1      37.408 -15.560  -3.520  1.00  0.00    -0.265 OA
HETATM   20  H   UNL     1      37.274 -12.456  -2.896  1.00  0.00     0.169 HD
BRANCH  18  21
HETATM   21  C   UNL     1      36.432 -13.795  -4.712  1.00  0.00     0.142 A 
HETATM   22  O   UNL     1      36.026 -14.610  -5.738  1.00  0.00    -0.317 OA
HETATM   23  C   UNL     1      35.360 -13.827  -6.628  1.00  0.00     0.143 A 
HETATM   24  C   UNL     1      35.333 -12.522  -6.199  1.00  0.00     0.027 A 
HETATM   25  C   UNL     1      36.023 -12.500  -4.964  1.00  0.00     0.045 A 
ENDBRANCH  18  21
ENDBRANCH  14  17
ENDBRANCH   1  11
BRANCH   8  26
HETATM   26  N   UNL     1      43.449 -13.161   7.225  1.00  0.00    -0.321 N 
HETATM   27  C   UNL     1      44.783 -13.164   7.589  1.00  0.00     0.279 C 
HETATM   28  O   UNL     1      45.706 -13.622   6.925  1.00  0.00    -0.265 OA
HETATM   29  H   UNL     1      42.834 -12.735   7.910  1.00  0.00     0.169 HD
BRANCH  27  30
HETATM   30  C   UNL     1      44.996 -12.546   8.889  1.00  0.00     0.142 A 
HETATM   31  O   UNL     1      44.423 -13.109  10.004  1.00  0.00    -0.317 OA
HETATM   32  C   UNL     1      44.777 -12.341  11.067  1.00  0.00     0.143 A 
HETATM   33  C   UNL     1      45.568 -11.293  10.663  1.00  0.00     0.027 A 
HETATM   34  C   UNL     1      45.711 -11.423   9.261  1.00  0.00     0.045 A 
ENDBRANCH  27  30
ENDBRANCH   8  26
TORSDOF 5
ENDMDL
MODEL 2
REMARK VINA RESULT:      -7.7      3.335      4.125
REMARK  5 active torsions:
REMARK  status: ('A' for Active; 'I' for Inactive)
REMARK    1  A    between atoms: C_4  and  C_5 
REMARK       I    between atoms: C_5  and  N_6 
REMARK    2  A    between atoms: N_6  and  C_7 
REMARK    3  A    between atoms: C_10  and  C_11 
REMARK    4  A    between atoms: C_18  and  N_19 
REMARK       I    between atoms: N_19  and  C_20 
REMARK    5  A    between atoms: C_20  and  C_21 
ROOT
HETATM    1  C   UNL     1      40.794 -15.407  -0.198  1.00  0.00     0.139 A 
HETATM    2  N   UNL     1      40.521 -15.497   1.093  1.00  0.00    -0.228 NA
HETATM    3  C   UNL     1      41.538 -16.234   1.656  1.00  0.00     0.088 A 
HETATM    4  C   UNL     1      42.457 -16.612   0.689  1.00  0.00     0.063 A 
HETATM    5  N   UNL     1      41.966 -16.078  -0.471  1.00  0.00    -0.338 N 
HETATM    6  H   UNL     1      42.379 -16.186  -1.383  1.00  0.00     0.167 HD
HETATM    7  C   UNL     1      41.742 -16.627   2.991  1.00  0.00     0.063 A 
HETATM    8  C   UNL     1      42.870 -17.397   3.306  1.00  0.00     0.037 A 
HETATM    9  C   UNL     1      43.773 -17.760   2.293  1.00  0.00     0.032 A 
HETATM   10  C   UNL     1      43.589 -17.376   0.960  1.00  0.00     0.034 A 
ENDROOT
BRANCH   1  11
HETATM   11  C   UNL     1      39.977 -14.749  -1.223  1.00  0.00     0.010 A 
HETATM   12  C   UNL     1      40.302 -14.802  -2.584  1.00  0.00     0.017 A 
HETATM   13  C   UNL     1      39.474 -14.213  -3.548  1.00  0.00     0.030 A 
HETATM   14  C   UNL     1      38.305 -13.553  -3.175  1.00  0.00     0.035 A 
HETATM   15  C   UNL     1      37.993 -13.462  -1.814  1.00  0.00     0.030 A 
HETATM   16  C   UNL     1      38.820 -14.054  -0.850  1.00  0.00     0.017 A 
BRANCH  14  17
HETATM   17  N   UNL     1      37.405 -12.976  -4.090  1.00  0.00    -0.321 N 
HETATM   18  C   UNL     1      36.332 -13.577  -4.729  1.00  0.00     0.279 C 
HETATM   19  O   UNL     1      36.001 -14.752  -4.613  1.00  0.00    -0.265 OA
HETATM   20  H   UNL     1      37.514 -11.986  -4.286  1.00  0.00     0.169 HD
BRANCH  18  21
HETATM   21  C   UNL     1      35.587 -12.654  -5.568  1.00  0.00     0.142 A 
HETATM   22  O   UNL     1      34.303 -12.961  -5.941  1.00  0.00    -0.317 OA
HETATM   23  C   UNL     1      33.858 -11.937  -6.715  1.00  0.00     0.143 A 
HETATM   24  C   UNL     1      34.831 -10.976  -6.854  1.00  0.00     0.027 A 
HETATM   25  C   UNL     1      35.945 -11.436  -6.114  1.00  0.00     0.045 A 
ENDBRANCH  18  21
ENDBRANCH  14  17
ENDBRANCH   1  11
BRANCH   8  26
HETATM   26  N   UNL     1      43.176 -17.853   4.603  1.00  0.00    -0.321 N 
HETATM   27  C   UNL     1      43.376 -17.116   5.755  1.00  0.00     0.279 C 
HETATM   28  O   UNL     1      43.322 -15.895   5.844  1.00  0.00    -0.265 OA
HETATM   29  H   UNL     1      43.264 -18.855   4.730  1.00  0.00     0.169 HD
BRANCH  27  30
HETATM   30  C   UNL     1      43.671 -17.963   6.901  1.00  0.00     0.142 A 
HETATM   31  O   UNL     1      43.649 -19.329   6.751  1.00  0.00    -0.317 OA
HETATM   32  C   UNL     1      43.954 -19.870   7.959  1.00  0.00     0.143 A 
HETATM   33  C   UNL     1      44.174 -18.881   8.888  1.00  0.00     0.027 A 
HETATM   34  C   UNL     1      43.992 -17.653   8.209  1.00  0.00     0.045 A 
ENDBRANCH  27  30
ENDBRANCH   8  26
TORSDOF 5
ENDMDL
MODEL 3
REMARK VINA RESULT:      -7.6      3.316     12.809
REMARK  5 active torsions:
REMARK  status: ('A' for Active; 'I' for Inactive)
REMARK    1  A    between atoms: C_4  and  C_5 
REMARK       I    between atoms: C_5  and  N_6 
REMARK    2  A    between atoms: N_6  and  C_7 
REMARK    3  A    between atoms: C_10  and  C_11 
REMARK    4  A    between atoms: C_18  and  N_19 
REMARK       I    between atoms: N_19  and  C_20 
REMARK    5  A    between atoms: C_20  and  C_21 
ROOT
HETATM    1  C   UNL     1      39.877 -11.633   5.322  1.00  0.00     0.139 A 
HETATM    2  N   UNL     1      40.317 -12.590   4.522  1.00  0.00    -0.228 NA
HETATM    3  C   UNL     1      39.600 -12.480   3.351  1.00  0.00     0.088 A 
HETATM    4  C   UNL     1      38.693 -11.435   3.434  1.00  0.00     0.063 A 
HETATM    5  N   UNL     1      38.888 -10.916   4.685  1.00  0.00    -0.338 N 
HETATM    6  H   UNL     1      38.367 -10.153   5.087  1.00  0.00     0.167 HD
HETATM    7  C   UNL     1      39.666 -13.245   2.173  1.00  0.00     0.063 A 
HETATM    8  C   UNL     1      38.804 -12.930   1.114  1.00  0.00     0.037 A 
HETATM    9  C   UNL     1      37.898 -11.864   1.242  1.00  0.00     0.032 A 
HETATM   10  C   UNL     1      37.820 -11.090   2.406  1.00  0.00     0.034 A 
ENDROOT
BRANCH   1  11
HETATM   11  C   UNL     1      40.311 -11.373   6.698  1.00  0.00     0.010 A 
HETATM   12  C   UNL     1      41.603 -10.924   7.000  1.00  0.00     0.017 A 
HETATM   13  C   UNL     1      41.976 -10.628   8.318  1.00  0.00     0.030 A 
HETATM   14  C   UNL     1      41.068 -10.779   9.365  1.00  0.00     0.035 A 
HETATM   15  C   UNL     1      39.789 -11.264   9.076  1.00  0.00     0.030 A 
HETATM   16  C   UNL     1      39.415 -11.557   7.758  1.00  0.00     0.017 A 
BRANCH  14  17
HETATM   17  N   UNL     1      41.359 -10.461  10.705  1.00  0.00    -0.321 N 
HETATM   18  C   UNL     1      42.355 -10.986  11.512  1.00  0.00     0.279 C 
HETATM   19  O   UNL     1      43.150 -11.860  11.183  1.00  0.00    -0.265 OA
HETATM   20  H   UNL     1      40.809  -9.725  11.136  1.00  0.00     0.169 HD
BRANCH  18  21
HETATM   21  C   UNL     1      42.392 -10.377  12.830  1.00  0.00     0.142 A 
HETATM   22  O   UNL     1      41.395 -10.648  13.732  1.00  0.00    -0.317 OA
HETATM   23  C   UNL     1      41.680  -9.949  14.862  1.00  0.00     0.143 A 
HETATM   24  C   UNL     1      42.840  -9.228  14.706  1.00  0.00     0.027 A 
HETATM   25  C   UNL     1      43.301  -9.504  13.397  1.00  0.00     0.045 A 
ENDBRANCH  18  21
ENDBRANCH  14  17
ENDBRANCH   1  11
BRANCH   8  26
HETATM   26  N   UNL     1      38.774 -13.625  -0.111  1.00  0.00    -0.321 N 
HETATM   27  C   UNL     1      39.479 -13.367  -1.272  1.00  0.00     0.279 C 
HETATM   28  O   UNL     1      40.277 -12.452  -1.437  1.00  0.00    -0.265 OA
HETATM   29  H   UNL     1      38.158 -14.429  -0.170  1.00  0.00     0.169 HD
BRANCH  27  30
HETATM   30  C   UNL     1      39.170 -14.324  -2.323  1.00  0.00     0.142 A 
HETATM   31  O   UNL     1      37.871 -14.458  -2.750  1.00  0.00    -0.317 OA
HETATM   32  C   UNL     1      37.864 -15.407  -3.723  1.00  0.00     0.143 A 
HETATM   33  C   UNL     1      39.134 -15.889  -3.934  1.00  0.00     0.027 A 
HETATM   34  C   UNL     1      39.976 -15.194  -3.033  1.00  0.00     0.045 A 
ENDBRANCH  27  30
ENDBRANCH   8  26
TORSDOF 5
ENDMDL
MODEL 4
REMARK VINA RESULT:      -7.6      4.155     12.834
REMARK  5 active torsions:
REMARK  status: ('A' for Active; 'I' for Inactive)
REMARK    1  A    between atoms: C_4  and  C_5 
REMARK       I    between atoms: C_5  and  N_6 
REMARK    2  A    between atoms: N_6  and  C_7 
REMARK    3  A    between atoms: C_10  and  C_11 
REMARK    4  A    between atoms: C_18  and  N_19 
REMARK       I    between atoms: N_19  and  C_20 
REMARK    5  A    between atoms: C_20  and  C_21 
ROOT
HETATM    1  C   UNL     1      41.812 -11.712   6.596  1.00  0.00     0.139 A 
HETATM    2  N   UNL     1      41.236 -11.262   5.493  1.00  0.00    -0.228 NA
HETATM    3  C   UNL     1      41.663 -12.078   4.470  1.00  0.00     0.088 A 
HETATM    4  C   UNL     1      42.527 -13.050   4.951  1.00  0.00     0.063 A 
HETATM    5  N   UNL     1      42.603 -12.798   6.295  1.00  0.00    -0.338 N 
HETATM    6  H   UNL     1      43.174 -13.307   6.951  1.00  0.00     0.167 HD
HETATM    7  C   UNL     1      41.359 -12.045   3.097  1.00  0.00     0.063 A 
HETATM    8  C   UNL     1      41.945 -12.997   2.252  1.00  0.00     0.037 A 
HETATM    9  C   UNL     1      42.817 -13.962   2.782  1.00  0.00     0.032 A 
HETATM   10  C   UNL     1      43.129 -14.012   4.146  1.00  0.00     0.034 A 
ENDROOT
BRANCH   1  11
HETATM   11  C   UNL     1      41.693 -11.141   7.942  1.00  0.00     0.010 A 
HETATM   12  C   UNL     1      40.456 -10.784   8.493  1.00  0.00     0.017 A 
HETATM   13  C   UNL     1      40.363 -10.294   9.803  1.00  0.00     0.030 A 
HETATM   14  C   UNL     1      41.504 -10.145  10.589  1.00  0.00     0.035 A 
HETATM   15  C   UNL     1      42.747 -10.463  10.032  1.00  0.00     0.030 A 
HETATM   16  C   UNL     1      42.840 -10.956   8.723  1.00  0.00     0.017 A 
BRANCH  14  17
HETATM   17  N   UNL     1      41.482  -9.700  11.924  1.00  0.00    -0.321 N 
HETATM   18  C   UNL     1      41.129 -10.414  13.057  1.00  0.00     0.279 C 
HETATM   19  O   UNL     1      40.741 -11.578  13.074  1.00  0.00    -0.265 OA
HETATM   20  H   UNL     1      41.805  -8.755  12.103  1.00  0.00     0.169 HD
BRANCH  18  21
HETATM   21  C   UNL     1      41.281  -9.643  14.279  1.00  0.00     0.142 A 
HETATM   22  O   UNL     1      40.476  -8.553  14.499  1.00  0.00    -0.317 OA
HETATM   23  C   UNL     1      40.836  -8.029  15.700  1.00  0.00     0.143 A 
HETATM   24  C   UNL     1      41.861  -8.755  16.258  1.00  0.00     0.027 A 
HETATM   25  C   UNL     1      42.148  -9.796  15.344  1.00  0.00     0.045 A 
ENDBRANCH  18  21
ENDBRANCH  14  17
ENDBRANCH   1  11
BRANCH   8  26
HETATM   26  N   UNL     1      41.722 -13.061   0.862  1.00  0.00    -0.321 N 
HETATM   27  C   UNL     1      42.201 -12.229  -0.132  1.00  0.00     0.279 C 
HETATM   28  O   UNL     1      42.926 -11.255   0.037  1.00  0.00    -0.265 OA
HETATM   29  H   UNL     1      41.133 -13.815   0.524  1.00  0.00     0.169 HD
BRANCH  27  30
HETATM   30  C   UNL     1      41.743 -12.634  -1.452  1.00  0.00     0.142 A 
HETATM   31  O   UNL     1      40.394 -12.755  -1.688  1.00  0.00    -0.317 OA
HETATM   32  C   UNL     1      40.248 -13.143  -2.982  1.00  0.00     0.143 A 
HETATM   33  C   UNL     1      41.474 -13.275  -3.588  1.00  0.00     0.027 A 
HETATM   34  C   UNL     1      42.438 -12.948  -2.604  1.00  0.00     0.045 A 
ENDBRANCH  27  30
ENDBRANCH   8  26
TORSDOF 5
ENDMDL
MODEL 5
REMARK VINA RESULT:      -7.5      5.083     11.983
REMARK  5 active torsions:
REMARK  status: ('A' for Active; 'I' for Inactive)
REMARK    1  A    between atoms: C_4  and  C_5 
REMARK       I    between atoms: C_5  and  N_6 
REMARK    2  A    between atoms: N_6  and  C_7 
REMARK    3  A    between atoms: C_10  and  C_11 
REMARK    4  A    between atoms: C_18  and  N_19 
REMARK       I    between atoms: N_19  and  C_20 
REMARK    5  A    between atoms: C_20  and  C_21 
ROOT
HETATM    1  C   UNL     1      40.814 -15.038  -0.353  1.00  0.00     0.139 A 
HETATM    2  N   UNL     1      41.500 -14.394  -1.283  1.00  0.00    -0.228 NA
HETATM    3  C   UNL     1      40.583 -13.665  -2.008  1.00  0.00     0.088 A 
HETATM    4  C   UNL     1      39.303 -13.870  -1.517  1.00  0.00     0.063 A 
HETATM    5  N   UNL     1      39.476 -14.738  -0.473  1.00  0.00    -0.338 N 
HETATM    6  H   UNL     1      38.736 -15.121   0.094  1.00  0.00     0.167 HD
HETATM    7  C   UNL     1      40.771 -12.808  -3.107  1.00  0.00     0.063 A 
HETATM    8  C   UNL     1      39.653 -12.187  -3.680  1.00  0.00     0.037 A 
HETATM    9  C   UNL     1      38.373 -12.425  -3.152  1.00  0.00     0.032 A 
HETATM   10  C   UNL     1      38.167 -13.273  -2.056  1.00  0.00     0.034 A 
ENDROOT
BRANCH   1  11
HETATM   11  C   UNL     1      41.351 -15.975   0.639  1.00  0.00     0.010 A 
HETATM   12  C   UNL     1      40.694 -16.241   1.846  1.00  0.00     0.017 A 
HETATM   13  C   UNL     1      41.198 -17.183   2.752  1.00  0.00     0.030 A 
HETATM   14  C   UNL     1      42.374 -17.878   2.475  1.00  0.00     0.035 A 
HETATM   15  C   UNL     1      43.058 -17.590   1.289  1.00  0.00     0.030 A 
HETATM   16  C   UNL     1      42.551 -16.649   0.382  1.00  0.00     0.017 A 
BRANCH  14  17
HETATM   17  N   UNL     1      42.916 -18.867   3.317  1.00  0.00    -0.321 N 
HETATM   18  C   UNL     1      43.740 -18.697   4.417  1.00  0.00     0.279 C 
HETATM   19  O   UNL     1      44.163 -17.622   4.829  1.00  0.00    -0.265 OA
HETATM   20  H   UNL     1      42.643 -19.828   3.137  1.00  0.00     0.169 HD
BRANCH  18  21
HETATM   21  C   UNL     1      44.059 -19.948   5.081  1.00  0.00     0.142 A 
HETATM   22  O   UNL     1      43.628 -20.164   6.366  1.00  0.00    -0.317 OA
HETATM   23  C   UNL     1      44.068 -21.397   6.732  1.00  0.00     0.143 A 
HETATM   24  C   UNL     1      44.780 -21.979   5.710  1.00  0.00     0.027 A 
HETATM   25  C   UNL     1      44.774 -21.048   4.646  1.00  0.00     0.045 A 
ENDBRANCH  18  21
ENDBRANCH  14  17
ENDBRANCH   1  11
BRANCH   8  26
HETATM   26  N   UNL     1      39.715 -11.315  -4.784  1.00  0.00    -0.321 N 
HETATM   27  C   UNL     1      40.041  -9.971  -4.809  1.00  0.00     0.279 C 
HETATM   28  O   UNL     1      40.339  -9.287  -3.837  1.00  0.00    -0.265 OA
HETATM   29  H   UNL     1      39.497 -11.706  -5.694  1.00  0.00     0.169 HD
BRANCH  27  30
HETATM   30  C   UNL     1      39.995  -9.424  -6.156  1.00  0.00     0.142 A 
HETATM   31  O   UNL     1      40.961  -8.531  -6.553  1.00  0.00    -0.317 OA
HETATM   32  C   UNL     1      40.681  -8.182  -7.836  1.00  0.00     0.143 A 
HETATM   33  C   UNL     1      39.553  -8.831  -8.277  1.00  0.00     0.027 A 
HETATM   34  C   UNL     1      39.109  -9.631  -7.197  1.00  0.00     0.045 A 
ENDBRANCH  27  30
ENDBRANCH   8  26
TORSDOF 5
ENDMDL
MODEL 6
REMARK VINA RESULT:      -7.5      3.191     12.541
REMARK  5 active torsions:
REMARK  status: ('A' for Active; 'I' for Inactive)
REMARK    1  A    between atoms: C_4  and  C_5 
REMARK       I    between atoms: C_5  and  N_6 
REMARK    2  A    between atoms: N_6  and  C_7 
REMARK    3  A    between atoms: C_10  and  C_11 
REMARK    4  A    between atoms: C_18  and  N_19 
REMARK       I    between atoms: N_19  and  C_20 
REMARK    5  A    between atoms: C_20  and  C_21 
ROOT
HETATM    1  C   UNL     1      40.259 -12.654   5.338  1.00  0.00     0.139 A 
HETATM    2  N   UNL     1      39.685 -12.186   4.242  1.00  0.00    -0.228 NA
HETATM    3  C   UNL     1      39.714 -13.209   3.321  1.00  0.00     0.088 A 
HETATM    4  C   UNL     1      40.326 -14.330   3.859  1.00  0.00     0.063 A 
HETATM    5  N   UNL     1      40.658 -13.955   5.133  1.00  0.00    -0.338 N 
HETATM    6  H   UNL     1      41.148 -14.530   5.800  1.00  0.00     0.167 HD
HETATM    7  C   UNL     1      39.242 -13.249   1.997  1.00  0.00     0.063 A 
HETATM    8  C   UNL     1      39.409 -14.427   1.255  1.00  0.00     0.037 A 
HETATM    9  C   UNL     1      40.036 -15.540   1.840  1.00  0.00     0.032 A 
HETATM   10  C   UNL     1      40.510 -15.518   3.157  1.00  0.00     0.034 A 
ENDROOT
BRANCH   1  11
HETATM   11  C   UNL     1      40.497 -11.918   6.585  1.00  0.00     0.010 A 
HETATM   12  C   UNL     1      39.503 -11.755   7.557  1.00  0.00     0.017 A 
HETATM   13  C   UNL     1      39.773 -11.097   8.764  1.00  0.00     0.030 A 
HETATM   14  C   UNL     1      41.040 -10.582   9.025  1.00  0.00     0.035 A 
HETATM   15  C   UNL     1      42.029 -10.706   8.043  1.00  0.00     0.030 A 
HETATM   16  C   UNL     1      41.759 -11.366   6.836  1.00  0.00     0.017 A 
BRANCH  14  17
HETATM   17  N   UNL     1      41.395  -9.948  10.231  1.00  0.00    -0.321 N 
HETATM   18  C   UNL     1      42.202 -10.432  11.247  1.00  0.00     0.279 C 
HETATM   19  O   UNL     1      42.732 -11.538  11.269  1.00  0.00    -0.265 OA
HETATM   20  H   UNL     1      41.062  -8.999  10.370  1.00  0.00     0.169 HD
BRANCH  18  21
HETATM   21  C   UNL     1      42.393  -9.473  12.321  1.00  0.00     0.142 A 
HETATM   22  O   UNL     1      41.886  -8.204  12.196  1.00  0.00    -0.317 OA
HETATM   23  C   UNL     1      42.212  -7.531  13.331  1.00  0.00     0.143 A 
HETATM   24  C   UNL     1      42.924  -8.340  14.185  1.00  0.00     0.027 A 
HETATM   25  C   UNL     1      43.040  -9.592  13.536  1.00  0.00     0.045 A 
ENDBRANCH  18  21
ENDBRANCH  14  17
ENDBRANCH   1  11
BRANCH   8  26
HETATM   26  N   UNL     1      38.983 -14.586  -0.078  1.00  0.00    -0.321 N 
HETATM   27  C   UNL     1      39.624 -14.210  -1.243  1.00  0.00     0.279 C 
HETATM   28  O   UNL     1      40.712 -13.650  -1.314  1.00  0.00    -0.265 OA
HETATM   29  H   UNL     1      38.087 -15.038  -0.225  1.00  0.00     0.169 HD
BRANCH  27  30
HETATM   30  C   UNL     1      38.853 -14.555  -2.427  1.00  0.00     0.142 A 
HETATM   31  O   UNL     1      39.353 -15.482  -3.310  1.00  0.00    -0.317 OA
HETATM   32  C   UNL     1      38.445 -15.613  -4.312  1.00  0.00     0.143 A 
HETATM   33  C   UNL     1      37.367 -14.788  -4.096  1.00  0.00     0.027 A 
HETATM   34  C   UNL     1      37.628 -14.106  -2.883  1.00  0.00     0.045 A 
ENDBRANCH  27  30
ENDBRANCH   8  26
TORSDOF 5
ENDMDL
MODEL 7
REMARK VINA RESULT:      -7.5      3.654      4.841
REMARK  5 active torsions:
REMARK  status: ('A' for Active; 'I' for Inactive)
REMARK    1  A    between atoms: C_4  and  C_5 
REMARK       I    between atoms: C_5  and  N_6 
REMARK    2  A    between atoms: N_6  and  C_7 
REMARK    3  A    between atoms: C_10  and  C_11 
REMARK    4  A    between atoms: C_18  and  N_19 
REMARK       I    between atoms: N_19  and  C_20 
REMARK    5  A    between atoms: C_20  and  C_21 
ROOT
HETATM    1  C   UNL     1      39.516 -11.436   4.911  1.00  0.00     0.139 A 
HETATM    2  N   UNL     1      40.279 -11.916   5.880  1.00  0.00    -0.228 NA
HETATM    3  C   UNL     1      40.241 -10.992   6.899  1.00  0.00     0.088 A 
HETATM    4  C   UNL     1      39.441  -9.914   6.549  1.00  0.00     0.063 A 
HETATM    5  N   UNL     1      38.995 -10.220   5.292  1.00  0.00    -0.338 N 
HETATM    6  H   UNL     1      38.406  -9.631   4.724  1.00  0.00     0.167 HD
HETATM    7  C   UNL     1      40.872 -11.002   8.156  1.00  0.00     0.063 A 
HETATM    8  C   UNL     1      40.677  -9.915   9.020  1.00  0.00     0.037 A 
HETATM    9  C   UNL     1      39.860  -8.843   8.622  1.00  0.00     0.032 A 
HETATM   10  C   UNL     1      39.222  -8.817   7.377  1.00  0.00     0.034 A 
ENDROOT
BRANCH   1  11
HETATM   11  C   UNL     1      39.276 -12.049   3.600  1.00  0.00     0.010 A 
HETATM   12  C   UNL     1      38.586 -11.382   2.580  1.00  0.00     0.017 A 
HETATM   13  C   UNL     1      38.420 -11.967   1.318  1.00  0.00     0.030 A 
HETATM   14  C   UNL     1      38.935 -13.232   1.047  1.00  0.00     0.035 A 
HETATM   15  C   UNL     1      39.593 -13.921   2.072  1.00  0.00     0.030 A 
HETATM   16  C   UNL     1      39.761 -13.335   3.334  1.00  0.00     0.017 A 
BRANCH  14  17
HETATM   17  N   UNL     1      38.844 -13.863  -0.208  1.00  0.00    -0.321 N 
HETATM   18  C   UNL     1      39.691 -13.729  -1.296  1.00  0.00     0.279 C 
HETATM   19  O   UNL     1      40.673 -12.995  -1.348  1.00  0.00    -0.265 OA
HETATM   20  H   UNL     1      38.095 -14.536  -0.335  1.00  0.00     0.169 HD
BRANCH  18  21
HETATM   21  C   UNL     1      39.315 -14.581  -2.411  1.00  0.00     0.142 A 
HETATM   22  O   UNL     1      38.011 -14.607  -2.836  1.00  0.00    -0.317 OA
HETATM   23  C   UNL     1      37.948 -15.480  -3.876  1.00  0.00     0.143 A 
HETATM   24  C   UNL     1      39.186 -16.023  -4.127  1.00  0.00     0.027 A 
HETATM   25  C   UNL     1      40.068 -15.443  -3.185  1.00  0.00     0.045 A 
ENDBRANCH  18  21
ENDBRANCH  14  17
ENDBRANCH   1  11
BRANCH   8  26
HETATM   26  N   UNL     1      41.259  -9.810  10.298  1.00  0.00    -0.321 N 
HETATM   27  C   UNL     1      41.010 -10.566  11.428  1.00  0.00     0.279 C 
HETATM   28  O   UNL     1      40.207 -11.489  11.511  1.00  0.00    -0.265 OA
HETATM   29  H   UNL     1      41.960  -9.089  10.428  1.00  0.00     0.169 HD
BRANCH  27  30
HETATM   30  C   UNL     1      41.825 -10.146  12.557  1.00  0.00     0.142 A 
HETATM   31  O   UNL     1      41.411 -10.443  13.834  1.00  0.00    -0.317 OA
HETATM   32  C   UNL     1      42.342  -9.940  14.684  1.00  0.00     0.143 A 
HETATM   33  C   UNL     1      43.351  -9.322  13.985  1.00  0.00     0.027 A 
HETATM   34  C   UNL     1      43.020  -9.454  12.615  1.00  0.00     0.045 A 
ENDBRANCH  27  30
ENDBRANCH   8  26
TORSDOF 5
ENDMDL
MODEL 8
REMARK VINA RESULT:      -7.4      3.252     12.851
REMARK  5 active torsions:
REMARK  status: ('A' for Active; 'I' for Inactive)
REMARK    1  A    between atoms: C_4  and  C_5 
REMARK       I    between atoms: C_5  and  N_6 
REMARK    2  A    between atoms: N_6  and  C_7 
REMARK    3  A    between atoms: C_10  and  C_11 
REMARK    4  A    between atoms: C_18  and  N_19 
REMARK       I    between atoms: N_19  and  C_20 
REMARK    5  A    between atoms: C_20  and  C_21 
ROOT
HETATM    1  C   UNL     1      39.116 -13.840  -0.472  1.00  0.00     0.139 A 
HETATM    2  N   UNL     1      38.941 -14.412  -1.651  1.00  0.00    -0.228 NA
HETATM    3  C   UNL     1      38.109 -13.581  -2.368  1.00  0.00     0.088 A 
HETATM    4  C   UNL     1      37.758 -12.475  -1.610  1.00  0.00     0.063 A 
HETATM    5  N   UNL     1      38.406 -12.660  -0.419  1.00  0.00    -0.338 N 
HETATM    6  H   UNL     1      38.346 -12.048   0.378  1.00  0.00     0.167 HD
HETATM    7  C   UNL     1      37.604 -13.711  -3.674  1.00  0.00     0.063 A 
HETATM    8  C   UNL     1      36.752 -12.716  -4.172  1.00  0.00     0.037 A 
HETATM    9  C   UNL     1      36.420 -11.613  -3.368  1.00  0.00     0.032 A 
HETATM   10  C   UNL     1      36.915 -11.465  -2.067  1.00  0.00     0.034 A 
ENDROOT
BRANCH   1  11
HETATM   11  C   UNL     1      39.895 -14.370   0.653  1.00  0.00     0.010 A 
HETATM   12  C   UNL     1      39.291 -15.010   1.742  1.00  0.00     0.017 A 
HETATM   13  C   UNL     1      40.062 -15.559   2.776  1.00  0.00     0.030 A 
HETATM   14  C   UNL     1      41.452 -15.475   2.747  1.00  0.00     0.035 A 
HETATM   15  C   UNL     1      42.061 -14.803   1.683  1.00  0.00     0.030 A 
HETATM   16  C   UNL     1      41.290 -14.256   0.647  1.00  0.00     0.017 A 
BRANCH  14  17
HETATM   17  N   UNL     1      42.290 -16.039   3.728  1.00  0.00    -0.321 N 
HETATM   18  C   UNL     1      42.815 -17.320   3.770  1.00  0.00     0.279 C 
HETATM   19  O   UNL     1      42.604 -18.204   2.945  1.00  0.00    -0.265 OA
HETATM   20  H   UNL     1      42.594 -15.432   4.482  1.00  0.00     0.169 HD
BRANCH  18  21
HETATM   21  C   UNL     1      43.689 -17.534   4.910  1.00  0.00     0.142 A 
HETATM   22  O   UNL     1      43.765 -16.583   5.896  1.00  0.00    -0.317 OA
HETATM   23  C   UNL     1      44.650 -17.038   6.821  1.00  0.00     0.143 A 
HETATM   24  C   UNL     1      45.151 -18.262   6.450  1.00  0.00     0.027 A 
HETATM   25  C   UNL     1      44.533 -18.584   5.219  1.00  0.00     0.045 A 
ENDBRANCH  18  21
ENDBRANCH  14  17
ENDBRANCH   1  11
BRANCH   8  26
HETATM   26  N   UNL     1      36.182 -12.739  -5.459  1.00  0.00    -0.321 N 
HETATM   27  C   UNL     1      35.314 -13.666  -6.006  1.00  0.00     0.279 C 
HETATM   28  O   UNL     1      34.882 -14.664  -5.441  1.00  0.00    -0.265 OA
HETATM   29  H   UNL     1      36.426 -11.980  -6.086  1.00  0.00     0.169 HD
BRANCH  27  30
HETATM   30  C   UNL     1      34.948 -13.331  -7.373  1.00  0.00     0.142 A 
HETATM   31  O   UNL     1      34.169 -14.205  -8.095  1.00  0.00    -0.317 OA
HETATM   32  C   UNL     1      33.982 -13.655  -9.322  1.00  0.00     0.143 A 
HETATM   33  C   UNL     1      34.623 -12.442  -9.411  1.00  0.00     0.027 A 
HETATM   34  C   UNL     1      35.245 -12.232  -8.157  1.00  0.00     0.045 A 
ENDBRANCH  27  30
ENDBRANCH   8  26
TORSDOF 5
ENDMDL
MODEL 9
REMARK VINA RESULT:      -7.2      3.084      4.384
REMARK  5 active torsions:
REMARK  status: ('A' for Active; 'I' for Inactive)
REMARK    1  A    between atoms: C_4  and  C_5 
REMARK       I    between atoms: C_5  and  N_6 
REMARK    2  A    between atoms: N_6  and  C_7 
REMARK    3  A    between atoms: C_10  and  C_11 
REMARK    4  A    between atoms: C_18  and  N_19 
REMARK       I    between atoms: N_19  and  C_20 
REMARK    5  A    between atoms: C_20  and  C_21 
ROOT
HETATM    1  C   UNL     1      39.159 -14.309  -1.066  1.00  0.00     0.139 A 
HETATM    2  N   UNL     1      39.110 -14.059   0.232  1.00  0.00    -0.228 NA
HETATM    3  C   UNL     1      40.149 -14.759   0.802  1.00  0.00     0.088 A 
HETATM    4  C   UNL     1      40.852 -15.461  -0.165  1.00  0.00     0.063 A 
HETATM    5  N   UNL     1      40.209 -15.159  -1.335  1.00  0.00    -0.338 N 
HETATM    6  H   UNL     1      40.446 -15.528  -2.242  1.00  0.00     0.167 HD
HETATM    7  C   UNL     1      40.552 -14.848   2.147  1.00  0.00     0.063 A 
HETATM    8  C   UNL     1      41.653 -15.651   2.472  1.00  0.00     0.037 A 
HETATM    9  C   UNL     1      42.334 -16.347   1.459  1.00  0.00     0.032 A 
HETATM   10  C   UNL     1      41.950 -16.268   0.115  1.00  0.00     0.034 A 
ENDROOT
BRANCH   1  11
HETATM   11  C   UNL     1      38.229 -13.817  -2.089  1.00  0.00     0.010 A 
HETATM   12  C   UNL     1      37.780 -12.491  -2.113  1.00  0.00     0.017 A 
HETATM   13  C   UNL     1      36.937 -12.031  -3.133  1.00  0.00     0.030 A 
HETATM   14  C   UNL     1      36.520 -12.887  -4.150  1.00  0.00     0.035 A 
HETATM   15  C   UNL     1      36.932 -14.223  -4.112  1.00  0.00     0.030 A 
HETATM   16  C   UNL     1      37.778 -14.682  -3.093  1.00  0.00     0.017 A 
BRANCH  14  17
HETATM   17  N   UNL     1      35.710 -12.485  -5.228  1.00  0.00    -0.321 N 
HETATM   18  C   UNL     1      34.347 -12.672  -5.390  1.00  0.00     0.279 C 
HETATM   19  O   UNL     1      33.610 -13.260  -4.605  1.00  0.00    -0.265 OA
HETATM   20  H   UNL     1      36.155 -11.952  -5.968  1.00  0.00     0.169 HD
BRANCH  18  21
HETATM   21  C   UNL     1      33.836 -12.070  -6.610  1.00  0.00     0.142 A 
HETATM   22  O   UNL     1      33.472 -12.873  -7.662  1.00  0.00    -0.317 OA
HETATM   23  C   UNL     1      33.041 -12.054  -8.657  1.00  0.00     0.143 A 
HETATM   24  C   UNL     1      33.125 -10.737  -8.271  1.00  0.00     0.027 A 
HETATM   25  C   UNL     1      33.636 -10.746  -6.952  1.00  0.00     0.045 A 
ENDBRANCH  18  21
ENDBRANCH  14  17
ENDBRANCH   1  11
BRANCH   8  26
HETATM   26  N   UNL     1      42.145 -15.822   3.780  1.00  0.00    -0.321 N 
HETATM   27  C   UNL     1      42.115 -16.952   4.577  1.00  0.00     0.279 C 
HETATM   28  O   UNL     1      41.632 -18.035   4.266  1.00  0.00    -0.265 OA
HETATM   29  H   UNL     1      42.588 -15.020   4.215  1.00  0.00     0.169 HD
BRANCH  27  30
HETATM   30  C   UNL     1      42.735 -16.724   5.873  1.00  0.00     0.142 A 
HETATM   31  O   UNL     1      42.419 -17.550   6.924  1.00  0.00    -0.317 OA
HETATM   32  C   UNL     1      43.127 -17.118   8.000  1.00  0.00     0.143 A 
HETATM   33  C   UNL     1      43.896 -16.029   7.666  1.00  0.00     0.027 A 
HETATM   34  C   UNL     1      43.644 -15.773   6.296  1.00  0.00     0.045 A 
ENDBRANCH  27  30
ENDBRANCH   8  26
TORSDOF 5
ENDMDL
MODEL 10
REMARK VINA RESULT:      -6.9      3.060      4.233
REMARK  5 active torsions:
REMARK  status: ('A' for Active; 'I' for Inactive)
REMARK    1  A    between atoms: C_4  and  C_5 
REMARK       I    between atoms: C_5  and  N_6 
REMARK    2  A    between atoms: N_6  and  C_7 
REMARK    3  A    between atoms: C_10  and  C_11 
REMARK    4  A    between atoms: C_18  and  N_19 
REMARK       I    between atoms: N_19  and  C_20 
REMARK    5  A    between atoms: C_20  and  C_21 
ROOT
HETATM    1  C   UNL     1      39.513 -14.517  -0.729  1.00  0.00     0.139 A 
HETATM    2  N   UNL     1      39.386 -14.432   0.584  1.00  0.00    -0.228 NA
HETATM    3  C   UNL     1      40.390 -15.204   1.124  1.00  0.00     0.088 A 
HETATM    4  C   UNL     1      41.150 -15.784   0.119  1.00  0.00     0.063 A 
HETATM    5  N   UNL     1      40.577 -15.335  -1.040  1.00  0.00    -0.338 N 
HETATM    6  H   UNL     1      40.869 -15.589  -1.970  1.00  0.00     0.167 HD
HETATM    7  C   UNL     1      40.712 -15.463   2.468  1.00  0.00     0.063 A 
HETATM    8  C   UNL     1      41.793 -16.308   2.754  1.00  0.00     0.037 A 
HETATM    9  C   UNL     1      42.533 -16.877   1.705  1.00  0.00     0.032 A 
HETATM   10  C   UNL     1      42.230 -16.628   0.361  1.00  0.00     0.034 A 
ENDROOT
BRANCH   1  11
HETATM   11  C   UNL     1      38.645 -13.896  -1.736  1.00  0.00     0.010 A 
HETATM   12  C   UNL     1      38.382 -14.501  -2.971  1.00  0.00     0.017 A 
HETATM   13  C   UNL     1      37.505 -13.914  -3.891  1.00  0.00     0.030 A 
HETATM   14  C   UNL     1      36.874 -12.706  -3.602  1.00  0.00     0.035 A 
HETATM   15  C   UNL     1      37.161 -12.075  -2.387  1.00  0.00     0.030 A 
HETATM   16  C   UNL     1      38.037 -12.664  -1.465  1.00  0.00     0.017 A 
BRANCH  14  17
HETATM   17  N   UNL     1      35.949 -12.080  -4.459  1.00  0.00    -0.321 N 
HETATM   18  C   UNL     1      34.780 -12.604  -4.984  1.00  0.00     0.279 C 
HETATM   19  O   UNL     1      34.364 -13.744  -4.799  1.00  0.00    -0.265 OA
HETATM   20  H   UNL     1      36.123 -11.109  -4.698  1.00  0.00     0.169 HD
BRANCH  18  21
HETATM   21  C   UNL     1      34.044 -11.646  -5.790  1.00  0.00     0.142 A 
HETATM   22  O   UNL     1      34.146 -10.306  -5.513  1.00  0.00    -0.317 OA
HETATM   23  C   UNL     1      33.360  -9.653  -6.409  1.00  0.00     0.143 A 
HETATM   24  C   UNL     1      32.748 -10.545  -7.256  1.00  0.00     0.027 A 
HETATM   25  C   UNL     1      33.189 -11.830  -6.860  1.00  0.00     0.045 A 
ENDBRANCH  18  21
ENDBRANCH  14  17
ENDBRANCH   1  11
BRANCH   8  26
HETATM   26  N   UNL     1      42.206 -16.645   4.058  1.00  0.00    -0.321 N 
HETATM   27  C   UNL     1      43.041 -15.946   4.910  1.00  0.00     0.279 C 
HETATM   28  O   UNL     1      43.585 -14.876   4.662  1.00  0.00    -0.265 OA
HETATM   29  H   UNL     1      41.853 -17.514   4.444  1.00  0.00     0.169 HD
BRANCH  27  30
HETATM   30  C   UNL     1      43.221 -16.630   6.181  1.00  0.00     0.142 A 
HETATM   31  O   UNL     1      43.164 -18.003   6.221  1.00  0.00    -0.317 OA
HETATM   32  C   UNL     1      43.360 -18.375   7.513  1.00  0.00     0.143 A 
HETATM   33  C   UNL     1      43.542 -17.270   8.310  1.00  0.00     0.027 A 
HETATM   34  C   UNL     1      43.452 -16.146   7.455  1.00  0.00     0.045 A 
ENDBRANCH  27  30
ENDBRANCH   8  26
TORSDOF 5
ENDMDL
