MODEL 1
REMARK VINA RESULT:      -9.6      0.000      0.000
REMARK  5 active torsions:
REMARK  status: ('A' for Active; 'I' for Inactive)
REMARK    1  A    between atoms: C_2  and  O_4 
REMARK    2  A    between atoms: O_4  and  C_5 
REMARK    3  A    between atoms: C_10  and  C_11 
REMARK    4  A    between atoms: C_13  and  N_14 
REMARK    5  A    between atoms: N_14  and  C_15 
ROOT
HETATM    1  C   UNL     1      42.798 -17.723   3.718  1.00  0.00     0.164 A 
HETATM    2  N   UNL     1      41.596 -17.435   3.205  1.00  0.00    -0.215 NA
HETATM    3  C   UNL     1      41.070 -16.227   3.471  1.00  0.00     0.122 A 
HETATM    4  C   UNL     1      41.711 -15.312   4.330  1.00  0.00     0.033 A 
HETATM    5  C   UNL     1      41.189 -14.056   4.740  1.00  0.00     0.017 A 
HETATM    6  C   UNL     1      41.920 -13.215   5.576  1.00  0.00     0.001 A 
HETATM    7  C   UNL     1      43.175 -13.613   6.014  1.00  0.00     0.002 A 
HETATM    8  C   UNL     1      43.683 -14.854   5.621  1.00  0.00     0.032 A 
HETATM    9  C   UNL     1      42.972 -15.712   4.792  1.00  0.00     0.072 A 
HETATM   10  N   UNL     1      43.522 -16.887   4.478  1.00  0.00    -0.228 NA
ENDROOT
BRANCH   3  11
HETATM   11  N   UNL     1      39.792 -15.897   2.927  1.00  0.00    -0.243 NA
HETATM   12  H   UNL     1      39.261 -15.432   3.660  1.00  0.00     0.135 HD
BRANCH  11  13
HETATM   13  C   UNL     1      39.567 -15.147   1.738  1.00  0.00     0.015 A 
HETATM   14  C   UNL     1      38.323 -14.576   1.436  1.00  0.00     0.026 A 
HETATM   15  C   UNL     1      38.082 -13.919   0.223  1.00  0.00     0.034 A 
HETATM   16  C   UNL     1      39.131 -13.884  -0.697  1.00  0.00     0.061 A 
HETATM   17  N   UNL     1      39.230 -13.330  -1.945  1.00  0.00    -0.278 N 
HETATM   18  C   UNL     1      40.366 -14.472  -0.455  1.00  0.00     0.013 A 
HETATM   19  H   UNL     1      38.518 -12.814  -2.449  1.00  0.00     0.189 HD
HETATM   20  N   UNL     1      40.424 -13.520  -2.536  1.00  0.00    -0.186 NA
HETATM   21  C   UNL     1      41.113 -14.213  -1.624  1.00  0.00     0.152 A 
HETATM   22  C   UNL     1      40.585 -15.131   0.768  1.00  0.00     0.039 A 
ENDBRANCH  11  13
ENDBRANCH   3  11
BRANCH   1  23
HETATM   23  C   UNL     1      43.394 -19.027   3.390  1.00  0.00     0.046 A 
HETATM   24  C   UNL     1      44.212 -19.741   4.283  1.00  0.00     0.093 A 
HETATM   25  C   UNL     1      44.791 -20.971   3.944  1.00  0.00     0.038 A 
HETATM   26  C   UNL     1      44.528 -21.535   2.699  1.00  0.00     0.003 A 
HETATM   27  C   UNL     1      43.713 -20.861   1.792  1.00  0.00     0.001 A 
HETATM   28  C   UNL     1      43.160 -19.621   2.133  1.00  0.00     0.018 A 
BRANCH  24  29
HETATM   29  O   UNL     1      44.572 -19.159   5.510  1.00  0.00    -0.278 OA
BRANCH  29  30
HETATM   30  C   UNL     1      43.905 -19.681   6.613  1.00  0.00     0.260 C 
HETATM   31  C   UNL     1      43.576 -18.555   7.547  1.00  0.00     0.126 C 
HETATM   32  O   UNL     1      43.665 -20.861   6.839  1.00  0.00    -0.265 OA
ENDBRANCH  29  30
ENDBRANCH  24  29
ENDBRANCH   1  23
TORSDOF 5
ENDMDL
MODEL 2
REMARK VINA RESULT:      -9.6      1.599      2.584
REMARK  5 active torsions:
REMARK  status: ('A' for Active; 'I' for Inactive)
REMARK    1  A    between atoms: C_2  and  O_4 
REMARK    2  A    between atoms: O_4  and  C_5 
REMARK    3  A    between atoms: C_10  and  C_11 
REMARK    4  A    between atoms: C_13  and  N_14 
REMARK    5  A    between atoms: N_14  and  C_15 
ROOT
HETATM    1  C   UNL     1      43.423 -18.004   5.486  1.00  0.00     0.164 A 
HETATM    2  N   UNL     1      42.240 -17.707   4.934  1.00  0.00    -0.215 NA
HETATM    3  C   UNL     1      41.834 -16.427   4.964  1.00  0.00     0.122 A 
HETATM    4  C   UNL     1      42.576 -15.429   5.625  1.00  0.00     0.033 A 
HETATM    5  C   UNL     1      42.181 -14.074   5.787  1.00  0.00     0.017 A 
HETATM    6  C   UNL     1      43.005 -13.160   6.440  1.00  0.00     0.001 A 
HETATM    7  C   UNL     1      44.228 -13.582   6.940  1.00  0.00     0.002 A 
HETATM    8  C   UNL     1      44.612 -14.918   6.791  1.00  0.00     0.032 A 
HETATM    9  C   UNL     1      43.805 -15.849   6.150  1.00  0.00     0.072 A 
HETATM   10  N   UNL     1      44.238 -17.109   6.066  1.00  0.00    -0.228 NA
ENDROOT
BRANCH   3  11
HETATM   11  N   UNL     1      40.579 -16.089   4.372  1.00  0.00    -0.243 NA
HETATM   12  H   UNL     1      40.098 -15.466   5.018  1.00  0.00     0.135 HD
BRANCH  11  13
HETATM   13  C   UNL     1      40.398 -15.532   3.075  1.00  0.00     0.015 A 
HETATM   14  C   UNL     1      39.463 -14.520   2.818  1.00  0.00     0.026 A 
HETATM   15  C   UNL     1      39.224 -14.041   1.523  1.00  0.00     0.034 A 
HETATM   16  C   UNL     1      39.937 -14.642   0.485  1.00  0.00     0.061 A 
HETATM   17  N   UNL     1      39.946 -14.414  -0.865  1.00  0.00    -0.278 N 
HETATM   18  C   UNL     1      40.842 -15.676   0.691  1.00  0.00     0.013 A 
HETATM   19  H   UNL     1      39.408 -13.725  -1.378  1.00  0.00     0.189 HD
HETATM   20  N   UNL     1      40.774 -15.222  -1.552  1.00  0.00    -0.186 NA
HETATM   21  C   UNL     1      41.320 -15.986  -0.601  1.00  0.00     0.152 A 
HETATM   22  C   UNL     1      41.063 -16.144   1.998  1.00  0.00     0.039 A 
ENDBRANCH  11  13
ENDBRANCH   3  11
BRANCH   1  23
HETATM   23  C   UNL     1      43.889 -19.397   5.414  1.00  0.00     0.046 A 
HETATM   24  C   UNL     1      44.570 -19.919   4.299  1.00  0.00     0.093 A 
HETATM   25  C   UNL     1      44.984 -21.256   4.238  1.00  0.00     0.038 A 
HETATM   26  C   UNL     1      44.754 -22.098   5.322  1.00  0.00     0.003 A 
HETATM   27  C   UNL     1      44.092 -21.612   6.447  1.00  0.00     0.001 A 
HETATM   28  C   UNL     1      43.661 -20.281   6.488  1.00  0.00     0.018 A 
BRANCH  24  29
HETATM   29  O   UNL     1      44.735 -19.125   3.153  1.00  0.00    -0.278 OA
BRANCH  29  30
HETATM   30  C   UNL     1      43.784 -19.340   2.161  1.00  0.00     0.260 C 
HETATM   31  C   UNL     1      43.774 -18.153   1.245  1.00  0.00     0.126 C 
HETATM   32  O   UNL     1      43.028 -20.298   2.061  1.00  0.00    -0.265 OA
ENDBRANCH  29  30
ENDBRANCH  24  29
ENDBRANCH   1  23
TORSDOF 5
ENDMDL
MODEL 3
REMARK VINA RESULT:      -9.5      2.184      4.899
REMARK  5 active torsions:
REMARK  status: ('A' for Active; 'I' for Inactive)
REMARK    1  A    between atoms: C_2  and  O_4 
REMARK    2  A    between atoms: O_4  and  C_5 
REMARK    3  A    between atoms: C_10  and  C_11 
REMARK    4  A    between atoms: C_13  and  N_14 
REMARK    5  A    between atoms: N_14  and  C_15 
ROOT
HETATM    1  C   UNL     1      42.335 -18.022   2.237  1.00  0.00     0.164 A 
HETATM    2  N   UNL     1      41.701 -17.439   3.261  1.00  0.00    -0.215 NA
HETATM    3  C   UNL     1      40.931 -16.369   3.000  1.00  0.00     0.122 A 
HETATM    4  C   UNL     1      40.848 -15.813   1.708  1.00  0.00     0.033 A 
HETATM    5  C   UNL     1      40.136 -14.635   1.359  1.00  0.00     0.017 A 
HETATM    6  C   UNL     1      40.100 -14.184   0.041  1.00  0.00     0.001 A 
HETATM    7  C   UNL     1      40.770 -14.898  -0.942  1.00  0.00     0.002 A 
HETATM    8  C   UNL     1      41.481 -16.051  -0.596  1.00  0.00     0.032 A 
HETATM    9  C   UNL     1      41.537 -16.517   0.712  1.00  0.00     0.072 A 
HETATM   10  N   UNL     1      42.253 -17.616   0.960  1.00  0.00    -0.228 NA
ENDROOT
BRANCH   3  11
HETATM   11  N   UNL     1      40.240 -15.738   4.079  1.00  0.00    -0.243 NA
HETATM   12  H   UNL     1      40.056 -16.454   4.780  1.00  0.00     0.135 HD
BRANCH  11  13
HETATM   13  C   UNL     1      40.690 -14.592   4.792  1.00  0.00     0.015 A 
HETATM   14  C   UNL     1      42.049 -14.279   4.928  1.00  0.00     0.026 A 
HETATM   15  C   UNL     1      42.489 -13.202   5.709  1.00  0.00     0.034 A 
HETATM   16  C   UNL     1      41.513 -12.466   6.379  1.00  0.00     0.061 A 
HETATM   17  N   UNL     1      41.598 -11.375   7.201  1.00  0.00    -0.278 N 
HETATM   18  C   UNL     1      40.158 -12.767   6.305  1.00  0.00     0.013 A 
HETATM   19  H   UNL     1      42.436 -10.877   7.480  1.00  0.00     0.189 HD
HETATM   20  N   UNL     1      40.412 -10.949   7.674  1.00  0.00    -0.186 NA
HETATM   21  C   UNL     1      39.539 -11.797   7.124  1.00  0.00     0.152 A 
HETATM   22  C   UNL     1      39.738 -13.855   5.520  1.00  0.00     0.039 A 
ENDBRANCH  11  13
ENDBRANCH   3  11
BRANCH   1  23
HETATM   23  C   UNL     1      43.142 -19.219   2.515  1.00  0.00     0.046 A 
HETATM   24  C   UNL     1      44.063 -19.292   3.576  1.00  0.00     0.093 A 
HETATM   25  C   UNL     1      44.841 -20.432   3.811  1.00  0.00     0.038 A 
HETATM   26  C   UNL     1      44.683 -21.552   3.000  1.00  0.00     0.003 A 
HETATM   27  C   UNL     1      43.772 -21.521   1.946  1.00  0.00     0.001 A 
HETATM   28  C   UNL     1      43.018 -20.366   1.705  1.00  0.00     0.018 A 
BRANCH  24  29
HETATM   29  O   UNL     1      44.314 -18.151   4.355  1.00  0.00    -0.278 OA
BRANCH  29  30
HETATM   30  C   UNL     1      44.050 -18.310   5.711  1.00  0.00     0.260 C 
HETATM   31  C   UNL     1      45.292 -17.974   6.481  1.00  0.00     0.126 C 
HETATM   32  O   UNL     1      43.009 -18.712   6.218  1.00  0.00    -0.265 OA
ENDBRANCH  29  30
ENDBRANCH  24  29
ENDBRANCH   1  23
TORSDOF 5
ENDMDL
MODEL 4
REMARK VINA RESULT:      -9.4      1.844      2.648
REMARK  5 active torsions:
REMARK  status: ('A' for Active; 'I' for Inactive)
REMARK    1  A    between atoms: C_2  and  O_4 
REMARK    2  A    between atoms: O_4  and  C_5 
REMARK    3  A    between atoms: C_10  and  C_11 
REMARK    4  A    between atoms: C_13  and  N_14 
REMARK    5  A    between atoms: N_14  and  C_15 
ROOT
HETATM    1  C   UNL     1      42.421 -17.343   2.441  1.00  0.00     0.164 A 
HETATM    2  N   UNL     1      42.462 -16.738   1.247  1.00  0.00    -0.215 NA
HETATM    3  C   UNL     1      41.870 -15.537   1.128  1.00  0.00     0.122 A 
HETATM    4  C   UNL     1      41.153 -14.955   2.192  1.00  0.00     0.033 A 
HETATM    5  C   UNL     1      40.421 -13.739   2.130  1.00  0.00     0.017 A 
HETATM    6  C   UNL     1      39.765 -13.240   3.253  1.00  0.00     0.001 A 
HETATM    7  C   UNL     1      39.826 -13.943   4.447  1.00  0.00     0.002 A 
HETATM    8  C   UNL     1      40.535 -15.146   4.504  1.00  0.00     0.032 A 
HETATM    9  C   UNL     1      41.193 -15.668   3.398  1.00  0.00     0.072 A 
HETATM   10  N   UNL     1      41.832 -16.831   3.533  1.00  0.00    -0.228 NA
ENDROOT
BRANCH   3  11
HETATM   11  N   UNL     1      41.910 -14.872  -0.135  1.00  0.00    -0.243 NA
HETATM   12  H   UNL     1      42.815 -15.076  -0.555  1.00  0.00     0.135 HD
BRANCH  11  13
HETATM   13  C   UNL     1      40.949 -15.011  -1.174  1.00  0.00     0.015 A 
HETATM   14  C   UNL     1      41.105 -15.930  -2.221  1.00  0.00     0.026 A 
HETATM   15  C   UNL     1      40.203 -15.998  -3.291  1.00  0.00     0.034 A 
HETATM   16  C   UNL     1      39.151 -15.082  -3.290  1.00  0.00     0.061 A 
HETATM   17  N   UNL     1      38.114 -14.885  -4.162  1.00  0.00    -0.278 N 
HETATM   18  C   UNL     1      38.983 -14.128  -2.295  1.00  0.00     0.013 A 
HETATM   19  H   UNL     1      37.913 -15.404  -5.009  1.00  0.00     0.189 HD
HETATM   20  N   UNL     1      37.293 -13.875  -3.820  1.00  0.00    -0.186 NA
HETATM   21  C   UNL     1      37.824 -13.419  -2.681  1.00  0.00     0.152 A 
HETATM   22  C   UNL     1      39.902 -14.073  -1.233  1.00  0.00     0.039 A 
ENDBRANCH  11  13
ENDBRANCH   3  11
BRANCH   1  23
HETATM   23  C   UNL     1      43.106 -18.636   2.583  1.00  0.00     0.046 A 
HETATM   24  C   UNL     1      44.009 -18.913   3.625  1.00  0.00     0.093 A 
HETATM   25  C   UNL     1      44.672 -20.142   3.730  1.00  0.00     0.038 A 
HETATM   26  C   UNL     1      44.411 -21.146   2.802  1.00  0.00     0.003 A 
HETATM   27  C   UNL     1      43.514 -20.911   1.763  1.00  0.00     0.001 A 
HETATM   28  C   UNL     1      42.875 -19.670   1.653  1.00  0.00     0.018 A 
BRANCH  24  29
HETATM   29  O   UNL     1      44.365 -17.893   4.522  1.00  0.00    -0.278 OA
BRANCH  29  30
HETATM   30  C   UNL     1      44.075 -18.171   5.854  1.00  0.00     0.260 C 
HETATM   31  C   UNL     1      45.325 -17.987   6.663  1.00  0.00     0.126 C 
HETATM   32  O   UNL     1      43.006 -18.559   6.310  1.00  0.00    -0.265 OA
ENDBRANCH  29  30
ENDBRANCH  24  29
ENDBRANCH   1  23
TORSDOF 5
ENDMDL
MODEL 5
REMARK VINA RESULT:      -9.2      3.328      7.544
REMARK  5 active torsions:
REMARK  status: ('A' for Active; 'I' for Inactive)
REMARK    1  A    between atoms: C_2  and  O_4 
REMARK    2  A    between atoms: O_4  and  C_5 
REMARK    3  A    between atoms: C_10  and  C_11 
REMARK    4  A    between atoms: C_13  and  N_14 
REMARK    5  A    between atoms: N_14  and  C_15 
ROOT
HETATM    1  C   UNL     1      41.611 -15.054   0.902  1.00  0.00     0.164 A 
HETATM    2  N   UNL     1      42.699 -15.707   1.328  1.00  0.00    -0.215 NA
HETATM    3  C   UNL     1      42.811 -15.954   2.645  1.00  0.00     0.122 A 
HETATM    4  C   UNL     1      41.864 -15.476   3.572  1.00  0.00     0.033 A 
HETATM    5  C   UNL     1      41.948 -15.609   4.984  1.00  0.00     0.017 A 
HETATM    6  C   UNL     1      40.940 -15.118   5.810  1.00  0.00     0.001 A 
HETATM    7  C   UNL     1      39.840 -14.490   5.244  1.00  0.00     0.002 A 
HETATM    8  C   UNL     1      39.764 -14.348   3.856  1.00  0.00     0.032 A 
HETATM    9  C   UNL     1      40.758 -14.824   3.011  1.00  0.00     0.072 A 
HETATM   10  N   UNL     1      40.616 -14.632   1.698  1.00  0.00    -0.228 NA
ENDROOT
BRANCH   3  11
HETATM   11  N   UNL     1      43.961 -16.656   3.118  1.00  0.00    -0.243 NA
HETATM   12  H   UNL     1      44.262 -16.199   3.976  1.00  0.00     0.135 HD
BRANCH  11  13
HETATM   13  C   UNL     1      44.031 -18.055   3.369  1.00  0.00     0.015 A 
HETATM   14  C   UNL     1      44.275 -18.576   4.646  1.00  0.00     0.026 A 
HETATM   15  C   UNL     1      44.436 -19.950   4.871  1.00  0.00     0.034 A 
HETATM   16  C   UNL     1      44.377 -20.784   3.754  1.00  0.00     0.061 A 
HETATM   17  N   UNL     1      44.485 -22.143   3.625  1.00  0.00    -0.278 N 
HETATM   18  C   UNL     1      44.178 -20.305   2.465  1.00  0.00     0.013 A 
HETATM   19  H   UNL     1      44.632 -22.822   4.363  1.00  0.00     0.189 HD
HETATM   20  N   UNL     1      44.384 -22.584   2.358  1.00  0.00    -0.186 NA
HETATM   21  C   UNL     1      44.194 -21.462   1.656  1.00  0.00     0.152 A 
HETATM   22  C   UNL     1      44.024 -18.923   2.262  1.00  0.00     0.039 A 
ENDBRANCH  11  13
ENDBRANCH   3  11
BRANCH   1  23
HETATM   23  C   UNL     1      41.467 -14.823  -0.543  1.00  0.00     0.046 A 
HETATM   24  C   UNL     1      41.829 -13.614  -1.164  1.00  0.00     0.093 A 
HETATM   25  C   UNL     1      41.661 -13.403  -2.539  1.00  0.00     0.038 A 
HETATM   26  C   UNL     1      41.155 -14.426  -3.335  1.00  0.00     0.003 A 
HETATM   27  C   UNL     1      40.795 -15.641  -2.756  1.00  0.00     0.001 A 
HETATM   28  C   UNL     1      40.945 -15.832  -1.377  1.00  0.00     0.018 A 
BRANCH  24  29
HETATM   29  O   UNL     1      42.255 -12.531  -0.378  1.00  0.00    -0.278 OA
BRANCH  29  30
HETATM   30  C   UNL     1      41.319 -11.511  -0.249  1.00  0.00     0.260 C 
HETATM   31  C   UNL     1      42.029 -10.195  -0.368  1.00  0.00     0.126 C 
HETATM   32  O   UNL     1      40.122 -11.633  -0.018  1.00  0.00    -0.265 OA
ENDBRANCH  29  30
ENDBRANCH  24  29
ENDBRANCH   1  23
TORSDOF 5
ENDMDL
MODEL 6
REMARK VINA RESULT:      -8.8      2.662      4.837
REMARK  5 active torsions:
REMARK  status: ('A' for Active; 'I' for Inactive)
REMARK    1  A    between atoms: C_2  and  O_4 
REMARK    2  A    between atoms: O_4  and  C_5 
REMARK    3  A    between atoms: C_10  and  C_11 
REMARK    4  A    between atoms: C_13  and  N_14 
REMARK    5  A    between atoms: N_14  and  C_15 
ROOT
HETATM    1  C   UNL     1      41.613 -16.374   1.378  1.00  0.00     0.164 A 
HETATM    2  N   UNL     1      42.122 -15.938   0.220  1.00  0.00    -0.215 NA
HETATM    3  C   UNL     1      41.396 -15.064  -0.499  1.00  0.00     0.122 A 
HETATM    4  C   UNL     1      40.102 -14.672  -0.102  1.00  0.00     0.033 A 
HETATM    5  C   UNL     1      39.229 -13.830  -0.842  1.00  0.00     0.017 A 
HETATM    6  C   UNL     1      37.975 -13.485  -0.344  1.00  0.00     0.001 A 
HETATM    7  C   UNL     1      37.573 -13.974   0.890  1.00  0.00     0.002 A 
HETATM    8  C   UNL     1      38.427 -14.814   1.612  1.00  0.00     0.032 A 
HETATM    9  C   UNL     1      39.680 -15.176   1.135  1.00  0.00     0.072 A 
HETATM   10  N   UNL     1      40.426 -15.996   1.879  1.00  0.00    -0.228 NA
ENDROOT
BRANCH   3  11
HETATM   11  N   UNL     1      41.925 -14.581  -1.734  1.00  0.00    -0.243 NA
HETATM   12  H   UNL     1      41.383 -15.006  -2.483  1.00  0.00     0.135 HD
BRANCH  11  13
HETATM   13  C   UNL     1      42.082 -13.211  -2.087  1.00  0.00     0.015 A 
HETATM   14  C   UNL     1      41.815 -12.735  -3.378  1.00  0.00     0.026 A 
HETATM   15  C   UNL     1      42.060 -11.405  -3.745  1.00  0.00     0.034 A 
HETATM   16  C   UNL     1      42.618 -10.574  -2.774  1.00  0.00     0.061 A 
HETATM   17  N   UNL     1      42.970  -9.251  -2.800  1.00  0.00    -0.278 N 
HETATM   18  C   UNL     1      42.937 -11.015  -1.496  1.00  0.00     0.013 A 
HETATM   19  H   UNL     1      42.876  -8.603  -3.574  1.00  0.00     0.189 HD
HETATM   20  N   UNL     1      43.499  -8.801  -1.648  1.00  0.00    -0.186 NA
HETATM   21  C   UNL     1      43.475  -9.877  -0.856  1.00  0.00     0.152 A 
HETATM   22  C   UNL     1      42.688 -12.355  -1.150  1.00  0.00     0.039 A 
ENDBRANCH  11  13
ENDBRANCH   3  11
BRANCH   1  23
HETATM   23  C   UNL     1      42.426 -17.295   2.186  1.00  0.00     0.046 A 
HETATM   24  C   UNL     1      43.032 -16.919   3.398  1.00  0.00     0.093 A 
HETATM   25  C   UNL     1      43.824 -17.803   4.142  1.00  0.00     0.038 A 
HETATM   26  C   UNL     1      43.996 -19.111   3.699  1.00  0.00     0.003 A 
HETATM   27  C   UNL     1      43.402 -19.522   2.508  1.00  0.00     0.001 A 
HETATM   28  C   UNL     1      42.632 -18.623   1.760  1.00  0.00     0.018 A 
BRANCH  24  29
HETATM   29  O   UNL     1      42.955 -15.583   3.826  1.00  0.00    -0.278 OA
BRANCH  29  30
HETATM   30  C   UNL     1      42.238 -15.396   5.003  1.00  0.00     0.260 C 
HETATM   31  C   UNL     1      43.094 -14.626   5.965  1.00  0.00     0.126 C 
HETATM   32  O   UNL     1      41.120 -15.825   5.261  1.00  0.00    -0.265 OA
ENDBRANCH  29  30
ENDBRANCH  24  29
ENDBRANCH   1  23
TORSDOF 5
ENDMDL
MODEL 7
REMARK VINA RESULT:      -8.7      1.530      2.551
REMARK  5 active torsions:
REMARK  status: ('A' for Active; 'I' for Inactive)
REMARK    1  A    between atoms: C_2  and  O_4 
REMARK    2  A    between atoms: O_4  and  C_5 
REMARK    3  A    between atoms: C_10  and  C_11 
REMARK    4  A    between atoms: C_13  and  N_14 
REMARK    5  A    between atoms: N_14  and  C_15 
ROOT
HETATM    1  C   UNL     1      42.306 -16.640   4.825  1.00  0.00     0.164 A 
HETATM    2  N   UNL     1      41.263 -16.706   3.989  1.00  0.00    -0.215 NA
HETATM    3  C   UNL     1      40.591 -15.572   3.728  1.00  0.00     0.122 A 
HETATM    4  C   UNL     1      40.909 -14.358   4.368  1.00  0.00     0.033 A 
HETATM    5  C   UNL     1      40.199 -13.135   4.224  1.00  0.00     0.017 A 
HETATM    6  C   UNL     1      40.615 -11.984   4.888  1.00  0.00     0.001 A 
HETATM    7  C   UNL     1      41.737 -12.034   5.702  1.00  0.00     0.002 A 
HETATM    8  C   UNL     1      42.428 -13.239   5.853  1.00  0.00     0.032 A 
HETATM    9  C   UNL     1      42.030 -14.402   5.207  1.00  0.00     0.072 A 
HETATM   10  N   UNL     1      42.735 -15.516   5.420  1.00  0.00    -0.228 NA
ENDROOT
BRANCH   3  11
HETATM   11  N   UNL     1      39.480 -15.620   2.832  1.00  0.00    -0.243 NA
HETATM   12  H   UNL     1      38.657 -15.327   3.354  1.00  0.00     0.135 HD
BRANCH  11  13
HETATM   13  C   UNL     1      39.404 -14.964   1.571  1.00  0.00     0.015 A 
HETATM   14  C   UNL     1      38.215 -14.398   1.091  1.00  0.00     0.026 A 
HETATM   15  C   UNL     1      38.123 -13.836  -0.188  1.00  0.00     0.034 A 
HETATM   16  C   UNL     1      39.265 -13.893  -0.987  1.00  0.00     0.061 A 
HETATM   17  N   UNL     1      39.512 -13.443  -2.257  1.00  0.00    -0.278 N 
HETATM   18  C   UNL     1      40.451 -14.481  -0.567  1.00  0.00     0.013 A 
HETATM   19  H   UNL     1      38.872 -12.957  -2.874  1.00  0.00     0.189 HD
HETATM   20  N   UNL     1      40.757 -13.700  -2.698  1.00  0.00    -0.186 NA
HETATM   21  C   UNL     1      41.326 -14.328  -1.665  1.00  0.00     0.152 A 
HETATM   22  C   UNL     1      40.521 -15.043   0.720  1.00  0.00     0.039 A 
ENDBRANCH  11  13
ENDBRANCH   3  11
BRANCH   1  23
HETATM   23  C   UNL     1      43.068 -17.872   5.077  1.00  0.00     0.046 A 
HETATM   24  C   UNL     1      44.007 -18.391   4.167  1.00  0.00     0.093 A 
HETATM   25  C   UNL     1      44.705 -19.580   4.412  1.00  0.00     0.038 A 
HETATM   26  C   UNL     1      44.502 -20.262   5.608  1.00  0.00     0.003 A 
HETATM   27  C   UNL     1      43.588 -19.773   6.538  1.00  0.00     0.001 A 
HETATM   28  C   UNL     1      42.877 -18.596   6.271  1.00  0.00     0.018 A 
BRANCH  24  29
HETATM   29  O   UNL     1      44.168 -17.779   2.913  1.00  0.00    -0.278 OA
BRANCH  29  30
HETATM   30  C   UNL     1      43.525 -18.432   1.867  1.00  0.00     0.260 C 
HETATM   31  C   UNL     1      43.108 -17.411   0.851  1.00  0.00     0.126 C 
HETATM   32  O   UNL     1      43.274 -19.629   1.788  1.00  0.00    -0.265 OA
ENDBRANCH  29  30
ENDBRANCH  24  29
ENDBRANCH   1  23
TORSDOF 5
ENDMDL
MODEL 8
REMARK VINA RESULT:      -8.7      2.259      5.262
REMARK  5 active torsions:
REMARK  status: ('A' for Active; 'I' for Inactive)
REMARK    1  A    between atoms: C_2  and  O_4 
REMARK    2  A    between atoms: O_4  and  C_5 
REMARK    3  A    between atoms: C_10  and  C_11 
REMARK    4  A    between atoms: C_13  and  N_14 
REMARK    5  A    between atoms: N_14  and  C_15 
ROOT
HETATM    1  C   UNL     1      41.729 -14.948   3.539  1.00  0.00     0.164 A 
HETATM    2  N   UNL     1      41.769 -14.580   2.252  1.00  0.00    -0.215 NA
HETATM    3  C   UNL     1      42.168 -15.490   1.348  1.00  0.00     0.122 A 
HETATM    4  C   UNL     1      42.615 -16.770   1.731  1.00  0.00     0.033 A 
HETATM    5  C   UNL     1      43.140 -17.760   0.858  1.00  0.00     0.017 A 
HETATM    6  C   UNL     1      43.532 -19.006   1.340  1.00  0.00     0.001 A 
HETATM    7  C   UNL     1      43.409 -19.282   2.694  1.00  0.00     0.002 A 
HETATM    8  C   UNL     1      42.904 -18.304   3.556  1.00  0.00     0.032 A 
HETATM    9  C   UNL     1      42.512 -17.052   3.100  1.00  0.00     0.072 A 
HETATM   10  N   UNL     1      42.057 -16.169   3.991  1.00  0.00    -0.228 NA
ENDROOT
BRANCH   3  11
HETATM   11  N   UNL     1      42.209 -15.119  -0.031  1.00  0.00    -0.243 NA
HETATM   12  H   UNL     1      42.777 -15.813  -0.514  1.00  0.00     0.135 HD
BRANCH  11  13
HETATM   13  C   UNL     1      41.076 -14.888  -0.859  1.00  0.00     0.015 A 
HETATM   14  C   UNL     1      40.018 -14.055  -0.468  1.00  0.00     0.026 A 
HETATM   15  C   UNL     1      38.864 -13.905  -1.246  1.00  0.00     0.034 A 
HETATM   16  C   UNL     1      38.793 -14.650  -2.423  1.00  0.00     0.061 A 
HETATM   17  N   UNL     1      37.830 -14.731  -3.394  1.00  0.00    -0.278 N 
HETATM   18  C   UNL     1      39.799 -15.518  -2.828  1.00  0.00     0.013 A 
HETATM   19  H   UNL     1      36.950 -14.230  -3.432  1.00  0.00     0.189 HD
HETATM   20  N   UNL     1      38.125 -15.588  -4.389  1.00  0.00    -0.186 NA
HETATM   21  C   UNL     1      39.325 -16.062  -4.042  1.00  0.00     0.152 A 
HETATM   22  C   UNL     1      40.948 -15.658  -2.029  1.00  0.00     0.039 A 
ENDBRANCH  11  13
ENDBRANCH   3  11
BRANCH   1  23
HETATM   23  C   UNL     1      41.250 -13.967   4.523  1.00  0.00     0.046 A 
HETATM   24  C   UNL     1      42.112 -13.259   5.380  1.00  0.00     0.093 A 
HETATM   25  C   UNL     1      41.635 -12.346   6.329  1.00  0.00     0.038 A 
HETATM   26  C   UNL     1      40.269 -12.093   6.414  1.00  0.00     0.003 A 
HETATM   27  C   UNL     1      39.386 -12.768   5.574  1.00  0.00     0.001 A 
HETATM   28  C   UNL     1      39.872 -13.696   4.646  1.00  0.00     0.018 A 
BRANCH  24  29
HETATM   29  O   UNL     1      43.484 -13.558   5.385  1.00  0.00    -0.278 OA
BRANCH  29  30
HETATM   30  C   UNL     1      43.899 -14.340   6.458  1.00  0.00     0.260 C 
HETATM   31  C   UNL     1      45.163 -13.755   7.013  1.00  0.00     0.126 C 
HETATM   32  O   UNL     1      43.375 -15.370   6.865  1.00  0.00    -0.265 OA
ENDBRANCH  29  30
ENDBRANCH  24  29
ENDBRANCH   1  23
TORSDOF 5
ENDMDL
MODEL 9
REMARK VINA RESULT:      -8.7      3.136      7.552
REMARK  5 active torsions:
REMARK  status: ('A' for Active; 'I' for Inactive)
REMARK    1  A    between atoms: C_2  and  O_4 
REMARK    2  A    between atoms: O_4  and  C_5 
REMARK    3  A    between atoms: C_10  and  C_11 
REMARK    4  A    between atoms: C_13  and  N_14 
REMARK    5  A    between atoms: N_14  and  C_15 
ROOT
HETATM    1  C   UNL     1      39.936 -14.120   0.907  1.00  0.00     0.164 A 
HETATM    2  N   UNL     1      40.071 -15.356   1.404  1.00  0.00    -0.215 NA
HETATM    3  C   UNL     1      40.405 -15.481   2.700  1.00  0.00     0.122 A 
HETATM    4  C   UNL     1      40.689 -14.360   3.504  1.00  0.00     0.033 A 
HETATM    5  C   UNL     1      41.136 -14.400   4.852  1.00  0.00     0.017 A 
HETATM    6  C   UNL     1      41.365 -13.226   5.566  1.00  0.00     0.001 A 
HETATM    7  C   UNL     1      41.154 -12.001   4.949  1.00  0.00     0.002 A 
HETATM    8  C   UNL     1      40.726 -11.962   3.619  1.00  0.00     0.032 A 
HETATM    9  C   UNL     1      40.496 -13.118   2.884  1.00  0.00     0.072 A 
HETATM   10  N   UNL     1      40.106 -12.992   1.615  1.00  0.00    -0.228 NA
ENDROOT
BRANCH   3  11
HETATM   11  N   UNL     1      40.546 -16.791   3.251  1.00  0.00    -0.243 NA
HETATM   12  H   UNL     1      39.774 -17.352   2.897  1.00  0.00     0.135 HD
BRANCH  11  13
HETATM   13  C   UNL     1      41.707 -17.608   3.156  1.00  0.00     0.015 A 
HETATM   14  C   UNL     1      42.176 -18.105   1.933  1.00  0.00     0.026 A 
HETATM   15  C   UNL     1      43.264 -18.984   1.856  1.00  0.00     0.034 A 
HETATM   16  C   UNL     1      43.847 -19.376   3.061  1.00  0.00     0.061 A 
HETATM   17  N   UNL     1      44.905 -20.200   3.335  1.00  0.00    -0.278 N 
HETATM   18  C   UNL     1      43.388 -18.940   4.297  1.00  0.00     0.013 A 
HETATM   19  H   UNL     1      45.488 -20.697   2.672  1.00  0.00     0.189 HD
HETATM   20  N   UNL     1      45.163 -20.343   4.649  1.00  0.00    -0.186 NA
HETATM   21  C   UNL     1      44.240 -19.572   5.230  1.00  0.00     0.152 A 
HETATM   22  C   UNL     1      42.291 -18.061   4.352  1.00  0.00     0.039 A 
ENDBRANCH  11  13
ENDBRANCH   3  11
BRANCH   1  23
HETATM   23  C   UNL     1      39.528 -13.982  -0.499  1.00  0.00     0.046 A 
HETATM   24  C   UNL     1      40.446 -13.968  -1.565  1.00  0.00     0.093 A 
HETATM   25  C   UNL     1      40.041 -13.810  -2.896  1.00  0.00     0.038 A 
HETATM   26  C   UNL     1      38.685 -13.701  -3.194  1.00  0.00     0.003 A 
HETATM   27  C   UNL     1      37.747 -13.723  -2.165  1.00  0.00     0.001 A 
HETATM   28  C   UNL     1      38.165 -13.856  -0.836  1.00  0.00     0.018 A 
BRANCH  24  29
HETATM   29  O   UNL     1      41.824 -13.982  -1.292  1.00  0.00    -0.278 OA
BRANCH  29  30
HETATM   30  C   UNL     1      42.524 -12.897  -1.811  1.00  0.00     0.260 C 
HETATM   31  C   UNL     1      42.432 -11.761  -0.836  1.00  0.00     0.126 C 
HETATM   32  O   UNL     1      43.080 -12.831  -2.900  1.00  0.00    -0.265 OA
ENDBRANCH  29  30
ENDBRANCH  24  29
ENDBRANCH   1  23
TORSDOF 5
ENDMDL
MODEL 10
REMARK VINA RESULT:      -8.6      1.387      1.632
REMARK  5 active torsions:
REMARK  status: ('A' for Active; 'I' for Inactive)
REMARK    1  A    between atoms: C_2  and  O_4 
REMARK    2  A    between atoms: O_4  and  C_5 
REMARK    3  A    between atoms: C_10  and  C_11 
REMARK    4  A    between atoms: C_13  and  N_14 
REMARK    5  A    between atoms: N_14  and  C_15 
ROOT
HETATM    1  C   UNL     1      43.623 -18.082   3.501  1.00  0.00     0.164 A 
HETATM    2  N   UNL     1      43.152 -17.384   2.460  1.00  0.00    -0.215 NA
HETATM    3  C   UNL     1      42.932 -16.069   2.630  1.00  0.00     0.122 A 
HETATM    4  C   UNL     1      43.105 -15.444   3.881  1.00  0.00     0.033 A 
HETATM    5  C   UNL     1      42.810 -14.086   4.176  1.00  0.00     0.017 A 
HETATM    6  C   UNL     1      43.042 -13.562   5.445  1.00  0.00     0.001 A 
HETATM    7  C   UNL     1      43.568 -14.380   6.434  1.00  0.00     0.002 A 
HETATM    8  C   UNL     1      43.847 -15.719   6.148  1.00  0.00     0.032 A 
HETATM    9  C   UNL     1      43.619 -16.267   4.892  1.00  0.00     0.072 A 
HETATM   10  N   UNL     1      43.896 -17.559   4.707  1.00  0.00    -0.228 NA
ENDROOT
BRANCH   3  11
HETATM   11  N   UNL     1      42.438 -15.305   1.529  1.00  0.00    -0.243 NA
HETATM   12  H   UNL     1      42.673 -15.814   0.679  1.00  0.00     0.135 HD
BRANCH  11  13
HETATM   13  C   UNL     1      41.096 -14.860   1.367  1.00  0.00     0.015 A 
HETATM   14  C   UNL     1      40.018 -15.474   2.020  1.00  0.00     0.026 A 
HETATM   15  C   UNL     1      38.691 -15.092   1.784  1.00  0.00     0.034 A 
HETATM   16  C   UNL     1      38.481 -14.089   0.838  1.00  0.00     0.061 A 
HETATM   17  N   UNL     1      37.336 -13.490   0.385  1.00  0.00    -0.278 N 
HETATM   18  C   UNL     1      39.516 -13.483   0.138  1.00  0.00     0.013 A 
HETATM   19  H   UNL     1      36.384 -13.678   0.677  1.00  0.00     0.189 HD
HETATM   20  N   UNL     1      37.543 -12.553  -0.559  1.00  0.00    -0.186 NA
HETATM   21  C   UNL     1      38.872 -12.550  -0.703  1.00  0.00     0.152 A 
HETATM   22  C   UNL     1      40.841 -13.885   0.387  1.00  0.00     0.039 A 
ENDBRANCH  11  13
ENDBRANCH   3  11
BRANCH   1  23
HETATM   23  C   UNL     1      43.907 -19.511   3.302  1.00  0.00     0.046 A 
HETATM   24  C   UNL     1      44.409 -20.340   4.321  1.00  0.00     0.093 A 
HETATM   25  C   UNL     1      44.698 -21.694   4.106  1.00  0.00     0.038 A 
HETATM   26  C   UNL     1      44.449 -22.260   2.859  1.00  0.00     0.003 A 
HETATM   27  C   UNL     1      43.940 -21.472   1.829  1.00  0.00     0.001 A 
HETATM   28  C   UNL     1      43.679 -20.114   2.048  1.00  0.00     0.018 A 
BRANCH  24  29
HETATM   29  O   UNL     1      44.759 -19.781   5.560  1.00  0.00    -0.278 OA
BRANCH  29  30
HETATM   30  C   UNL     1      44.024 -20.264   6.638  1.00  0.00     0.260 C 
HETATM   31  C   UNL     1      43.820 -19.146   7.616  1.00  0.00     0.126 C 
HETATM   32  O   UNL     1      43.644 -21.416   6.814  1.00  0.00    -0.265 OA
ENDBRANCH  29  30
ENDBRANCH  24  29
ENDBRANCH   1  23
TORSDOF 5
ENDMDL
