MODEL 1
REMARK VINA RESULT:      -8.9      0.000      0.000
REMARK  5 active torsions:
REMARK  status: ('A' for Active; 'I' for Inactive)
REMARK       I    between atoms: C_2  and  N_3 
REMARK    1  A    between atoms: N_3  and  C_4 
REMARK    2  A    between atoms: C_7  and  C_8 
REMARK    3  A    between atoms: C_8  and  N_9 
REMARK    4  A    between atoms: C_12  and  C_13 
REMARK    5  A    between atoms: C_14  and  O_15 
ROOT
HETATM    1  N   UNL     1      41.274 -16.271   1.009  1.00  0.00    -0.060 N 
HETATM    2  H   UNL     1      41.937 -15.494   1.111  1.00  0.00     0.280 HD
HETATM    3  C   UNL     1      42.003 -17.585   1.340  1.00  0.00     0.272 C 
HETATM    4  C   UNL     1      42.564 -17.685   2.777  1.00  0.00     0.190 C 
HETATM    5  O   UNL     1      41.486 -17.722   3.728  1.00  0.00    -0.339 OA
HETATM    6  C   UNL     1      41.219 -16.454   4.165  1.00  0.00     0.077 A 
HETATM    7  C   UNL     1      40.580 -15.546   3.316  1.00  0.00     0.001 A 
HETATM    8  C   UNL     1      40.126 -15.980   1.953  1.00  0.00     0.276 C 
HETATM    9  C   UNL     1      41.599 -16.107   5.458  1.00  0.00     0.037 A 
HETATM   10  C   UNL     1      41.379 -14.809   5.908  1.00  0.00     0.003 A 
HETATM   11  C   UNL     1      40.772 -13.875   5.069  1.00  0.00     0.001 A 
HETATM   12  C   UNL     1      40.368 -14.240   3.780  1.00  0.00     0.012 A 
ENDROOT
BRANCH   1  13
HETATM   13  C   UNL     1      40.855 -16.326  -0.448  1.00  0.00     0.273 C 
BRANCH  13  14
HETATM   14  C   UNL     1      41.202 -15.141  -1.307  1.00  0.00    -0.032 A 
HETATM   15  C   UNL     1      41.757 -13.977  -0.764  1.00  0.00     0.011 A 
HETATM   16  C   UNL     1      42.141 -12.917  -1.599  1.00  0.00     0.030 A 
HETATM   17  C   UNL     1      41.987 -13.002  -2.984  1.00  0.00     0.034 A 
HETATM   18  C   UNL     1      41.410 -14.155  -3.524  1.00  0.00     0.030 A 
HETATM   19  C   UNL     1      41.022 -15.213  -2.696  1.00  0.00     0.011 A 
BRANCH  17  20
HETATM   20  N   UNL     1      42.405 -12.009  -3.894  1.00  0.00    -0.328 N 
HETATM   21  C   UNL     1      41.764 -10.821  -4.195  1.00  0.00     0.218 C 
HETATM   22  C   UNL     1      42.560  -9.947  -5.135  1.00  0.00     0.117 C 
HETATM   23  O   UNL     1      40.684 -10.446  -3.753  1.00  0.00    -0.274 OA
HETATM   24  H   UNL     1      43.295 -12.167  -4.351  1.00  0.00     0.169 HD
ENDBRANCH  17  20
ENDBRANCH  13  14
ENDBRANCH   1  13
BRANCH   4  25
HETATM   25  C   UNL     1      43.349 -18.979   2.951  1.00  0.00     0.006 A 
HETATM   26  C   UNL     1      44.236 -19.147   4.030  1.00  0.00     0.077 A 
HETATM   27  C   UNL     1      44.983 -20.325   4.148  1.00  0.00     0.037 A 
HETATM   28  C   UNL     1      44.825 -21.357   3.224  1.00  0.00     0.003 A 
HETATM   29  C   UNL     1      43.914 -21.224   2.182  1.00  0.00     0.001 A 
HETATM   30  C   UNL     1      43.176 -20.049   2.051  1.00  0.00     0.012 A 
BRANCH  26  31
HETATM   31  O   UNL     1      44.348 -18.101   4.910  1.00  0.00    -0.355 OA
HETATM   32  C   UNL     1      44.985 -18.417   6.148  1.00  0.00     0.210 C 
ENDBRANCH  26  31
ENDBRANCH   4  25
TORSDOF 5
ENDMDL
MODEL 2
REMARK VINA RESULT:      -8.3      3.069      5.389
REMARK  5 active torsions:
REMARK  status: ('A' for Active; 'I' for Inactive)
REMARK       I    between atoms: C_2  and  N_3 
REMARK    1  A    between atoms: N_3  and  C_4 
REMARK    2  A    between atoms: C_7  and  C_8 
REMARK    3  A    between atoms: C_8  and  N_9 
REMARK    4  A    between atoms: C_12  and  C_13 
REMARK    5  A    between atoms: C_14  and  O_15 
ROOT
HETATM    1  N   UNL     1      42.084 -18.011   1.792  1.00  0.00    -0.060 N 
HETATM    2  H   UNL     1      41.437 -18.706   2.182  1.00  0.00     0.280 HD
HETATM    3  C   UNL     1      42.477 -17.027   2.907  1.00  0.00     0.272 C 
HETATM    4  C   UNL     1      43.202 -17.657   4.118  1.00  0.00     0.190 C 
HETATM    5  O   UNL     1      44.493 -18.151   3.720  1.00  0.00    -0.339 OA
HETATM    6  C   UNL     1      44.393 -19.472   3.384  1.00  0.00     0.077 A 
HETATM    7  C   UNL     1      43.766 -19.840   2.190  1.00  0.00     0.001 A 
HETATM    8  C   UNL     1      43.266 -18.786   1.246  1.00  0.00     0.276 C 
HETATM    9  C   UNL     1      44.924 -20.418   4.255  1.00  0.00     0.037 A 
HETATM   10  C   UNL     1      44.793 -21.771   3.956  1.00  0.00     0.003 A 
HETATM   11  C   UNL     1      44.144 -22.164   2.786  1.00  0.00     0.001 A 
HETATM   12  C   UNL     1      43.636 -21.206   1.903  1.00  0.00     0.012 A 
ENDROOT
BRANCH   1  13
HETATM   13  C   UNL     1      41.332 -17.234   0.729  1.00  0.00     0.273 C 
BRANCH  13  14
HETATM   14  C   UNL     1      40.796 -15.883   1.116  1.00  0.00    -0.032 A 
HETATM   15  C   UNL     1      41.326 -14.703   0.583  1.00  0.00     0.011 A 
HETATM   16  C   UNL     1      40.756 -13.461   0.903  1.00  0.00     0.030 A 
HETATM   17  C   UNL     1      39.649 -13.376   1.750  1.00  0.00     0.034 A 
HETATM   18  C   UNL     1      39.136 -14.553   2.301  1.00  0.00     0.030 A 
HETATM   19  C   UNL     1      39.702 -15.793   1.987  1.00  0.00     0.011 A 
BRANCH  17  20
HETATM   20  N   UNL     1      38.981 -12.176   2.068  1.00  0.00    -0.328 N 
HETATM   21  C   UNL     1      37.791 -11.710   1.539  1.00  0.00     0.218 C 
HETATM   22  C   UNL     1      37.314 -10.438   2.199  1.00  0.00     0.117 C 
HETATM   23  O   UNL     1      37.130 -12.244   0.655  1.00  0.00    -0.274 OA
HETATM   24  H   UNL     1      39.402 -11.608   2.794  1.00  0.00     0.169 HD
ENDBRANCH  17  20
ENDBRANCH  13  14
ENDBRANCH   1  13
BRANCH   4  25
HETATM   25  C   UNL     1      43.445 -16.607   5.195  1.00  0.00     0.006 A 
HETATM   26  C   UNL     1      43.654 -16.981   6.536  1.00  0.00     0.077 A 
HETATM   27  C   UNL     1      43.830 -16.001   7.519  1.00  0.00     0.037 A 
HETATM   28  C   UNL     1      43.843 -14.649   7.175  1.00  0.00     0.003 A 
HETATM   29  C   UNL     1      43.689 -14.268   5.846  1.00  0.00     0.001 A 
HETATM   30  C   UNL     1      43.501 -15.239   4.863  1.00  0.00     0.012 A 
BRANCH  26  31
HETATM   31  O   UNL     1      43.635 -18.323   6.815  1.00  0.00    -0.355 OA
HETATM   32  C   UNL     1      44.173 -18.684   8.088  1.00  0.00     0.210 C 
ENDBRANCH  26  31
ENDBRANCH   4  25
TORSDOF 5
ENDMDL
MODEL 3
REMARK VINA RESULT:      -8.3      1.876      4.504
REMARK  5 active torsions:
REMARK  status: ('A' for Active; 'I' for Inactive)
REMARK       I    between atoms: C_2  and  N_3 
REMARK    1  A    between atoms: N_3  and  C_4 
REMARK    2  A    between atoms: C_7  and  C_8 
REMARK    3  A    between atoms: C_8  and  N_9 
REMARK    4  A    between atoms: C_12  and  C_13 
REMARK    5  A    between atoms: C_14  and  O_15 
ROOT
HETATM    1  N   UNL     1      41.311 -17.549   2.304  1.00  0.00    -0.060 N 
HETATM    2  H   UNL     1      40.832 -18.321   2.781  1.00  0.00     0.280 HD
HETATM    3  C   UNL     1      41.926 -16.622   3.366  1.00  0.00     0.272 C 
HETATM    4  C   UNL     1      42.980 -17.278   4.286  1.00  0.00     0.190 C 
HETATM    5  O   UNL     1      44.147 -17.636   3.524  1.00  0.00    -0.339 OA
HETATM    6  C   UNL     1      44.039 -18.933   3.105  1.00  0.00     0.077 A 
HETATM    7  C   UNL     1      43.142 -19.261   2.084  1.00  0.00     0.001 A 
HETATM    8  C   UNL     1      42.350 -18.184   1.402  1.00  0.00     0.276 C 
HETATM    9  C   UNL     1      44.836 -19.895   3.718  1.00  0.00     0.037 A 
HETATM   10  C   UNL     1      44.709 -21.228   3.340  1.00  0.00     0.003 A 
HETATM   11  C   UNL     1      43.798 -21.585   2.345  1.00  0.00     0.001 A 
HETATM   12  C   UNL     1      43.021 -20.608   1.715  1.00  0.00     0.012 A 
ENDROOT
BRANCH   1  13
HETATM   13  C   UNL     1      40.261 -16.759   1.547  1.00  0.00     0.273 C 
BRANCH  13  14
HETATM   14  C   UNL     1      40.745 -15.630   0.679  1.00  0.00    -0.032 A 
HETATM   15  C   UNL     1      41.148 -15.841  -0.644  1.00  0.00     0.011 A 
HETATM   16  C   UNL     1      41.521 -14.758  -1.455  1.00  0.00     0.030 A 
HETATM   17  C   UNL     1      41.493 -13.451  -0.964  1.00  0.00     0.034 A 
HETATM   18  C   UNL     1      41.114 -13.244   0.365  1.00  0.00     0.030 A 
HETATM   19  C   UNL     1      40.743 -14.320   1.178  1.00  0.00     0.011 A 
BRANCH  17  20
HETATM   20  N   UNL     1      41.791 -12.307  -1.731  1.00  0.00    -0.328 N 
HETATM   21  C   UNL     1      42.687 -11.298  -1.423  1.00  0.00     0.218 C 
HETATM   22  C   UNL     1      42.833 -10.285  -2.533  1.00  0.00     0.117 C 
HETATM   23  O   UNL     1      43.347 -11.202  -0.394  1.00  0.00    -0.274 OA
HETATM   24  H   UNL     1      41.324 -12.234  -2.627  1.00  0.00     0.169 HD
ENDBRANCH  17  20
ENDBRANCH  13  14
ENDBRANCH   1  13
BRANCH   4  25
HETATM   25  C   UNL     1      43.438 -16.295   5.355  1.00  0.00     0.006 A 
HETATM   26  C   UNL     1      43.577 -16.698   6.696  1.00  0.00     0.077 A 
HETATM   27  C   UNL     1      43.953 -15.769   7.673  1.00  0.00     0.037 A 
HETATM   28  C   UNL     1      44.235 -14.449   7.322  1.00  0.00     0.003 A 
HETATM   29  C   UNL     1      44.151 -14.050   5.993  1.00  0.00     0.001 A 
HETATM   30  C   UNL     1      43.764 -14.967   5.016  1.00  0.00     0.012 A 
BRANCH  26  31
HETATM   31  O   UNL     1      43.291 -18.008   6.983  1.00  0.00    -0.355 OA
HETATM   32  C   UNL     1      44.206 -18.647   7.874  1.00  0.00     0.210 C 
ENDBRANCH  26  31
ENDBRANCH   4  25
TORSDOF 5
ENDMDL
MODEL 4
REMARK VINA RESULT:      -8.3      1.227      1.256
REMARK  5 active torsions:
REMARK  status: ('A' for Active; 'I' for Inactive)
REMARK       I    between atoms: C_2  and  N_3 
REMARK    1  A    between atoms: N_3  and  C_4 
REMARK    2  A    between atoms: C_7  and  C_8 
REMARK    3  A    between atoms: C_8  and  N_9 
REMARK    4  A    between atoms: C_12  and  C_13 
REMARK    5  A    between atoms: C_14  and  O_15 
ROOT
HETATM    1  N   UNL     1      41.509 -15.851   0.908  1.00  0.00    -0.060 N 
HETATM    2  H   UNL     1      42.159 -15.113   1.201  1.00  0.00     0.280 HD
HETATM    3  C   UNL     1      42.160 -17.217   1.181  1.00  0.00     0.272 C 
HETATM    4  C   UNL     1      42.495 -17.504   2.662  1.00  0.00     0.190 C 
HETATM    5  O   UNL     1      41.284 -17.619   3.430  1.00  0.00    -0.339 OA
HETATM    6  C   UNL     1      40.972 -16.404   3.973  1.00  0.00     0.077 A 
HETATM    7  C   UNL     1      40.482 -15.381   3.157  1.00  0.00     0.001 A 
HETATM    8  C   UNL     1      40.234 -15.636   1.698  1.00  0.00     0.276 C 
HETATM    9  C   UNL     1      41.156 -16.225   5.342  1.00  0.00     0.037 A 
HETATM   10  C   UNL     1      40.888 -14.983   5.909  1.00  0.00     0.003 A 
HETATM   11  C   UNL     1      40.428 -13.937   5.108  1.00  0.00     0.001 A 
HETATM   12  C   UNL     1      40.221 -14.134   3.739  1.00  0.00     0.012 A 
ENDROOT
BRANCH   1  13
HETATM   13  C   UNL     1      41.316 -15.719  -0.591  1.00  0.00     0.273 C 
BRANCH  13  14
HETATM   14  C   UNL     1      41.138 -14.330  -1.141  1.00  0.00    -0.032 A 
HETATM   15  C   UNL     1      41.947 -13.267  -0.727  1.00  0.00     0.011 A 
HETATM   16  C   UNL     1      41.810 -11.999  -1.313  1.00  0.00     0.030 A 
HETATM   17  C   UNL     1      40.871 -11.773  -2.323  1.00  0.00     0.034 A 
HETATM   18  C   UNL     1      40.046 -12.830  -2.718  1.00  0.00     0.030 A 
HETATM   19  C   UNL     1      40.178 -14.095  -2.135  1.00  0.00     0.011 A 
BRANCH  17  20
HETATM   20  N   UNL     1      40.715 -10.549  -3.004  1.00  0.00    -0.328 N 
HETATM   21  C   UNL     1      39.935  -9.470  -2.627  1.00  0.00     0.218 C 
HETATM   22  C   UNL     1      40.098  -8.280  -3.542  1.00  0.00     0.117 C 
HETATM   23  O   UNL     1      39.200  -9.413  -1.647  1.00  0.00    -0.274 OA
HETATM   24  H   UNL     1      41.265 -10.432  -3.847  1.00  0.00     0.169 HD
ENDBRANCH  17  20
ENDBRANCH  13  14
ENDBRANCH   1  13
BRANCH   4  25
HETATM   25  C   UNL     1      43.226 -18.834   2.793  1.00  0.00     0.006 A 
HETATM   26  C   UNL     1      44.061 -19.096   3.895  1.00  0.00     0.077 A 
HETATM   27  C   UNL     1      44.760 -20.305   3.974  1.00  0.00     0.037 A 
HETATM   28  C   UNL     1      44.606 -21.278   2.986  1.00  0.00     0.003 A 
HETATM   29  C   UNL     1      43.744 -21.053   1.918  1.00  0.00     0.001 A 
HETATM   30  C   UNL     1      43.053 -19.845   1.826  1.00  0.00     0.012 A 
BRANCH  26  31
HETATM   31  O   UNL     1      44.173 -18.106   4.837  1.00  0.00    -0.355 OA
HETATM   32  C   UNL     1      45.038 -18.407   5.932  1.00  0.00     0.210 C 
ENDBRANCH  26  31
ENDBRANCH   4  25
TORSDOF 5
ENDMDL
MODEL 5
REMARK VINA RESULT:      -8.2      1.389      1.970
REMARK  5 active torsions:
REMARK  status: ('A' for Active; 'I' for Inactive)
REMARK       I    between atoms: C_2  and  N_3 
REMARK    1  A    between atoms: N_3  and  C_4 
REMARK    2  A    between atoms: C_7  and  C_8 
REMARK    3  A    between atoms: C_8  and  N_9 
REMARK    4  A    between atoms: C_12  and  C_13 
REMARK    5  A    between atoms: C_14  and  O_15 
ROOT
HETATM    1  N   UNL     1      41.360 -15.752   1.153  1.00  0.00    -0.060 N 
HETATM    2  H   UNL     1      41.858 -14.856   1.193  1.00  0.00     0.280 HD
HETATM    3  C   UNL     1      42.155 -16.792   1.959  1.00  0.00     0.272 C 
HETATM    4  C   UNL     1      42.336 -16.469   3.459  1.00  0.00     0.190 C 
HETATM    5  O   UNL     1      41.066 -16.514   4.132  1.00  0.00    -0.339 OA
HETATM    6  C   UNL     1      40.520 -15.261   4.161  1.00  0.00     0.077 A 
HETATM    7  C   UNL     1      40.000 -14.700   2.991  1.00  0.00     0.001 A 
HETATM    8  C   UNL     1      39.978 -15.498   1.720  1.00  0.00     0.276 C 
HETATM    9  C   UNL     1      40.502 -14.576   5.373  1.00  0.00     0.037 A 
HETATM   10  C   UNL     1      39.994 -13.282   5.417  1.00  0.00     0.003 A 
HETATM   11  C   UNL     1      39.498 -12.689   4.256  1.00  0.00     0.001 A 
HETATM   12  C   UNL     1      39.495 -13.394   3.049  1.00  0.00     0.012 A 
ENDROOT
BRANCH   1  13
HETATM   13  C   UNL     1      41.342 -16.199  -0.296  1.00  0.00     0.273 C 
BRANCH  13  14
HETATM   14  C   UNL     1      41.077 -15.146  -1.336  1.00  0.00    -0.032 A 
HETATM   15  C   UNL     1      40.684 -15.481  -2.637  1.00  0.00     0.011 A 
HETATM   16  C   UNL     1      40.369 -14.476  -3.565  1.00  0.00     0.030 A 
HETATM   17  C   UNL     1      40.434 -13.126  -3.211  1.00  0.00     0.034 A 
HETATM   18  C   UNL     1      40.851 -12.793  -1.919  1.00  0.00     0.030 A 
HETATM   19  C   UNL     1      41.168 -13.790  -0.991  1.00  0.00     0.011 A 
BRANCH  17  20
HETATM   20  N   UNL     1      40.074 -12.062  -4.063  1.00  0.00    -0.328 N 
HETATM   21  C   UNL     1      40.922 -11.195  -4.729  1.00  0.00     0.218 C 
HETATM   22  C   UNL     1      40.187 -10.246  -5.646  1.00  0.00     0.117 C 
HETATM   23  O   UNL     1      42.145 -11.173  -4.652  1.00  0.00    -0.274 OA
HETATM   24  H   UNL     1      39.083 -11.943  -4.236  1.00  0.00     0.169 HD
ENDBRANCH  17  20
ENDBRANCH  13  14
ENDBRANCH   1  13
BRANCH   4  25
HETATM   25  C   UNL     1      43.223 -17.513   4.124  1.00  0.00     0.006 A 
HETATM   26  C   UNL     1      43.842 -17.255   5.361  1.00  0.00     0.077 A 
HETATM   27  C   UNL     1      44.691 -18.209   5.935  1.00  0.00     0.037 A 
HETATM   28  C   UNL     1      44.897 -19.439   5.309  1.00  0.00     0.003 A 
HETATM   29  C   UNL     1      44.251 -19.726   4.112  1.00  0.00     0.001 A 
HETATM   30  C   UNL     1      43.414 -18.776   3.528  1.00  0.00     0.012 A 
BRANCH  26  31
HETATM   31  O   UNL     1      43.601 -16.032   5.932  1.00  0.00    -0.355 OA
HETATM   32  C   UNL     1      43.881 -15.951   7.330  1.00  0.00     0.210 C 
ENDBRANCH  26  31
ENDBRANCH   4  25
TORSDOF 5
ENDMDL
MODEL 6
REMARK VINA RESULT:      -7.7      2.370      2.925
REMARK  5 active torsions:
REMARK  status: ('A' for Active; 'I' for Inactive)
REMARK       I    between atoms: C_2  and  N_3 
REMARK    1  A    between atoms: N_3  and  C_4 
REMARK    2  A    between atoms: C_7  and  C_8 
REMARK    3  A    between atoms: C_8  and  N_9 
REMARK    4  A    between atoms: C_12  and  C_13 
REMARK    5  A    between atoms: C_14  and  O_15 
ROOT
HETATM    1  N   UNL     1      41.858 -14.479   1.005  1.00  0.00    -0.060 N 
HETATM    2  H   UNL     1      42.426 -13.808   1.534  1.00  0.00     0.280 HD
HETATM    3  C   UNL     1      42.406 -15.893   1.258  1.00  0.00     0.272 C 
HETATM    4  C   UNL     1      42.366 -16.364   2.729  1.00  0.00     0.190 C 
HETATM    5  O   UNL     1      41.003 -16.517   3.164  1.00  0.00    -0.339 OA
HETATM    6  C   UNL     1      40.582 -15.361   3.760  1.00  0.00     0.077 A 
HETATM    7  C   UNL     1      40.319 -14.231   2.981  1.00  0.00     0.001 A 
HETATM    8  C   UNL     1      40.431 -14.304   1.486  1.00  0.00     0.276 C 
HETATM    9  C   UNL     1      40.430 -15.349   5.144  1.00  0.00     0.037 A 
HETATM   10  C   UNL     1      40.046 -14.171   5.778  1.00  0.00     0.003 A 
HETATM   11  C   UNL     1      39.809 -13.021   5.024  1.00  0.00     0.001 A 
HETATM   12  C   UNL     1      39.939 -13.049   3.632  1.00  0.00     0.012 A 
ENDROOT
BRANCH   1  13
HETATM   13  C   UNL     1      42.037 -14.166  -0.468  1.00  0.00     0.273 C 
BRANCH  13  14
HETATM   14  C   UNL     1      40.822 -14.282  -1.348  1.00  0.00    -0.032 A 
HETATM   15  C   UNL     1      40.731 -15.253  -2.351  1.00  0.00     0.011 A 
HETATM   16  C   UNL     1      39.555 -15.387  -3.105  1.00  0.00     0.030 A 
HETATM   17  C   UNL     1      38.452 -14.564  -2.868  1.00  0.00     0.034 A 
HETATM   18  C   UNL     1      38.553 -13.578  -1.882  1.00  0.00     0.030 A 
HETATM   19  C   UNL     1      39.724 -13.438  -1.129  1.00  0.00     0.011 A 
BRANCH  17  20
HETATM   20  N   UNL     1      37.217 -14.677  -3.536  1.00  0.00    -0.328 N 
HETATM   21  C   UNL     1      36.568 -13.702  -4.274  1.00  0.00     0.218 C 
HETATM   22  C   UNL     1      35.314 -14.212  -4.944  1.00  0.00     0.117 C 
HETATM   23  O   UNL     1      36.938 -12.544  -4.433  1.00  0.00    -0.274 OA
HETATM   24  H   UNL     1      36.771 -15.586  -3.504  1.00  0.00     0.169 HD
ENDBRANCH  17  20
ENDBRANCH  13  14
ENDBRANCH   1  13
BRANCH   4  25
HETATM   25  C   UNL     1      43.027 -17.730   2.868  1.00  0.00     0.006 A 
HETATM   26  C   UNL     1      43.695 -18.093   4.052  1.00  0.00     0.077 A 
HETATM   27  C   UNL     1      44.336 -19.334   4.144  1.00  0.00     0.037 A 
HETATM   28  C   UNL     1      44.283 -20.237   3.082  1.00  0.00     0.003 A 
HETATM   29  C   UNL     1      43.582 -19.911   1.927  1.00  0.00     0.001 A 
HETATM   30  C   UNL     1      42.952 -18.672   1.823  1.00  0.00     0.012 A 
BRANCH  26  31
HETATM   31  O   UNL     1      43.713 -17.167   5.063  1.00  0.00    -0.355 OA
HETATM   32  C   UNL     1      44.433 -17.561   6.232  1.00  0.00     0.210 C 
ENDBRANCH  26  31
ENDBRANCH   4  25
TORSDOF 5
ENDMDL
MODEL 7
REMARK VINA RESULT:      -7.7      2.948      9.198
REMARK  5 active torsions:
REMARK  status: ('A' for Active; 'I' for Inactive)
REMARK       I    between atoms: C_2  and  N_3 
REMARK    1  A    between atoms: N_3  and  C_4 
REMARK    2  A    between atoms: C_7  and  C_8 
REMARK    3  A    between atoms: C_8  and  N_9 
REMARK    4  A    between atoms: C_12  and  C_13 
REMARK    5  A    between atoms: C_14  and  O_15 
ROOT
HETATM    1  N   UNL     1      42.136 -14.368   1.179  1.00  0.00    -0.060 N 
HETATM    2  H   UNL     1      42.910 -14.462   0.511  1.00  0.00     0.280 HD
HETATM    3  C   UNL     1      41.848 -12.873   1.390  1.00  0.00     0.272 C 
HETATM    4  C   UNL     1      41.418 -12.097   0.124  1.00  0.00     0.190 C 
HETATM    5  O   UNL     1      40.135 -12.563  -0.330  1.00  0.00    -0.339 OA
HETATM    6  C   UNL     1      40.309 -13.543  -1.266  1.00  0.00     0.077 A 
HETATM    7  C   UNL     1      40.749 -14.811  -0.874  1.00  0.00     0.001 A 
HETATM    8  C   UNL     1      40.962 -15.117   0.580  1.00  0.00     0.276 C 
HETATM    9  C   UNL     1      40.041 -13.241  -2.598  1.00  0.00     0.037 A 
HETATM   10  C   UNL     1      40.256 -14.209  -3.574  1.00  0.00     0.003 A 
HETATM   11  C   UNL     1      40.724 -15.471  -3.210  1.00  0.00     0.001 A 
HETATM   12  C   UNL     1      40.965 -15.775  -1.867  1.00  0.00     0.012 A 
ENDROOT
BRANCH   1  13
HETATM   13  C   UNL     1      42.604 -14.944   2.502  1.00  0.00     0.273 C 
BRANCH  13  14
HETATM   14  C   UNL     1      42.937 -16.410   2.534  1.00  0.00    -0.032 A 
HETATM   15  C   UNL     1      43.799 -16.988   1.597  1.00  0.00     0.011 A 
HETATM   16  C   UNL     1      44.153 -18.342   1.697  1.00  0.00     0.030 A 
HETATM   17  C   UNL     1      43.660 -19.138   2.733  1.00  0.00     0.034 A 
HETATM   18  C   UNL     1      42.779 -18.566   3.655  1.00  0.00     0.030 A 
HETATM   19  C   UNL     1      42.421 -17.217   3.558  1.00  0.00     0.011 A 
BRANCH  17  20
HETATM   20  N   UNL     1      44.016 -20.486   2.939  1.00  0.00    -0.328 N 
HETATM   21  C   UNL     1      44.660 -21.027   4.038  1.00  0.00     0.218 C 
HETATM   22  C   UNL     1      44.778 -22.531   3.967  1.00  0.00     0.117 C 
HETATM   23  O   UNL     1      45.081 -20.410   5.010  1.00  0.00    -0.274 OA
HETATM   24  H   UNL     1      43.734 -21.139   2.218  1.00  0.00     0.169 HD
ENDBRANCH  17  20
ENDBRANCH  13  14
ENDBRANCH   1  13
BRANCH   4  25
HETATM   25  C   UNL     1      41.263 -10.615   0.436  1.00  0.00     0.006 A 
HETATM   26  C   UNL     1      42.312  -9.710   0.189  1.00  0.00     0.077 A 
HETATM   27  C   UNL     1      42.167  -8.359   0.526  1.00  0.00     0.037 A 
HETATM   28  C   UNL     1      40.971  -7.889   1.068  1.00  0.00     0.003 A 
HETATM   29  C   UNL     1      39.909  -8.763   1.268  1.00  0.00     0.001 A 
HETATM   30  C   UNL     1      40.049 -10.113   0.947  1.00  0.00     0.012 A 
BRANCH  26  31
HETATM   31  O   UNL     1      43.463 -10.226  -0.348  1.00  0.00    -0.355 OA
HETATM   32  C   UNL     1      44.005  -9.487  -1.443  1.00  0.00     0.210 C 
ENDBRANCH  26  31
ENDBRANCH   4  25
TORSDOF 5
ENDMDL
MODEL 8
REMARK VINA RESULT:      -7.7      3.143      5.478
REMARK  5 active torsions:
REMARK  status: ('A' for Active; 'I' for Inactive)
REMARK       I    between atoms: C_2  and  N_3 
REMARK    1  A    between atoms: N_3  and  C_4 
REMARK    2  A    between atoms: C_7  and  C_8 
REMARK    3  A    between atoms: C_8  and  N_9 
REMARK    4  A    between atoms: C_12  and  C_13 
REMARK    5  A    between atoms: C_14  and  O_15 
ROOT
HETATM    1  N   UNL     1      41.760 -18.205   2.070  1.00  0.00    -0.060 N 
HETATM    2  H   UNL     1      41.204 -18.993   2.422  1.00  0.00     0.280 HD
HETATM    3  C   UNL     1      42.156 -17.314   3.259  1.00  0.00     0.272 C 
HETATM    4  C   UNL     1      43.021 -18.000   4.340  1.00  0.00     0.190 C 
HETATM    5  O   UNL     1      44.313 -18.331   3.804  1.00  0.00    -0.339 OA
HETATM    6  C   UNL     1      44.295 -19.613   3.329  1.00  0.00     0.077 A 
HETATM    7  C   UNL     1      43.612 -19.908   2.147  1.00  0.00     0.001 A 
HETATM    8  C   UNL     1      42.956 -18.809   1.362  1.00  0.00     0.276 C 
HETATM    9  C   UNL     1      44.968 -20.595   4.051  1.00  0.00     0.037 A 
HETATM   10  C   UNL     1      44.925 -21.915   3.612  1.00  0.00     0.003 A 
HETATM   11  C   UNL     1      44.222 -22.239   2.452  1.00  0.00     0.001 A 
HETATM   12  C   UNL     1      43.572 -21.242   1.718  1.00  0.00     0.012 A 
ENDROOT
BRANCH   1  13
HETATM   13  C   UNL     1      40.868 -17.391   1.153  1.00  0.00     0.273 C 
BRANCH  13  14
HETATM   14  C   UNL     1      40.845 -15.902   1.363  1.00  0.00    -0.032 A 
HETATM   15  C   UNL     1      41.761 -15.056   0.729  1.00  0.00     0.011 A 
HETATM   16  C   UNL     1      41.668 -13.664   0.883  1.00  0.00     0.030 A 
HETATM   17  C   UNL     1      40.658 -13.094   1.661  1.00  0.00     0.034 A 
HETATM   18  C   UNL     1      39.758 -13.941   2.314  1.00  0.00     0.030 A 
HETATM   19  C   UNL     1      39.848 -15.329   2.167  1.00  0.00     0.011 A 
BRANCH  17  20
HETATM   20  N   UNL     1      40.459 -11.707   1.814  1.00  0.00    -0.328 N 
HETATM   21  C   UNL     1      40.780 -10.927   2.910  1.00  0.00     0.218 C 
HETATM   22  C   UNL     1      40.527  -9.456   2.678  1.00  0.00     0.117 C 
HETATM   23  O   UNL     1      41.255 -11.323   3.970  1.00  0.00    -0.274 OA
HETATM   24  H   UNL     1      40.070 -11.220   1.016  1.00  0.00     0.169 HD
ENDBRANCH  17  20
ENDBRANCH  13  14
ENDBRANCH   1  13
BRANCH   4  25
HETATM   25  C   UNL     1      43.259 -17.052   5.509  1.00  0.00     0.006 A 
HETATM   26  C   UNL     1      43.518 -15.686   5.292  1.00  0.00     0.077 A 
HETATM   27  C   UNL     1      43.781 -14.841   6.375  1.00  0.00     0.037 A 
HETATM   28  C   UNL     1      43.747 -15.332   7.680  1.00  0.00     0.003 A 
HETATM   29  C   UNL     1      43.441 -16.668   7.912  1.00  0.00     0.001 A 
HETATM   30  C   UNL     1      43.191 -17.520   6.836  1.00  0.00     0.012 A 
BRANCH  26  31
HETATM   31  O   UNL     1      43.536 -15.258   3.989  1.00  0.00    -0.355 OA
HETATM   32  C   UNL     1      43.667 -13.847   3.818  1.00  0.00     0.210 C 
ENDBRANCH  26  31
ENDBRANCH   4  25
TORSDOF 5
ENDMDL
MODEL 9
REMARK VINA RESULT:      -7.6      4.398      8.012
REMARK  5 active torsions:
REMARK  status: ('A' for Active; 'I' for Inactive)
REMARK       I    between atoms: C_2  and  N_3 
REMARK    1  A    between atoms: N_3  and  C_4 
REMARK    2  A    between atoms: C_7  and  C_8 
REMARK    3  A    between atoms: C_8  and  N_9 
REMARK    4  A    between atoms: C_12  and  C_13 
REMARK    5  A    between atoms: C_14  and  O_15 
ROOT
HETATM    1  N   UNL     1      41.246 -13.020   4.224  1.00  0.00    -0.060 N 
HETATM    2  H   UNL     1      40.351 -13.331   4.619  1.00  0.00     0.280 HD
HETATM    3  C   UNL     1      42.065 -14.260   3.828  1.00  0.00     0.272 C 
HETATM    4  C   UNL     1      41.415 -15.166   2.757  1.00  0.00     0.190 C 
HETATM    5  O   UNL     1      41.341 -14.472   1.500  1.00  0.00    -0.339 OA
HETATM    6  C   UNL     1      40.126 -13.856   1.389  1.00  0.00     0.077 A 
HETATM    7  C   UNL     1      39.849 -12.719   2.153  1.00  0.00     0.001 A 
HETATM    8  C   UNL     1      40.907 -12.134   3.043  1.00  0.00     0.276 C 
HETATM    9  C   UNL     1      39.192 -14.391   0.506  1.00  0.00     0.037 A 
HETATM   10  C   UNL     1      37.932 -13.809   0.410  1.00  0.00     0.003 A 
HETATM   11  C   UNL     1      37.621 -12.692   1.187  1.00  0.00     0.001 A 
HETATM   12  C   UNL     1      38.574 -12.145   2.051  1.00  0.00     0.012 A 
ENDROOT
BRANCH   1  13
HETATM   13  C   UNL     1      42.001 -12.295   5.321  1.00  0.00     0.273 C 
BRANCH  13  14
HETATM   14  C   UNL     1      41.200 -11.790   6.489  1.00  0.00    -0.032 A 
HETATM   15  C   UNL     1      39.892 -12.227   6.727  1.00  0.00     0.011 A 
HETATM   16  C   UNL     1      39.195 -11.798   7.867  1.00  0.00     0.030 A 
HETATM   17  C   UNL     1      39.791 -10.936   8.790  1.00  0.00     0.034 A 
HETATM   18  C   UNL     1      41.088 -10.480   8.539  1.00  0.00     0.030 A 
HETATM   19  C   UNL     1      41.786 -10.902   7.403  1.00  0.00     0.011 A 
BRANCH  17  20
HETATM   20  N   UNL     1      39.183 -10.510   9.988  1.00  0.00    -0.328 N 
HETATM   21  C   UNL     1      38.583  -9.289  10.239  1.00  0.00     0.218 C 
HETATM   22  C   UNL     1      37.935  -9.223  11.602  1.00  0.00     0.117 C 
HETATM   23  O   UNL     1      38.520  -8.338   9.467  1.00  0.00    -0.274 OA
HETATM   24  H   UNL     1      39.149 -11.189  10.739  1.00  0.00     0.169 HD
ENDBRANCH  17  20
ENDBRANCH  13  14
ENDBRANCH   1  13
BRANCH   4  25
HETATM   25  C   UNL     1      42.266 -16.408   2.525  1.00  0.00     0.006 A 
HETATM   26  C   UNL     1      42.104 -17.555   3.323  1.00  0.00     0.077 A 
HETATM   27  C   UNL     1      42.927 -18.670   3.125  1.00  0.00     0.037 A 
HETATM   28  C   UNL     1      43.884 -18.671   2.110  1.00  0.00     0.003 A 
HETATM   29  C   UNL     1      44.019 -17.563   1.281  1.00  0.00     0.001 A 
HETATM   30  C   UNL     1      43.211 -16.444   1.481  1.00  0.00     0.012 A 
BRANCH  26  31
HETATM   31  O   UNL     1      41.147 -17.499   4.303  1.00  0.00    -0.355 OA
HETATM   32  C   UNL     1      41.648 -17.509   5.640  1.00  0.00     0.210 C 
ENDBRANCH  26  31
ENDBRANCH   4  25
TORSDOF 5
ENDMDL
MODEL 10
REMARK VINA RESULT:      -7.6      2.938      7.998
REMARK  5 active torsions:
REMARK  status: ('A' for Active; 'I' for Inactive)
REMARK       I    between atoms: C_2  and  N_3 
REMARK    1  A    between atoms: N_3  and  C_4 
REMARK    2  A    between atoms: C_7  and  C_8 
REMARK    3  A    between atoms: C_8  and  N_9 
REMARK    4  A    between atoms: C_12  and  C_13 
REMARK    5  A    between atoms: C_14  and  O_15 
ROOT
HETATM    1  N   UNL     1      41.451 -13.696   2.561  1.00  0.00    -0.060 N 
HETATM    2  H   UNL     1      40.659 -14.076   3.091  1.00  0.00     0.280 HD
HETATM    3  C   UNL     1      41.324 -14.148   1.096  1.00  0.00     0.272 C 
HETATM    4  C   UNL     1      40.050 -13.669   0.365  1.00  0.00     0.190 C 
HETATM    5  O   UNL     1      40.077 -12.239   0.210  1.00  0.00    -0.339 OA
HETATM    6  C   UNL     1      39.421 -11.653   1.257  1.00  0.00     0.077 A 
HETATM    7  C   UNL     1      40.011 -11.633   2.524  1.00  0.00     0.001 A 
HETATM    8  C   UNL     1      41.390 -12.191   2.721  1.00  0.00     0.276 C 
HETATM    9  C   UNL     1      38.170 -11.091   1.021  1.00  0.00     0.037 A 
HETATM   10  C   UNL     1      37.464 -10.530   2.081  1.00  0.00     0.003 A 
HETATM   11  C   UNL     1      38.018 -10.526   3.361  1.00  0.00     0.001 A 
HETATM   12  C   UNL     1      39.287 -11.070   3.584  1.00  0.00     0.012 A 
ENDROOT
BRANCH   1  13
HETATM   13  C   UNL     1      42.716 -14.310   3.129  1.00  0.00     0.273 C 
BRANCH  13  14
HETATM   14  C   UNL     1      42.937 -15.778   2.885  1.00  0.00    -0.032 A 
HETATM   15  C   UNL     1      42.155 -16.753   3.513  1.00  0.00     0.011 A 
HETATM   16  C   UNL     1      42.333 -18.111   3.207  1.00  0.00     0.030 A 
HETATM   17  C   UNL     1      43.285 -18.518   2.269  1.00  0.00     0.034 A 
HETATM   18  C   UNL     1      44.082 -17.544   1.661  1.00  0.00     0.030 A 
HETATM   19  C   UNL     1      43.911 -16.189   1.964  1.00  0.00     0.011 A 
BRANCH  17  20
HETATM   20  N   UNL     1      43.481 -19.853   1.861  1.00  0.00    -0.328 N 
HETATM   21  C   UNL     1      44.319 -20.792   2.434  1.00  0.00     0.218 C 
HETATM   22  C   UNL     1      44.189 -22.157   1.802  1.00  0.00     0.117 C 
HETATM   23  O   UNL     1      45.081 -20.607   3.377  1.00  0.00    -0.274 OA
HETATM   24  H   UNL     1      42.916 -20.171   1.083  1.00  0.00     0.169 HD
ENDBRANCH  17  20
ENDBRANCH  13  14
ENDBRANCH   1  13
BRANCH   4  25
HETATM   25  C   UNL     1      39.986 -14.262  -1.036  1.00  0.00     0.006 A 
HETATM   26  C   UNL     1      38.855 -14.075  -1.851  1.00  0.00     0.077 A 
HETATM   27  C   UNL     1      38.796 -14.666  -3.118  1.00  0.00     0.037 A 
HETATM   28  C   UNL     1      39.872 -15.411  -3.602  1.00  0.00     0.003 A 
HETATM   29  C   UNL     1      41.017 -15.560  -2.827  1.00  0.00     0.001 A 
HETATM   30  C   UNL     1      41.078 -14.984  -1.559  1.00  0.00     0.012 A 
BRANCH  26  31
HETATM   31  O   UNL     1      37.829 -13.332  -1.326  1.00  0.00    -0.355 OA
HETATM   32  C   UNL     1      37.293 -12.337  -2.199  1.00  0.00     0.210 C 
ENDBRANCH  26  31
ENDBRANCH   4  25
TORSDOF 5
ENDMDL
