MODEL 1
REMARK VINA RESULT:      -7.9      0.000      0.000
REMARK  4 active torsions:
REMARK  status: ('A' for Active; 'I' for Inactive)
REMARK    1  A    between atoms: N_2  and  C_3 
REMARK    2  A    between atoms: C_5  and  C_6 
REMARK    3  A    between atoms: C_6  and  C_7 
REMARK    4  A    between atoms: C_14  and  O_15 
ROOT
HETATM    1  C   UNL     1      44.162 -18.549   4.503  1.00  0.00     0.113 A 
HETATM    2  N   UNL     1      43.253 -17.589   4.242  1.00  0.00    -0.223 NA
HETATM    3  C   UNL     1      42.460 -17.716   3.144  1.00  0.00     0.106 A 
HETATM    4  N   UNL     1      42.542 -18.754   2.296  1.00  0.00    -0.347 N 
HETATM    5  H   UNL     1      41.941 -18.805   1.478  1.00  0.00     0.167 HD
HETATM    6  C   UNL     1      43.424 -19.714   2.563  1.00  0.00     0.020 A 
HETATM    7  C   UNL     1      44.248 -19.643   3.673  1.00  0.00     0.005 A 
HETATM    8  C   UNL     1      45.141 -20.840   3.738  1.00  0.00     0.044 C 
HETATM    9  C   UNL     1      44.419 -21.807   2.781  1.00  0.00     0.011 C 
HETATM   10  C   UNL     1      43.674 -20.943   1.750  1.00  0.00     0.058 C 
ENDROOT
BRANCH   3  11
HETATM   11  C   UNL     1      41.470 -16.621   2.863  1.00  0.00     0.085 C 
BRANCH  11  12
HETATM   12  C   UNL     1      41.855 -15.765   1.651  1.00  0.00     0.021 C 
HETATM   13  C   UNL     1      41.500 -14.285   1.816  1.00  0.00     0.181 C 
HETATM   14  O   UNL     1      42.022 -13.511   0.734  1.00  0.00    -0.350 OA
HETATM   15  C   UNL     1      41.691 -13.985  -0.510  1.00  0.00     0.077 A 
HETATM   16  C   UNL     1      41.274 -15.300  -0.738  1.00  0.00    -0.024 A 
HETATM   17  C   UNL     1      41.831 -13.083  -1.569  1.00  0.00     0.074 A 
HETATM   18  C   UNL     1      41.137 -16.275   0.394  1.00  0.00     0.048 C 
HETATM   19  C   UNL     1      40.951 -15.691  -2.041  1.00  0.00     0.012 A 
HETATM   20  C   UNL     1      41.072 -14.783  -3.096  1.00  0.00     0.037 A 
HETATM   21  C   UNL     1      41.515 -13.479  -2.868  1.00  0.00     0.070 A 
BRANCH  21  22
HETATM   22  O   UNL     1      41.593 -12.700  -3.989  1.00  0.00    -0.356 OA
HETATM   23  C   UNL     1      42.370 -11.511  -3.899  1.00  0.00     0.210 C 
ENDBRANCH  21  22
ENDBRANCH  11  12
ENDBRANCH   3  11
BRANCH   1  24
HETATM   24  N   UNL     1      44.946 -18.487   5.649  1.00  0.00    -0.281 NA
HETATM   25  C   UNL     1      44.620 -17.433   6.599  1.00  0.00     0.114 C 
HETATM   26  H   UNL     1      45.940 -18.502   5.434  1.00  0.00     0.128 HD
ENDBRANCH   1  24
TORSDOF 4
ENDMDL
MODEL 2
REMARK VINA RESULT:      -7.9      2.393      3.086
REMARK  4 active torsions:
REMARK  status: ('A' for Active; 'I' for Inactive)
REMARK    1  A    between atoms: N_2  and  C_3 
REMARK    2  A    between atoms: C_5  and  C_6 
REMARK    3  A    between atoms: C_6  and  C_7 
REMARK    4  A    between atoms: C_14  and  O_15 
ROOT
HETATM    1  C   UNL     1      44.313 -18.963   4.420  1.00  0.00     0.113 A 
HETATM    2  N   UNL     1      43.978 -18.121   3.423  1.00  0.00    -0.223 NA
HETATM    3  C   UNL     1      43.856 -18.613   2.161  1.00  0.00     0.106 A 
HETATM    4  N   UNL     1      44.059 -19.905   1.854  1.00  0.00    -0.347 N 
HETATM    5  H   UNL     1      43.971 -20.231   0.896  1.00  0.00     0.167 HD
HETATM    6  C   UNL     1      44.368 -20.743   2.840  1.00  0.00     0.020 A 
HETATM    7  C   UNL     1      44.494 -20.300   4.145  1.00  0.00     0.005 A 
HETATM    8  C   UNL     1      44.848 -21.435   5.051  1.00  0.00     0.044 C 
HETATM    9  C   UNL     1      44.472 -22.646   4.176  1.00  0.00     0.011 C 
HETATM   10  C   UNL     1      44.636 -22.208   2.712  1.00  0.00     0.058 C 
ENDROOT
BRANCH   3  11
HETATM   11  C   UNL     1      43.504 -17.649   1.063  1.00  0.00     0.085 C 
BRANCH  11  12
HETATM   12  C   UNL     1      42.328 -16.734   1.428  1.00  0.00     0.021 C 
HETATM   13  C   UNL     1      41.035 -17.499   1.725  1.00  0.00     0.181 C 
HETATM   14  O   UNL     1      40.021 -16.617   2.214  1.00  0.00    -0.350 OA
HETATM   15  C   UNL     1      39.801 -15.518   1.424  1.00  0.00     0.077 A 
HETATM   16  C   UNL     1      40.732 -15.052   0.489  1.00  0.00    -0.024 A 
HETATM   17  C   UNL     1      38.593 -14.846   1.627  1.00  0.00     0.074 A 
HETATM   18  C   UNL     1      42.036 -15.762   0.277  1.00  0.00     0.048 C 
HETATM   19  C   UNL     1      40.416 -13.927  -0.278  1.00  0.00     0.012 A 
HETATM   20  C   UNL     1      39.199 -13.267  -0.087  1.00  0.00     0.037 A 
HETATM   21  C   UNL     1      38.284 -13.719   0.867  1.00  0.00     0.070 A 
BRANCH  21  22
HETATM   22  O   UNL     1      37.139 -12.977   0.952  1.00  0.00    -0.356 OA
HETATM   23  C   UNL     1      36.979 -11.923   0.010  1.00  0.00     0.210 C 
ENDBRANCH  21  22
ENDBRANCH  11  12
ENDBRANCH   3  11
BRANCH   1  24
HETATM   24  N   UNL     1      44.386 -18.511   5.733  1.00  0.00    -0.281 NA
HETATM   25  C   UNL     1      44.016 -17.121   5.959  1.00  0.00     0.114 C 
HETATM   26  H   UNL     1      45.278 -18.735   6.166  1.00  0.00     0.128 HD
ENDBRANCH   1  24
TORSDOF 4
ENDMDL
MODEL 3
REMARK VINA RESULT:      -7.9      4.110      5.620
REMARK  4 active torsions:
REMARK  status: ('A' for Active; 'I' for Inactive)
REMARK    1  A    between atoms: N_2  and  C_3 
REMARK    2  A    between atoms: C_5  and  C_6 
REMARK    3  A    between atoms: C_6  and  C_7 
REMARK    4  A    between atoms: C_14  and  O_15 
ROOT
HETATM    1  C   UNL     1      44.060 -19.148   2.975  1.00  0.00     0.113 A 
HETATM    2  N   UNL     1      44.130 -18.199   3.929  1.00  0.00    -0.223 NA
HETATM    3  C   UNL     1      44.387 -18.575   5.211  1.00  0.00     0.106 A 
HETATM    4  N   UNL     1      44.569 -19.853   5.578  1.00  0.00    -0.347 N 
HETATM    5  H   UNL     1      44.745 -20.094   6.550  1.00  0.00     0.167 HD
HETATM    6  C   UNL     1      44.522 -20.790   4.635  1.00  0.00     0.020 A 
HETATM    7  C   UNL     1      44.277 -20.465   3.312  1.00  0.00     0.005 A 
HETATM    8  C   UNL     1      44.273 -21.695   2.463  1.00  0.00     0.044 C 
HETATM    9  C   UNL     1      44.984 -22.702   3.389  1.00  0.00     0.011 C 
HETATM   10  C   UNL     1      44.694 -22.262   4.833  1.00  0.00     0.058 C 
ENDROOT
BRANCH   3  11
HETATM   11  C   UNL     1      44.438 -17.500   6.260  1.00  0.00     0.085 C 
BRANCH  11  12
HETATM   12  C   UNL     1      43.783 -16.191   5.803  1.00  0.00     0.021 C 
HETATM   13  C   UNL     1      44.286 -14.962   6.567  1.00  0.00     0.181 C 
HETATM   14  O   UNL     1      43.767 -13.758   5.996  1.00  0.00    -0.350 OA
HETATM   15  C   UNL     1      42.405 -13.748   5.844  1.00  0.00     0.077 A 
HETATM   16  C   UNL     1      41.632 -14.914   5.823  1.00  0.00    -0.024 A 
HETATM   17  C   UNL     1      41.815 -12.493   5.668  1.00  0.00     0.074 A 
HETATM   18  C   UNL     1      42.263 -16.264   5.997  1.00  0.00     0.048 C 
HETATM   19  C   UNL     1      40.246 -14.803   5.670  1.00  0.00     0.012 A 
HETATM   20  C   UNL     1      39.656 -13.547   5.513  1.00  0.00     0.037 A 
HETATM   21  C   UNL     1      40.434 -12.388   5.508  1.00  0.00     0.070 A 
BRANCH  21  22
HETATM   22  O   UNL     1      39.728 -11.230   5.340  1.00  0.00    -0.356 OA
HETATM   23  C   UNL     1      38.671 -11.248   4.388  1.00  0.00     0.210 C 
ENDBRANCH  21  22
ENDBRANCH  11  12
ENDBRANCH   3  11
BRANCH   1  24
HETATM   24  N   UNL     1      43.863 -18.799   1.644  1.00  0.00    -0.281 NA
HETATM   25  C   UNL     1      43.888 -17.375   1.338  1.00  0.00     0.114 C 
HETATM   26  H   UNL     1      43.044 -19.252   1.246  1.00  0.00     0.128 HD
ENDBRANCH   1  24
TORSDOF 4
ENDMDL
MODEL 4
REMARK VINA RESULT:      -7.8      2.020      2.358
REMARK  4 active torsions:
REMARK  status: ('A' for Active; 'I' for Inactive)
REMARK    1  A    between atoms: N_2  and  C_3 
REMARK    2  A    between atoms: C_5  and  C_6 
REMARK    3  A    between atoms: C_6  and  C_7 
REMARK    4  A    between atoms: C_14  and  O_15 
ROOT
HETATM    1  C   UNL     1      44.013 -18.501   5.179  1.00  0.00     0.113 A 
HETATM    2  N   UNL     1      43.103 -17.509   5.114  1.00  0.00    -0.223 NA
HETATM    3  C   UNL     1      42.353 -17.379   3.986  1.00  0.00     0.106 A 
HETATM    4  N   UNL     1      42.477 -18.192   2.925  1.00  0.00    -0.347 N 
HETATM    5  H   UNL     1      41.907 -18.052   2.095  1.00  0.00     0.167 HD
HETATM    6  C   UNL     1      43.359 -19.185   2.994  1.00  0.00     0.020 A 
HETATM    7  C   UNL     1      44.141 -19.373   4.121  1.00  0.00     0.005 A 
HETATM    8  C   UNL     1      45.045 -20.550   3.940  1.00  0.00     0.044 C 
HETATM    9  C   UNL     1      44.368 -21.269   2.757  1.00  0.00     0.011 C 
HETATM   10  C   UNL     1      43.653 -20.191   1.929  1.00  0.00     0.058 C 
ENDROOT
BRANCH   3  11
HETATM   11  C   UNL     1      41.361 -16.251   3.931  1.00  0.00     0.085 C 
BRANCH  11  12
HETATM   12  C   UNL     1      40.906 -15.928   2.503  1.00  0.00     0.021 C 
HETATM   13  C   UNL     1      41.897 -15.047   1.736  1.00  0.00     0.181 C 
HETATM   14  O   UNL     1      41.505 -14.910   0.368  1.00  0.00    -0.350 OA
HETATM   15  C   UNL     1      40.208 -14.502   0.190  1.00  0.00     0.077 A 
HETATM   16  C   UNL     1      39.229 -14.624   1.182  1.00  0.00    -0.024 A 
HETATM   17  C   UNL     1      39.893 -13.984  -1.069  1.00  0.00     0.074 A 
HETATM   18  C   UNL     1      39.560 -15.193   2.530  1.00  0.00     0.048 C 
HETATM   19  C   UNL     1      37.933 -14.173   0.911  1.00  0.00     0.012 A 
HETATM   20  C   UNL     1      37.624 -13.637  -0.341  1.00  0.00     0.037 A 
HETATM   21  C   UNL     1      38.598 -13.543  -1.338  1.00  0.00     0.070 A 
BRANCH  21  22
HETATM   22  O   UNL     1      38.157 -13.006  -2.514  1.00  0.00    -0.356 OA
HETATM   23  C   UNL     1      37.609 -13.905  -3.471  1.00  0.00     0.210 C 
ENDBRANCH  21  22
ENDBRANCH  11  12
ENDBRANCH   3  11
BRANCH   1  24
HETATM   24  N   UNL     1      44.754 -18.706   6.337  1.00  0.00    -0.281 NA
HETATM   25  C   UNL     1      43.995 -18.923   7.560  1.00  0.00     0.114 C 
HETATM   26  H   UNL     1      45.472 -17.996   6.463  1.00  0.00     0.128 HD
ENDBRANCH   1  24
TORSDOF 4
ENDMDL
MODEL 5
REMARK VINA RESULT:      -7.8      3.621      5.384
REMARK  4 active torsions:
REMARK  status: ('A' for Active; 'I' for Inactive)
REMARK    1  A    between atoms: N_2  and  C_3 
REMARK    2  A    between atoms: C_5  and  C_6 
REMARK    3  A    between atoms: C_6  and  C_7 
REMARK    4  A    between atoms: C_14  and  O_15 
ROOT
HETATM    1  C   UNL     1      44.448 -19.205   5.088  1.00  0.00     0.113 A 
HETATM    2  N   UNL     1      44.020 -18.045   4.551  1.00  0.00    -0.223 NA
HETATM    3  C   UNL     1      43.746 -18.001   3.219  1.00  0.00     0.106 A 
HETATM    4  N   UNL     1      43.887 -19.059   2.405  1.00  0.00    -0.347 N 
HETATM    5  H   UNL     1      43.684 -18.981   1.412  1.00  0.00     0.167 HD
HETATM    6  C   UNL     1      44.288 -20.211   2.936  1.00  0.00     0.020 A 
HETATM    7  C   UNL     1      44.569 -20.318   4.287  1.00  0.00     0.005 A 
HETATM    8  C   UNL     1      45.001 -21.710   4.622  1.00  0.00     0.044 C 
HETATM    9  C   UNL     1      44.504 -22.484   3.386  1.00  0.00     0.011 C 
HETATM   10  C   UNL     1      44.510 -21.497   2.208  1.00  0.00     0.058 C 
ENDROOT
BRANCH   3  11
HETATM   11  C   UNL     1      43.291 -16.690   2.641  1.00  0.00     0.085 C 
BRANCH  11  12
HETATM   12  C   UNL     1      42.275 -15.966   3.532  1.00  0.00     0.021 C 
HETATM   13  C   UNL     1      41.043 -15.471   2.768  1.00  0.00     0.181 C 
HETATM   14  O   UNL     1      40.061 -14.951   3.667  1.00  0.00    -0.350 OA
HETATM   15  C   UNL     1      40.539 -14.008   4.541  1.00  0.00     0.077 A 
HETATM   16  C   UNL     1      41.897 -13.870   4.845  1.00  0.00    -0.024 A 
HETATM   17  C   UNL     1      39.580 -13.199   5.158  1.00  0.00     0.074 A 
HETATM   18  C   UNL     1      42.927 -14.747   4.196  1.00  0.00     0.048 C 
HETATM   19  C   UNL     1      42.291 -12.874   5.744  1.00  0.00     0.012 A 
HETATM   20  C   UNL     1      41.334 -12.054   6.345  1.00  0.00     0.037 A 
HETATM   21  C   UNL     1      39.976 -12.212   6.059  1.00  0.00     0.070 A 
BRANCH  21  22
HETATM   22  O   UNL     1      39.151 -11.347   6.721  1.00  0.00    -0.356 OA
HETATM   23  C   UNL     1      39.491 -11.029   8.066  1.00  0.00     0.210 C 
ENDBRANCH  21  22
ENDBRANCH  11  12
ENDBRANCH   3  11
BRANCH   1  24
HETATM   24  N   UNL     1      44.677 -19.309   6.455  1.00  0.00    -0.281 NA
HETATM   25  C   UNL     1      43.599 -18.863   7.327  1.00  0.00     0.114 C 
HETATM   26  H   UNL     1      45.569 -18.901   6.726  1.00  0.00     0.128 HD
ENDBRANCH   1  24
TORSDOF 4
ENDMDL
MODEL 6
REMARK VINA RESULT:      -7.7      3.291      7.524
REMARK  4 active torsions:
REMARK  status: ('A' for Active; 'I' for Inactive)
REMARK    1  A    between atoms: N_2  and  C_3 
REMARK    2  A    between atoms: C_5  and  C_6 
REMARK    3  A    between atoms: C_6  and  C_7 
REMARK    4  A    between atoms: C_14  and  O_15 
ROOT
HETATM    1  C   UNL     1      41.705 -13.093   0.096  1.00  0.00     0.113 A 
HETATM    2  N   UNL     1      41.100 -13.646   1.166  1.00  0.00    -0.223 NA
HETATM    3  C   UNL     1      40.280 -14.714   0.976  1.00  0.00     0.106 A 
HETATM    4  N   UNL     1      40.035 -15.247  -0.232  1.00  0.00    -0.347 N 
HETATM    5  H   UNL     1      39.404 -16.038  -0.332  1.00  0.00     0.167 HD
HETATM    6  C   UNL     1      40.647 -14.717  -1.287  1.00  0.00     0.020 A 
HETATM    7  C   UNL     1      41.502 -13.637  -1.153  1.00  0.00     0.005 A 
HETATM    8  C   UNL     1      42.052 -13.237  -2.484  1.00  0.00     0.044 C 
HETATM    9  C   UNL     1      41.753 -14.494  -3.323  1.00  0.00     0.011 C 
HETATM   10  C   UNL     1      40.509 -15.156  -2.709  1.00  0.00     0.058 C 
ENDROOT
BRANCH   3  11
HETATM   11  C   UNL     1      39.600 -15.299   2.183  1.00  0.00     0.085 C 
BRANCH  11  12
HETATM   12  C   UNL     1      40.490 -16.286   2.948  1.00  0.00     0.021 C 
HETATM   13  C   UNL     1      41.551 -15.601   3.814  1.00  0.00     0.181 C 
HETATM   14  O   UNL     1      42.243 -16.554   4.624  1.00  0.00    -0.350 OA
HETATM   15  C   UNL     1      42.755 -17.619   3.928  1.00  0.00     0.077 A 
HETATM   16  C   UNL     1      42.299 -17.990   2.659  1.00  0.00    -0.024 A 
HETATM   17  C   UNL     1      43.748 -18.358   4.577  1.00  0.00     0.074 A 
HETATM   18  C   UNL     1      41.223 -17.209   1.965  1.00  0.00     0.048 C 
HETATM   19  C   UNL     1      42.888 -19.088   2.023  1.00  0.00     0.012 A 
HETATM   20  C   UNL     1      43.894 -19.813   2.665  1.00  0.00     0.037 A 
HETATM   21  C   UNL     1      44.327 -19.456   3.944  1.00  0.00     0.070 A 
BRANCH  21  22
HETATM   22  O   UNL     1      45.312 -20.255   4.454  1.00  0.00    -0.356 OA
HETATM   23  C   UNL     1      44.979 -21.617   4.698  1.00  0.00     0.210 C 
ENDBRANCH  21  22
ENDBRANCH  11  12
ENDBRANCH   3  11
BRANCH   1  24
HETATM   24  N   UNL     1      42.599 -12.041   0.254  1.00  0.00    -0.281 NA
HETATM   25  C   UNL     1      42.033 -10.700   0.214  1.00  0.00     0.114 C 
HETATM   26  H   UNL     1      43.403 -12.125  -0.362  1.00  0.00     0.128 HD
ENDBRANCH   1  24
TORSDOF 4
ENDMDL
MODEL 7
REMARK VINA RESULT:      -7.6      1.213      2.535
REMARK  4 active torsions:
REMARK  status: ('A' for Active; 'I' for Inactive)
REMARK    1  A    between atoms: N_2  and  C_3 
REMARK    2  A    between atoms: C_5  and  C_6 
REMARK    3  A    between atoms: C_6  and  C_7 
REMARK    4  A    between atoms: C_14  and  O_15 
ROOT
HETATM    1  C   UNL     1      43.773 -19.586   2.822  1.00  0.00     0.113 A 
HETATM    2  N   UNL     1      42.877 -19.034   1.980  1.00  0.00    -0.223 NA
HETATM    3  C   UNL     1      42.137 -17.978   2.411  1.00  0.00     0.106 A 
HETATM    4  N   UNL     1      42.249 -17.457   3.644  1.00  0.00    -0.347 N 
HETATM    5  H   UNL     1      41.667 -16.675   3.932  1.00  0.00     0.167 HD
HETATM    6  C   UNL     1      43.148 -17.986   4.469  1.00  0.00     0.020 A 
HETATM    7  C   UNL     1      43.938 -19.054   4.080  1.00  0.00     0.005 A 
HETATM    8  C   UNL     1      44.856 -19.456   5.190  1.00  0.00     0.044 C 
HETATM    9  C   UNL     1      44.802 -18.208   6.092  1.00  0.00     0.011 C 
HETATM   10  C   UNL     1      43.426 -17.559   5.874  1.00  0.00     0.058 C 
ENDROOT
BRANCH   3  11
HETATM   11  C   UNL     1      41.129 -17.394   1.461  1.00  0.00     0.085 C 
BRANCH  11  12
HETATM   12  C   UNL     1      41.678 -16.201   0.669  1.00  0.00     0.021 C 
HETATM   13  C   UNL     1      41.368 -14.848   1.318  1.00  0.00     0.181 C 
HETATM   14  O   UNL     1      42.036 -13.788   0.630  1.00  0.00    -0.350 OA
HETATM   15  C   UNL     1      41.823 -13.771  -0.724  1.00  0.00     0.077 A 
HETATM   16  C   UNL     1      41.380 -14.888  -1.439  1.00  0.00    -0.024 A 
HETATM   17  C   UNL     1      42.113 -12.570  -1.378  1.00  0.00     0.074 A 
HETATM   18  C   UNL     1      41.081 -16.183  -0.744  1.00  0.00     0.048 C 
HETATM   19  C   UNL     1      41.184 -14.774  -2.819  1.00  0.00     0.012 A 
HETATM   20  C   UNL     1      41.456 -13.567  -3.468  1.00  0.00     0.037 A 
HETATM   21  C   UNL     1      41.925 -12.462  -2.755  1.00  0.00     0.070 A 
BRANCH  21  22
HETATM   22  O   UNL     1      42.155 -11.350  -3.515  1.00  0.00    -0.356 OA
HETATM   23  C   UNL     1      42.703 -10.216  -2.853  1.00  0.00     0.210 C 
ENDBRANCH  21  22
ENDBRANCH  11  12
ENDBRANCH   3  11
BRANCH   1  24
HETATM   24  N   UNL     1      44.593 -20.626   2.399  1.00  0.00    -0.281 NA
HETATM   25  C   UNL     1      43.928 -21.762   1.775  1.00  0.00     0.114 C 
HETATM   26  H   UNL     1      45.239 -20.925   3.125  1.00  0.00     0.128 HD
ENDBRANCH   1  24
TORSDOF 4
ENDMDL
MODEL 8
REMARK VINA RESULT:      -7.6      3.251      8.486
REMARK  4 active torsions:
REMARK  status: ('A' for Active; 'I' for Inactive)
REMARK    1  A    between atoms: N_2  and  C_3 
REMARK    2  A    between atoms: C_5  and  C_6 
REMARK    3  A    between atoms: C_6  and  C_7 
REMARK    4  A    between atoms: C_14  and  O_15 
ROOT
HETATM    1  C   UNL     1      41.198 -14.322  -2.420  1.00  0.00     0.113 A 
HETATM    2  N   UNL     1      40.891 -14.943  -1.264  1.00  0.00    -0.223 NA
HETATM    3  C   UNL     1      41.281 -14.376  -0.091  1.00  0.00     0.106 A 
HETATM    4  N   UNL     1      41.967 -13.224  -0.025  1.00  0.00    -0.347 N 
HETATM    5  H   UNL     1      42.253 -12.840   0.872  1.00  0.00     0.167 HD
HETATM    6  C   UNL     1      42.253 -12.598  -1.164  1.00  0.00     0.020 A 
HETATM    7  C   UNL     1      41.870 -13.122  -2.386  1.00  0.00     0.005 A 
HETATM    8  C   UNL     1      42.315 -12.229  -3.500  1.00  0.00     0.044 C 
HETATM    9  C   UNL     1      42.604 -10.921  -2.739  1.00  0.00     0.011 C 
HETATM   10  C   UNL     1      43.006 -11.315  -1.309  1.00  0.00     0.058 C 
ENDROOT
BRANCH   3  11
HETATM   11  C   UNL     1      40.946 -15.100   1.183  1.00  0.00     0.085 C 
BRANCH  11  12
HETATM   12  C   UNL     1      41.993 -16.152   1.564  1.00  0.00     0.021 C 
HETATM   13  C   UNL     1      41.586 -17.579   1.182  1.00  0.00     0.181 C 
HETATM   14  O   UNL     1      42.660 -18.495   1.411  1.00  0.00    -0.350 OA
HETATM   15  C   UNL     1      43.195 -18.431   2.672  1.00  0.00     0.077 A 
HETATM   16  C   UNL     1      43.040 -17.324   3.511  1.00  0.00    -0.024 A 
HETATM   17  C   UNL     1      43.955 -19.534   3.074  1.00  0.00     0.074 A 
HETATM   18  C   UNL     1      42.237 -16.132   3.079  1.00  0.00     0.048 C 
HETATM   19  C   UNL     1      43.617 -17.354   4.785  1.00  0.00     0.012 A 
HETATM   20  C   UNL     1      44.359 -18.464   5.192  1.00  0.00     0.037 A 
HETATM   21  C   UNL     1      44.536 -19.557   4.340  1.00  0.00     0.070 A 
BRANCH  21  22
HETATM   22  O   UNL     1      45.288 -20.571   4.864  1.00  0.00    -0.356 OA
HETATM   23  C   UNL     1      44.742 -21.883   4.798  1.00  0.00     0.210 C 
ENDBRANCH  21  22
ENDBRANCH  11  12
ENDBRANCH   3  11
BRANCH   1  24
HETATM   24  N   UNL     1      40.762 -14.836  -3.636  1.00  0.00    -0.281 NA
HETATM   25  C   UNL     1      39.874 -15.989  -3.570  1.00  0.00     0.114 C 
HETATM   26  H   UNL     1      41.531 -14.994  -4.283  1.00  0.00     0.128 HD
ENDBRANCH   1  24
TORSDOF 4
ENDMDL
MODEL 9
REMARK VINA RESULT:      -7.5      3.635      8.361
REMARK  4 active torsions:
REMARK  status: ('A' for Active; 'I' for Inactive)
REMARK    1  A    between atoms: N_2  and  C_3 
REMARK    2  A    between atoms: C_5  and  C_6 
REMARK    3  A    between atoms: C_6  and  C_7 
REMARK    4  A    between atoms: C_14  and  O_15 
ROOT
HETATM    1  C   UNL     1      40.918 -12.879  -0.107  1.00  0.00     0.113 A 
HETATM    2  N   UNL     1      41.605 -14.038  -0.135  1.00  0.00    -0.223 NA
HETATM    3  C   UNL     1      40.950 -15.197   0.146  1.00  0.00     0.106 A 
HETATM    4  N   UNL     1      39.645 -15.245   0.459  1.00  0.00    -0.347 N 
HETATM    5  H   UNL     1      39.196 -16.130   0.676  1.00  0.00     0.167 HD
HETATM    6  C   UNL     1      38.960 -14.105   0.467  1.00  0.00     0.020 A 
HETATM    7  C   UNL     1      39.571 -12.898   0.177  1.00  0.00     0.005 A 
HETATM    8  C   UNL     1      38.583 -11.779   0.259  1.00  0.00     0.044 C 
HETATM    9  C   UNL     1      37.250 -12.549   0.194  1.00  0.00     0.011 C 
HETATM   10  C   UNL     1      37.509 -13.941   0.791  1.00  0.00     0.058 C 
ENDROOT
BRANCH   3  11
HETATM   11  C   UNL     1      41.744 -16.473   0.128  1.00  0.00     0.085 C 
BRANCH  11  12
HETATM   12  C   UNL     1      41.827 -17.142   1.506  1.00  0.00     0.021 C 
HETATM   13  C   UNL     1      41.965 -16.142   2.658  1.00  0.00     0.181 C 
HETATM   14  O   UNL     1      41.876 -16.805   3.921  1.00  0.00    -0.350 OA
HETATM   15  C   UNL     1      42.726 -17.872   4.060  1.00  0.00     0.077 A 
HETATM   16  C   UNL     1      43.303 -18.533   2.971  1.00  0.00    -0.024 A 
HETATM   17  C   UNL     1      42.966 -18.302   5.368  1.00  0.00     0.074 A 
HETATM   18  C   UNL     1      43.037 -18.083   1.564  1.00  0.00     0.048 C 
HETATM   19  C   UNL     1      44.165 -19.608   3.211  1.00  0.00     0.012 A 
HETATM   20  C   UNL     1      44.418 -20.024   4.520  1.00  0.00     0.037 A 
HETATM   21  C   UNL     1      43.819 -19.379   5.604  1.00  0.00     0.070 A 
BRANCH  21  22
HETATM   22  O   UNL     1      44.150 -19.893   6.826  1.00  0.00    -0.356 OA
HETATM   23  C   UNL     1      43.595 -21.158   7.167  1.00  0.00     0.210 C 
ENDBRANCH  21  22
ENDBRANCH  11  12
ENDBRANCH   3  11
BRANCH   1  24
HETATM   24  N   UNL     1      41.536 -11.682  -0.450  1.00  0.00    -0.281 NA
HETATM   25  C   UNL     1      42.674 -11.778  -1.354  1.00  0.00     0.114 C 
HETATM   26  H   UNL     1      41.754 -11.116   0.366  1.00  0.00     0.128 HD
ENDBRANCH   1  24
TORSDOF 4
ENDMDL
MODEL 10
REMARK VINA RESULT:      -7.3      3.336      8.237
REMARK  4 active torsions:
REMARK  status: ('A' for Active; 'I' for Inactive)
REMARK    1  A    between atoms: N_2  and  C_3 
REMARK    2  A    between atoms: C_5  and  C_6 
REMARK    3  A    between atoms: C_6  and  C_7 
REMARK    4  A    between atoms: C_14  and  O_15 
ROOT
HETATM    1  C   UNL     1      41.650 -13.220  -1.253  1.00  0.00     0.113 A 
HETATM    2  N   UNL     1      41.829 -13.707  -0.008  1.00  0.00    -0.223 NA
HETATM    3  C   UNL     1      40.795 -14.349   0.600  1.00  0.00     0.106 A 
HETATM    4  N   UNL     1      39.596 -14.519   0.022  1.00  0.00    -0.347 N 
HETATM    5  H   UNL     1      38.844 -14.993   0.516  1.00  0.00     0.167 HD
HETATM    6  C   UNL     1      39.423 -14.060  -1.214  1.00  0.00     0.020 A 
HETATM    7  C   UNL     1      40.443 -13.409  -1.886  1.00  0.00     0.005 A 
HETATM    8  C   UNL     1      39.989 -12.993  -3.249  1.00  0.00     0.044 C 
HETATM    9  C   UNL     1      38.739 -13.875  -3.432  1.00  0.00     0.011 C 
HETATM   10  C   UNL     1      38.172 -14.143  -2.029  1.00  0.00     0.058 C 
ENDROOT
BRANCH   3  11
HETATM   11  C   UNL     1      41.014 -14.862   1.995  1.00  0.00     0.085 C 
BRANCH  11  12
HETATM   12  C   UNL     1      41.951 -16.075   2.044  1.00  0.00     0.021 C 
HETATM   13  C   UNL     1      41.295 -17.369   1.556  1.00  0.00     0.181 C 
HETATM   14  O   UNL     1      42.253 -18.427   1.471  1.00  0.00    -0.350 OA
HETATM   15  C   UNL     1      42.984 -18.619   2.614  1.00  0.00     0.077 A 
HETATM   16  C   UNL     1      43.119 -17.642   3.606  1.00  0.00    -0.024 A 
HETATM   17  C   UNL     1      43.637 -19.850   2.728  1.00  0.00     0.074 A 
HETATM   18  C   UNL     1      42.432 -16.314   3.482  1.00  0.00     0.048 C 
HETATM   19  C   UNL     1      43.880 -17.932   4.743  1.00  0.00     0.012 A 
HETATM   20  C   UNL     1      44.515 -19.170   4.863  1.00  0.00     0.037 A 
HETATM   21  C   UNL     1      44.401 -20.133   3.858  1.00  0.00     0.070 A 
BRANCH  21  22
HETATM   22  O   UNL     1      45.079 -21.294   4.104  1.00  0.00    -0.356 OA
HETATM   23  C   UNL     1      44.603 -22.470   3.458  1.00  0.00     0.210 C 
ENDBRANCH  21  22
ENDBRANCH  11  12
ENDBRANCH   3  11
BRANCH   1  24
HETATM   24  N   UNL     1      42.701 -12.614  -1.932  1.00  0.00    -0.281 NA
HETATM   25  C   UNL     1      43.017 -11.246  -1.545  1.00  0.00     0.114 C 
HETATM   26  H   UNL     1      42.608 -12.705  -2.941  1.00  0.00     0.128 HD
ENDBRANCH   1  24
TORSDOF 4
ENDMDL
