MODEL 1
REMARK VINA RESULT:      -9.2      0.000      0.000
REMARK  5 active torsions:
REMARK  status: ('A' for Active; 'I' for Inactive)
REMARK    1  A    between atoms: C_2  and  C_3 
REMARK    2  A    between atoms: C_7  and  C_8 
REMARK    3  A    between atoms: C_8  and  N_9 
REMARK       I    between atoms: N_9  and  C_10 
REMARK       I    between atoms: C_10  and  N_11 
REMARK    4  A    between atoms: N_11  and  C_12 
REMARK    5  A    between atoms: N_18  and  C_19 
ROOT
HETATM    1  N   UNL     1      41.477 -13.007   6.040  1.00  0.00    -0.337 N 
HETATM    2  C   UNL     1      40.290 -13.650   6.209  1.00  0.00     0.321 C 
HETATM    3  N   UNL     1      40.284 -15.009   6.201  1.00  0.00    -0.309 N 
HETATM    4  O   UNL     1      39.233 -13.056   6.417  1.00  0.00    -0.247 OA
HETATM    5  H   UNL     1      42.266 -13.539   6.371  1.00  0.00     0.164 HD
HETATM    6  H   UNL     1      39.384 -15.351   6.519  1.00  0.00     0.170 HD
ENDROOT
BRANCH   3   7
HETATM    7  C   UNL     1      41.226 -15.989   5.838  1.00  0.00     0.037 A 
HETATM    8  C   UNL     1      41.307 -16.581   4.575  1.00  0.00     0.047 A 
HETATM    9  C   UNL     1      42.295 -17.533   4.376  1.00  0.00     0.050 A 
HETATM   10  C   UNL     1      43.167 -17.914   5.378  1.00  0.00     0.048 A 
HETATM   11  C   UNL     1      42.645 -18.294   3.178  1.00  0.00     0.262 A 
HETATM   12  C   UNL     1      44.075 -18.918   4.827  1.00  0.00     0.262 A 
HETATM   13  C   UNL     1      43.101 -17.370   6.641  1.00  0.00     0.020 A 
HETATM   14  O   UNL     1      44.995 -19.407   5.455  1.00  0.00    -0.267 OA
HETATM   15  N   UNL     1      43.679 -19.127   3.529  1.00  0.00    -0.275 N 
HETATM   16  C   UNL     1      42.112 -16.405   6.866  1.00  0.00     0.030 A 
HETATM   17  O   UNL     1      42.099 -18.133   2.102  1.00  0.00    -0.267 OA
BRANCH  15  18
HETATM   18  C   UNL     1      44.361 -19.996   2.623  1.00  0.00     0.096 A 
HETATM   19  C   UNL     1      44.497 -21.471   2.904  1.00  0.00     0.028 A 
HETATM   20  C   UNL     1      43.627 -21.004   1.777  1.00  0.00     0.028 A 
ENDBRANCH  15  18
ENDBRANCH   3   7
BRANCH   1  21
HETATM   21  C   UNL     1      41.590 -11.584   6.291  1.00  0.00     0.183 C 
BRANCH  21  22
HETATM   22  C   UNL     1      42.073 -11.296   7.661  1.00  0.00     0.047 A 
HETATM   23  N   UNL     1      41.219 -10.972   8.680  1.00  0.00    -0.280 N 
HETATM   24  N   UNL     1      41.818 -10.862   9.875  1.00  0.00    -0.178 NA
HETATM   25  H   UNL     1      40.211 -10.830   8.612  1.00  0.00     0.189 HD
HETATM   26  C   UNL     1      43.111 -11.113   9.626  1.00  0.00     0.064 A 
HETATM   27  C   UNL     1      43.319 -11.370   8.244  1.00  0.00     0.058 A 
BRANCH  26  28
HETATM   28  C   UNL     1      44.138 -11.162  10.748  1.00  0.00    -0.005 C 
HETATM   29  C   UNL     1      44.182 -12.544  11.438  1.00  0.00     0.021 C 
HETATM   30  C   UNL     1      43.812 -10.110  11.826  1.00  0.00     0.021 C 
HETATM   31  C   UNL     1      45.539 -10.870  10.173  1.00  0.00     0.021 C 
ENDBRANCH  26  28
ENDBRANCH  21  22
ENDBRANCH   1  21
TORSDOF 5
ENDMDL
MODEL 2
REMARK VINA RESULT:      -8.9      1.121      2.127
REMARK  5 active torsions:
REMARK  status: ('A' for Active; 'I' for Inactive)
REMARK    1  A    between atoms: C_2  and  C_3 
REMARK    2  A    between atoms: C_7  and  C_8 
REMARK    3  A    between atoms: C_8  and  N_9 
REMARK       I    between atoms: N_9  and  C_10 
REMARK       I    between atoms: C_10  and  N_11 
REMARK    4  A    between atoms: N_11  and  C_12 
REMARK    5  A    between atoms: N_18  and  C_19 
ROOT
HETATM    1  N   UNL     1      41.220 -12.483   6.262  1.00  0.00    -0.337 N 
HETATM    2  C   UNL     1      40.037 -13.117   6.485  1.00  0.00     0.321 C 
HETATM    3  N   UNL     1      39.984 -14.464   6.320  1.00  0.00    -0.309 N 
HETATM    4  O   UNL     1      39.029 -12.530   6.877  1.00  0.00    -0.247 OA
HETATM    5  H   UNL     1      42.021 -13.068   6.439  1.00  0.00     0.164 HD
HETATM    6  H   UNL     1      39.111 -14.823   6.694  1.00  0.00     0.170 HD
ENDROOT
BRANCH   3   7
HETATM    7  C   UNL     1      40.847 -15.414   5.744  1.00  0.00     0.037 A 
HETATM    8  C   UNL     1      41.676 -16.274   6.470  1.00  0.00     0.047 A 
HETATM    9  C   UNL     1      42.468 -17.157   5.752  1.00  0.00     0.050 A 
HETATM   10  C   UNL     1      42.472 -17.192   4.371  1.00  0.00     0.048 A 
HETATM   11  C   UNL     1      43.401 -18.181   6.218  1.00  0.00     0.262 A 
HETATM   12  C   UNL     1      43.403 -18.234   3.949  1.00  0.00     0.262 A 
HETATM   13  C   UNL     1      41.686 -16.343   3.623  1.00  0.00     0.020 A 
HETATM   14  O   UNL     1      43.584 -18.543   2.786  1.00  0.00    -0.267 OA
HETATM   15  N   UNL     1      43.952 -18.751   5.096  1.00  0.00    -0.275 N 
HETATM   16  C   UNL     1      40.876 -15.444   4.326  1.00  0.00     0.030 A 
HETATM   17  O   UNL     1      43.570 -18.444   7.395  1.00  0.00    -0.267 OA
BRANCH  15  18
HETATM   18  C   UNL     1      44.869 -19.847   5.114  1.00  0.00     0.096 A 
HETATM   19  C   UNL     1      44.449 -21.212   5.598  1.00  0.00     0.028 A 
HETATM   20  C   UNL     1      44.756 -20.998   4.147  1.00  0.00     0.028 A 
ENDBRANCH  15  18
ENDBRANCH   3   7
BRANCH   1  21
HETATM   21  C   UNL     1      41.408 -11.103   6.662  1.00  0.00     0.183 C 
BRANCH  21  22
HETATM   22  C   UNL     1      41.883 -10.987   8.059  1.00  0.00     0.047 A 
HETATM   23  N   UNL     1      41.021 -10.921   9.119  1.00  0.00    -0.280 N 
HETATM   24  N   UNL     1      41.628 -10.940  10.315  1.00  0.00    -0.178 NA
HETATM   25  H   UNL     1      40.002 -10.876   9.077  1.00  0.00     0.189 HD
HETATM   26  C   UNL     1      42.934 -11.011  10.026  1.00  0.00     0.064 A 
HETATM   27  C   UNL     1      43.141 -11.022   8.619  1.00  0.00     0.058 A 
BRANCH  26  28
HETATM   28  C   UNL     1      43.982 -11.130  11.123  1.00  0.00    -0.005 C 
HETATM   29  C   UNL     1      45.418 -10.952  10.581  1.00  0.00     0.021 C 
HETATM   30  C   UNL     1      43.904 -12.514  11.798  1.00  0.00     0.021 C 
HETATM   31  C   UNL     1      43.735 -10.042  12.188  1.00  0.00     0.021 C 
ENDBRANCH  26  28
ENDBRANCH  21  22
ENDBRANCH   1  21
TORSDOF 5
ENDMDL
MODEL 3
REMARK VINA RESULT:      -8.5      4.263      7.272
REMARK  5 active torsions:
REMARK  status: ('A' for Active; 'I' for Inactive)
REMARK    1  A    between atoms: C_2  and  C_3 
REMARK    2  A    between atoms: C_7  and  C_8 
REMARK    3  A    between atoms: C_8  and  N_9 
REMARK       I    between atoms: N_9  and  C_10 
REMARK       I    between atoms: C_10  and  N_11 
REMARK    4  A    between atoms: N_11  and  C_12 
REMARK    5  A    between atoms: N_18  and  C_19 
ROOT
HETATM    1  N   UNL     1      39.775 -14.940   2.902  1.00  0.00    -0.337 N 
HETATM    2  C   UNL     1      40.394 -14.157   3.826  1.00  0.00     0.321 C 
HETATM    3  N   UNL     1      41.541 -14.612   4.394  1.00  0.00    -0.309 N 
HETATM    4  O   UNL     1      39.989 -13.036   4.130  1.00  0.00    -0.247 OA
HETATM    5  H   UNL     1      40.411 -15.538   2.399  1.00  0.00     0.164 HD
HETATM    6  H   UNL     1      41.988 -13.863   4.913  1.00  0.00     0.170 HD
ENDROOT
BRANCH   3   7
HETATM    7  C   UNL     1      42.191 -15.859   4.423  1.00  0.00     0.037 A 
HETATM    8  C   UNL     1      42.528 -16.603   3.289  1.00  0.00     0.047 A 
HETATM    9  C   UNL     1      43.170 -17.816   3.487  1.00  0.00     0.050 A 
HETATM   10  C   UNL     1      43.460 -18.303   4.747  1.00  0.00     0.048 A 
HETATM   11  C   UNL     1      43.667 -18.789   2.516  1.00  0.00     0.262 A 
HETATM   12  C   UNL     1      44.140 -19.585   4.589  1.00  0.00     0.262 A 
HETATM   13  C   UNL     1      43.121 -17.608   5.887  1.00  0.00     0.020 A 
HETATM   14  O   UNL     1      44.571 -20.236   5.522  1.00  0.00    -0.267 OA
HETATM   15  N   UNL     1      44.190 -19.834   3.239  1.00  0.00    -0.275 N 
HETATM   16  C   UNL     1      42.473 -16.379   5.713  1.00  0.00     0.030 A 
HETATM   17  O   UNL     1      43.622 -18.614   1.312  1.00  0.00    -0.267 OA
BRANCH  15  18
HETATM   18  C   UNL     1      44.842 -20.968   2.665  1.00  0.00     0.096 A 
HETATM   19  C   UNL     1      44.431 -22.373   3.027  1.00  0.00     0.028 A 
HETATM   20  C   UNL     1      44.162 -21.850   1.649  1.00  0.00     0.028 A 
ENDBRANCH  15  18
ENDBRANCH   3   7
BRANCH   1  21
HETATM   21  C   UNL     1      38.703 -14.412   2.081  1.00  0.00     0.183 C 
BRANCH  21  22
HETATM   22  C   UNL     1      39.080 -14.339   0.651  1.00  0.00     0.047 A 
HETATM   23  N   UNL     1      38.148 -14.217  -0.342  1.00  0.00    -0.280 N 
HETATM   24  N   UNL     1      38.676 -14.046  -1.564  1.00  0.00    -0.178 NA
HETATM   25  H   UNL     1      37.134 -14.228  -0.234  1.00  0.00     0.189 HD
HETATM   26  C   UNL     1      40.000 -14.068  -1.362  1.00  0.00     0.064 A 
HETATM   27  C   UNL     1      40.299 -14.271   0.013  1.00  0.00     0.058 A 
BRANCH  26  28
HETATM   28  C   UNL     1      40.979 -13.829  -2.504  1.00  0.00    -0.005 C 
HETATM   29  C   UNL     1      42.278 -13.144  -2.024  1.00  0.00     0.021 C 
HETATM   30  C   UNL     1      40.343 -12.929  -3.581  1.00  0.00     0.021 C 
HETATM   31  C   UNL     1      41.359 -15.181  -3.143  1.00  0.00     0.021 C 
ENDBRANCH  26  28
ENDBRANCH  21  22
ENDBRANCH   1  21
TORSDOF 5
ENDMDL
MODEL 4
REMARK VINA RESULT:      -8.5      1.652      2.029
REMARK  5 active torsions:
REMARK  status: ('A' for Active; 'I' for Inactive)
REMARK    1  A    between atoms: C_2  and  C_3 
REMARK    2  A    between atoms: C_7  and  C_8 
REMARK    3  A    between atoms: C_8  and  N_9 
REMARK       I    between atoms: N_9  and  C_10 
REMARK       I    between atoms: C_10  and  N_11 
REMARK    4  A    between atoms: N_11  and  C_12 
REMARK    5  A    between atoms: N_18  and  C_19 
ROOT
HETATM    1  N   UNL     1      41.298 -13.303   5.446  1.00  0.00    -0.337 N 
HETATM    2  C   UNL     1      40.107 -13.931   5.641  1.00  0.00     0.321 C 
HETATM    3  N   UNL     1      40.104 -15.283   5.777  1.00  0.00    -0.309 N 
HETATM    4  O   UNL     1      39.043 -13.324   5.749  1.00  0.00    -0.247 OA
HETATM    5  H   UNL     1      42.076 -13.793   5.858  1.00  0.00     0.164 HD
HETATM    6  H   UNL     1      39.193 -15.594   6.098  1.00  0.00     0.170 HD
ENDROOT
BRANCH   3   7
HETATM    7  C   UNL     1      41.059 -16.291   5.553  1.00  0.00     0.037 A 
HETATM    8  C   UNL     1      41.309 -16.885   4.312  1.00  0.00     0.047 A 
HETATM    9  C   UNL     1      42.287 -17.866   4.257  1.00  0.00     0.050 A 
HETATM   10  C   UNL     1      42.989 -18.274   5.375  1.00  0.00     0.048 A 
HETATM   11  C   UNL     1      42.788 -18.636   3.120  1.00  0.00     0.262 A 
HETATM   12  C   UNL     1      43.937 -19.304   4.960  1.00  0.00     0.262 A 
HETATM   13  C   UNL     1      42.752 -17.729   6.617  1.00  0.00     0.020 A 
HETATM   14  O   UNL     1      44.739 -19.821   5.714  1.00  0.00    -0.267 OA
HETATM   15  N   UNL     1      43.733 -19.501   3.617  1.00  0.00    -0.275 N 
HETATM   16  C   UNL     1      41.770 -16.735   6.698  1.00  0.00     0.030 A 
HETATM   17  O   UNL     1      42.412 -18.457   1.976  1.00  0.00    -0.267 OA
BRANCH  15  18
HETATM   18  C   UNL     1      44.516 -20.388   2.817  1.00  0.00     0.096 A 
HETATM   19  C   UNL     1      44.430 -21.883   2.993  1.00  0.00     0.028 A 
HETATM   20  C   UNL     1      43.900 -21.249   1.744  1.00  0.00     0.028 A 
ENDBRANCH  15  18
ENDBRANCH   3   7
BRANCH   1  21
HETATM   21  C   UNL     1      41.400 -11.861   5.548  1.00  0.00     0.183 C 
BRANCH  21  22
HETATM   22  C   UNL     1      41.389 -11.399   6.955  1.00  0.00     0.047 A 
HETATM   23  N   UNL     1      42.504 -11.448   7.746  1.00  0.00    -0.280 N 
HETATM   24  N   UNL     1      42.341 -10.878   8.950  1.00  0.00    -0.178 NA
HETATM   25  H   UNL     1      43.411 -11.846   7.502  1.00  0.00     0.189 HD
HETATM   26  C   UNL     1      41.070 -10.452   8.949  1.00  0.00     0.064 A 
HETATM   27  C   UNL     1      40.429 -10.777   7.722  1.00  0.00     0.058 A 
BRANCH  26  28
HETATM   28  C   UNL     1      40.496  -9.672  10.123  1.00  0.00    -0.005 C 
HETATM   29  C   UNL     1      38.954  -9.591  10.070  1.00  0.00     0.021 C 
HETATM   30  C   UNL     1      41.042  -8.231  10.133  1.00  0.00     0.021 C 
HETATM   31  C   UNL     1      40.894 -10.365  11.442  1.00  0.00     0.021 C 
ENDBRANCH  26  28
ENDBRANCH  21  22
ENDBRANCH   1  21
TORSDOF 5
ENDMDL
MODEL 5
REMARK VINA RESULT:      -8.4      1.387      2.461
REMARK  5 active torsions:
REMARK  status: ('A' for Active; 'I' for Inactive)
REMARK    1  A    between atoms: C_2  and  C_3 
REMARK    2  A    between atoms: C_7  and  C_8 
REMARK    3  A    between atoms: C_8  and  N_9 
REMARK       I    between atoms: N_9  and  C_10 
REMARK       I    between atoms: C_10  and  N_11 
REMARK    4  A    between atoms: N_11  and  C_12 
REMARK    5  A    between atoms: N_18  and  C_19 
ROOT
HETATM    1  N   UNL     1      40.763 -11.663   6.414  1.00  0.00    -0.337 N 
HETATM    2  C   UNL     1      39.695 -12.309   6.956  1.00  0.00     0.321 C 
HETATM    3  N   UNL     1      39.492 -13.612   6.627  1.00  0.00    -0.309 N 
HETATM    4  O   UNL     1      38.937 -11.780   7.767  1.00  0.00    -0.247 OA
HETATM    5  H   UNL     1      41.532 -12.279   6.201  1.00  0.00     0.164 HD
HETATM    6  H   UNL     1      38.787 -14.014   7.236  1.00  0.00     0.170 HD
ENDROOT
BRANCH   3   7
HETATM    7  C   UNL     1      40.025 -14.468   5.646  1.00  0.00     0.037 A 
HETATM    8  C   UNL     1      40.810 -15.592   5.918  1.00  0.00     0.047 A 
HETATM    9  C   UNL     1      41.258 -16.336   4.836  1.00  0.00     0.050 A 
HETATM   10  C   UNL     1      40.969 -15.990   3.530  1.00  0.00     0.048 A 
HETATM   11  C   UNL     1      42.058 -17.559   4.799  1.00  0.00     0.262 A 
HETATM   12  C   UNL     1      41.582 -16.985   2.655  1.00  0.00     0.262 A 
HETATM   13  C   UNL     1      40.220 -14.876   3.225  1.00  0.00     0.020 A 
HETATM   14  O   UNL     1      41.458 -16.982   1.445  1.00  0.00    -0.267 OA
HETATM   15  N   UNL     1      42.249 -17.863   3.473  1.00  0.00    -0.275 N 
HETATM   16  C   UNL     1      39.755 -14.109   4.300  1.00  0.00     0.030 A 
HETATM   17  O   UNL     1      42.414 -18.154   5.800  1.00  0.00    -0.267 OA
BRANCH  15  18
HETATM   18  C   UNL     1      42.928 -19.028   3.001  1.00  0.00     0.096 A 
HETATM   19  C   UNL     1      44.163 -18.921   2.143  1.00  0.00     0.028 A 
HETATM   20  C   UNL     1      44.272 -19.443   3.543  1.00  0.00     0.028 A 
ENDBRANCH  15  18
ENDBRANCH   3   7
BRANCH   1  21
HETATM   21  C   UNL     1      41.178 -10.368   6.914  1.00  0.00     0.183 C 
BRANCH  21  22
HETATM   22  C   UNL     1      41.746 -10.454   8.279  1.00  0.00     0.047 A 
HETATM   23  N   UNL     1      40.959 -10.440   9.398  1.00  0.00    -0.280 N 
HETATM   24  N   UNL     1      41.633 -10.646  10.539  1.00  0.00    -0.178 NA
HETATM   25  H   UNL     1      39.948 -10.308   9.433  1.00  0.00     0.189 HD
HETATM   26  C   UNL     1      42.909 -10.790  10.152  1.00  0.00     0.064 A 
HETATM   27  C   UNL     1      43.028 -10.656   8.742  1.00  0.00     0.058 A 
BRANCH  26  28
HETATM   28  C   UNL     1      44.006 -11.120  11.153  1.00  0.00    -0.005 C 
HETATM   29  C   UNL     1      43.933 -12.585  11.637  1.00  0.00     0.021 C 
HETATM   30  C   UNL     1      43.899 -10.211  12.394  1.00  0.00     0.021 C 
HETATM   31  C   UNL     1      45.384 -10.902  10.493  1.00  0.00     0.021 C 
ENDBRANCH  26  28
ENDBRANCH  21  22
ENDBRANCH   1  21
TORSDOF 5
ENDMDL
MODEL 6
REMARK VINA RESULT:      -8.4      3.903      6.260
REMARK  5 active torsions:
REMARK  status: ('A' for Active; 'I' for Inactive)
REMARK    1  A    between atoms: C_2  and  C_3 
REMARK    2  A    between atoms: C_7  and  C_8 
REMARK    3  A    between atoms: C_8  and  N_9 
REMARK       I    between atoms: N_9  and  C_10 
REMARK       I    between atoms: C_10  and  N_11 
REMARK    4  A    between atoms: N_11  and  C_12 
REMARK    5  A    between atoms: N_18  and  C_19 
ROOT
HETATM    1  N   UNL     1      40.783 -13.805   4.089  1.00  0.00    -0.337 N 
HETATM    2  C   UNL     1      39.932 -14.260   5.048  1.00  0.00     0.321 C 
HETATM    3  N   UNL     1      40.238 -15.419   5.687  1.00  0.00    -0.309 N 
HETATM    4  O   UNL     1      38.927 -13.642   5.395  1.00  0.00    -0.247 OA
HETATM    5  H   UNL     1      41.738 -14.086   4.241  1.00  0.00     0.164 HD
HETATM    6  H   UNL     1      39.631 -15.539   6.491  1.00  0.00     0.170 HD
ENDROOT
BRANCH   3   7
HETATM    7  C   UNL     1      41.172 -16.446   5.457  1.00  0.00     0.037 A 
HETATM    8  C   UNL     1      41.389 -17.056   4.219  1.00  0.00     0.047 A 
HETATM    9  C   UNL     1      42.349 -18.055   4.157  1.00  0.00     0.050 A 
HETATM   10  C   UNL     1      43.063 -18.464   5.266  1.00  0.00     0.048 A 
HETATM   11  C   UNL     1      42.815 -18.846   3.019  1.00  0.00     0.262 A 
HETATM   12  C   UNL     1      43.986 -19.515   4.846  1.00  0.00     0.262 A 
HETATM   13  C   UNL     1      42.858 -17.903   6.507  1.00  0.00     0.020 A 
HETATM   14  O   UNL     1      44.791 -20.039   5.592  1.00  0.00    -0.267 OA
HETATM   15  N   UNL     1      43.754 -19.722   3.508  1.00  0.00    -0.275 N 
HETATM   16  C   UNL     1      41.895 -16.891   6.594  1.00  0.00     0.030 A 
HETATM   17  O   UNL     1      42.423 -18.672   1.880  1.00  0.00    -0.267 OA
BRANCH  15  18
HETATM   18  C   UNL     1      44.507 -20.632   2.704  1.00  0.00     0.096 A 
HETATM   19  C   UNL     1      44.449 -22.119   2.941  1.00  0.00     0.028 A 
HETATM   20  C   UNL     1      43.850 -21.539   1.697  1.00  0.00     0.028 A 
ENDBRANCH  15  18
ENDBRANCH   3   7
BRANCH   1  21
HETATM   21  C   UNL     1      40.650 -12.464   3.556  1.00  0.00     0.183 C 
BRANCH  21  22
HETATM   22  C   UNL     1      41.034 -12.391   2.127  1.00  0.00     0.047 A 
HETATM   23  N   UNL     1      42.159 -11.735   1.708  1.00  0.00    -0.280 N 
HETATM   24  N   UNL     1      42.412 -11.874   0.398  1.00  0.00    -0.178 NA
HETATM   25  H   UNL     1      42.799 -11.189   2.285  1.00  0.00     0.189 HD
HETATM   26  C   UNL     1      41.411 -12.641  -0.057  1.00  0.00     0.064 A 
HETATM   27  C   UNL     1      40.511 -12.972   0.993  1.00  0.00     0.058 A 
BRANCH  26  28
HETATM   28  C   UNL     1      41.364 -13.103  -1.506  1.00  0.00    -0.005 C 
HETATM   29  C   UNL     1      40.225 -12.424  -2.298  1.00  0.00     0.021 C 
HETATM   30  C   UNL     1      41.143 -14.627  -1.581  1.00  0.00     0.021 C 
HETATM   31  C   UNL     1      42.699 -12.758  -2.197  1.00  0.00     0.021 C 
ENDBRANCH  26  28
ENDBRANCH  21  22
ENDBRANCH   1  21
TORSDOF 5
ENDMDL
MODEL 7
REMARK VINA RESULT:      -8.3      3.120      9.272
REMARK  5 active torsions:
REMARK  status: ('A' for Active; 'I' for Inactive)
REMARK    1  A    between atoms: C_2  and  C_3 
REMARK    2  A    between atoms: C_7  and  C_8 
REMARK    3  A    between atoms: C_8  and  N_9 
REMARK       I    between atoms: N_9  and  C_10 
REMARK       I    between atoms: C_10  and  N_11 
REMARK    4  A    between atoms: N_11  and  C_12 
REMARK    5  A    between atoms: N_18  and  C_19 
ROOT
HETATM    1  N   UNL     1      40.029 -13.184   6.406  1.00  0.00    -0.337 N 
HETATM    2  C   UNL     1      39.377 -11.997   6.277  1.00  0.00     0.321 C 
HETATM    3  N   UNL     1      39.760 -10.960   7.066  1.00  0.00    -0.309 N 
HETATM    4  O   UNL     1      38.492 -11.809   5.443  1.00  0.00    -0.247 OA
HETATM    5  H   UNL     1      40.982 -13.081   6.714  1.00  0.00     0.164 HD
HETATM    6  H   UNL     1      39.328 -10.102   6.740  1.00  0.00     0.170 HD
ENDROOT
BRANCH   3   7
HETATM    7  C   UNL     1      40.582 -10.846   8.202  1.00  0.00     0.037 A 
HETATM    8  C   UNL     1      40.115 -10.840   9.520  1.00  0.00     0.047 A 
HETATM    9  C   UNL     1      41.056 -10.723  10.532  1.00  0.00     0.050 A 
HETATM   10  C   UNL     1      42.407 -10.595  10.274  1.00  0.00     0.048 A 
HETATM   11  C   UNL     1      40.883 -10.716  11.983  1.00  0.00     0.262 A 
HETATM   12  C   UNL     1      43.103 -10.505  11.555  1.00  0.00     0.262 A 
HETATM   13  C   UNL     1      42.900 -10.572   8.989  1.00  0.00     0.020 A 
HETATM   14  O   UNL     1      44.313 -10.440  11.658  1.00  0.00    -0.267 OA
HETATM   15  N   UNL     1      42.133 -10.539  12.526  1.00  0.00    -0.275 N 
HETATM   16  C   UNL     1      41.969 -10.691   7.949  1.00  0.00     0.030 A 
HETATM   17  O   UNL     1      39.807 -10.880  12.529  1.00  0.00    -0.267 OA
BRANCH  15  18
HETATM   18  C   UNL     1      42.413 -10.542  13.927  1.00  0.00     0.096 A 
HETATM   19  C   UNL     1      42.873  -9.293  14.636  1.00  0.00     0.028 A 
HETATM   20  C   UNL     1      41.514  -9.855  14.922  1.00  0.00     0.028 A 
ENDBRANCH  15  18
ENDBRANCH   3   7
BRANCH   1  21
HETATM   21  C   UNL     1      39.844 -14.240   5.431  1.00  0.00     0.183 C 
BRANCH  21  22
HETATM   22  C   UNL     1      40.708 -15.412   5.708  1.00  0.00     0.047 A 
HETATM   23  N   UNL     1      40.208 -16.583   6.205  1.00  0.00    -0.280 N 
HETATM   24  N   UNL     1      41.113 -17.571   6.280  1.00  0.00    -0.178 NA
HETATM   25  H   UNL     1      39.246 -16.765   6.495  1.00  0.00     0.189 HD
HETATM   26  C   UNL     1      42.247 -17.022   5.824  1.00  0.00     0.064 A 
HETATM   27  C   UNL     1      42.043 -15.659   5.473  1.00  0.00     0.058 A 
BRANCH  26  28
HETATM   28  C   UNL     1      43.519 -17.843   5.673  1.00  0.00    -0.005 C 
HETATM   29  C   UNL     1      43.958 -17.971   4.198  1.00  0.00     0.021 C 
HETATM   30  C   UNL     1      43.313 -19.266   6.227  1.00  0.00     0.021 C 
HETATM   31  C   UNL     1      44.663 -17.164   6.456  1.00  0.00     0.021 C 
ENDBRANCH  26  28
ENDBRANCH  21  22
ENDBRANCH   1  21
TORSDOF 5
ENDMDL
MODEL 8
REMARK VINA RESULT:      -8.1      3.486      5.944
REMARK  5 active torsions:
REMARK  status: ('A' for Active; 'I' for Inactive)
REMARK    1  A    between atoms: C_2  and  C_3 
REMARK    2  A    between atoms: C_7  and  C_8 
REMARK    3  A    between atoms: C_8  and  N_9 
REMARK       I    between atoms: N_9  and  C_10 
REMARK       I    between atoms: C_10  and  N_11 
REMARK    4  A    between atoms: N_11  and  C_12 
REMARK    5  A    between atoms: N_18  and  C_19 
ROOT
HETATM    1  N   UNL     1      41.099 -13.545   4.803  1.00  0.00    -0.337 N 
HETATM    2  C   UNL     1      40.284 -14.042   5.772  1.00  0.00     0.321 C 
HETATM    3  N   UNL     1      40.573 -15.261   6.298  1.00  0.00    -0.309 N 
HETATM    4  O   UNL     1      39.328 -13.414   6.227  1.00  0.00    -0.247 OA
HETATM    5  H   UNL     1      42.048 -13.877   4.875  1.00  0.00     0.164 HD
HETATM    6  H   UNL     1      40.006 -15.422   7.124  1.00  0.00     0.170 HD
ENDROOT
BRANCH   3   7
HETATM    7  C   UNL     1      41.444 -16.303   5.931  1.00  0.00     0.037 A 
HETATM    8  C   UNL     1      41.547 -16.833   4.642  1.00  0.00     0.047 A 
HETATM    9  C   UNL     1      42.458 -17.859   4.443  1.00  0.00     0.050 A 
HETATM   10  C   UNL     1      43.232 -18.371   5.467  1.00  0.00     0.048 A 
HETATM   11  C   UNL     1      42.810 -18.584   3.224  1.00  0.00     0.262 A 
HETATM   12  C   UNL     1      44.078 -19.423   4.910  1.00  0.00     0.262 A 
HETATM   13  C   UNL     1      43.138 -17.890   6.754  1.00  0.00     0.020 A 
HETATM   14  O   UNL     1      44.912 -20.027   5.558  1.00  0.00    -0.267 OA
HETATM   15  N   UNL     1      43.744 -19.526   3.583  1.00  0.00    -0.275 N 
HETATM   16  C   UNL     1      42.226 -16.852   6.980  1.00  0.00     0.030 A 
HETATM   17  O   UNL     1      42.347 -18.317   2.130  1.00  0.00    -0.267 OA
BRANCH  15  18
HETATM   18  C   UNL     1      44.400 -20.404   2.666  1.00  0.00     0.096 A 
HETATM   19  C   UNL     1      44.352 -21.901   2.845  1.00  0.00     0.028 A 
HETATM   20  C   UNL     1      43.632 -21.264   1.696  1.00  0.00     0.028 A 
ENDBRANCH  15  18
ENDBRANCH   3   7
BRANCH   1  21
HETATM   21  C   UNL     1      40.997 -12.161   4.387  1.00  0.00     0.183 C 
BRANCH  21  22
HETATM   22  C   UNL     1      40.197 -12.007   3.150  1.00  0.00     0.047 A 
HETATM   23  N   UNL     1      40.652 -11.299   2.072  1.00  0.00    -0.280 N 
HETATM   24  N   UNL     1      39.849 -11.367   1.000  1.00  0.00    -0.178 NA
HETATM   25  H   UNL     1      41.518 -10.762   2.013  1.00  0.00     0.189 HD
HETATM   26  C   UNL     1      38.828 -12.139   1.395  1.00  0.00     0.064 A 
HETATM   27  C   UNL     1      38.996 -12.548   2.746  1.00  0.00     0.058 A 
BRANCH  26  28
HETATM   28  C   UNL     1      37.715 -12.532   0.434  1.00  0.00    -0.005 C 
HETATM   29  C   UNL     1      36.437 -11.690   0.646  1.00  0.00     0.021 C 
HETATM   30  C   UNL     1      37.336 -14.015   0.622  1.00  0.00     0.021 C 
HETATM   31  C   UNL     1      38.192 -12.320  -1.018  1.00  0.00     0.021 C 
ENDBRANCH  26  28
ENDBRANCH  21  22
ENDBRANCH   1  21
TORSDOF 5
ENDMDL
MODEL 9
REMARK VINA RESULT:      -7.9      4.887      7.355
REMARK  5 active torsions:
REMARK  status: ('A' for Active; 'I' for Inactive)
REMARK    1  A    between atoms: C_2  and  C_3 
REMARK    2  A    between atoms: C_7  and  C_8 
REMARK    3  A    between atoms: C_8  and  N_9 
REMARK       I    between atoms: N_9  and  C_10 
REMARK       I    between atoms: C_10  and  N_11 
REMARK    4  A    between atoms: N_11  and  C_12 
REMARK    5  A    between atoms: N_18  and  C_19 
ROOT
HETATM    1  N   UNL     1      41.546 -13.766   2.519  1.00  0.00    -0.337 N 
HETATM    2  C   UNL     1      40.427 -14.222   3.145  1.00  0.00     0.321 C 
HETATM    3  N   UNL     1      40.415 -15.505   3.593  1.00  0.00    -0.309 N 
HETATM    4  O   UNL     1      39.449 -13.510   3.366  1.00  0.00    -0.247 OA
HETATM    5  H   UNL     1      42.388 -14.224   2.829  1.00  0.00     0.164 HD
HETATM    6  H   UNL     1      39.610 -15.651   4.194  1.00  0.00     0.170 HD
ENDROOT
BRANCH   3   7
HETATM    7  C   UNL     1      41.244 -16.622   3.385  1.00  0.00     0.037 A 
HETATM    8  C   UNL     1      42.026 -17.223   4.375  1.00  0.00     0.047 A 
HETATM    9  C   UNL     1      42.789 -18.322   4.008  1.00  0.00     0.050 A 
HETATM   10  C   UNL     1      42.809 -18.811   2.716  1.00  0.00     0.048 A 
HETATM   11  C   UNL     1      43.670 -19.168   4.811  1.00  0.00     0.262 A 
HETATM   12  C   UNL     1      43.701 -19.967   2.686  1.00  0.00     0.262 A 
HETATM   13  C   UNL     1      42.070 -18.228   1.711  1.00  0.00     0.020 A 
HETATM   14  O   UNL     1      43.883 -20.648   1.695  1.00  0.00    -0.267 OA
HETATM   15  N   UNL     1      44.212 -20.096   3.954  1.00  0.00    -0.275 N 
HETATM   16  C   UNL     1      41.290 -17.118   2.057  1.00  0.00     0.030 A 
HETATM   17  O   UNL     1      43.813 -19.034   6.012  1.00  0.00    -0.267 OA
BRANCH  15  18
HETATM   18  C   UNL     1      45.080 -21.157   4.355  1.00  0.00     0.096 A 
HETATM   19  C   UNL     1      44.716 -22.080   5.491  1.00  0.00     0.028 A 
HETATM   20  C   UNL     1      44.751 -22.603   4.087  1.00  0.00     0.028 A 
ENDBRANCH  15  18
ENDBRANCH   3   7
BRANCH   1  21
HETATM   21  C   UNL     1      41.719 -12.353   2.249  1.00  0.00     0.183 C 
BRANCH  21  22
HETATM   22  C   UNL     1      41.718 -12.059   0.797  1.00  0.00     0.047 A 
HETATM   23  N   UNL     1      42.418 -11.011   0.266  1.00  0.00    -0.280 N 
HETATM   24  N   UNL     1      42.399 -10.969  -1.075  1.00  0.00    -0.178 NA
HETATM   25  H   UNL     1      42.943 -10.302   0.780  1.00  0.00     0.189 HD
HETATM   26  C   UNL     1      41.650 -12.021  -1.432  1.00  0.00     0.064 A 
HETATM   27  C   UNL     1      41.184 -12.722  -0.286  1.00  0.00     0.058 A 
BRANCH  26  28
HETATM   28  C   UNL     1      41.437 -12.381  -2.895  1.00  0.00    -0.005 C 
HETATM   29  C   UNL     1      41.667 -13.885  -3.165  1.00  0.00     0.021 C 
HETATM   30  C   UNL     1      42.409 -11.590  -3.794  1.00  0.00     0.021 C 
HETATM   31  C   UNL     1      39.989 -12.038  -3.302  1.00  0.00     0.021 C 
ENDBRANCH  26  28
ENDBRANCH  21  22
ENDBRANCH   1  21
TORSDOF 5
ENDMDL
MODEL 10
REMARK VINA RESULT:      -7.9      4.618      5.766
REMARK  5 active torsions:
REMARK  status: ('A' for Active; 'I' for Inactive)
REMARK    1  A    between atoms: C_2  and  C_3 
REMARK    2  A    between atoms: C_7  and  C_8 
REMARK    3  A    between atoms: C_8  and  N_9 
REMARK       I    between atoms: N_9  and  C_10 
REMARK       I    between atoms: C_10  and  N_11 
REMARK    4  A    between atoms: N_11  and  C_12 
REMARK    5  A    between atoms: N_18  and  C_19 
ROOT
HETATM    1  N   UNL     1      40.371 -15.183   0.827  1.00  0.00    -0.337 N 
HETATM    2  C   UNL     1      41.203 -15.455  -0.215  1.00  0.00     0.321 C 
HETATM    3  N   UNL     1      42.201 -16.357  -0.027  1.00  0.00    -0.309 N 
HETATM    4  O   UNL     1      41.059 -14.957  -1.331  1.00  0.00    -0.247 OA
HETATM    5  H   UNL     1      40.269 -15.957   1.464  1.00  0.00     0.164 HD
HETATM    6  H   UNL     1      42.618 -16.600  -0.920  1.00  0.00     0.170 HD
ENDROOT
BRANCH   3   7
HETATM    7  C   UNL     1      42.758 -16.978   1.106  1.00  0.00     0.037 A 
HETATM    8  C   UNL     1      43.095 -18.332   1.181  1.00  0.00     0.047 A 
HETATM    9  C   UNL     1      43.639 -18.791   2.371  1.00  0.00     0.050 A 
HETATM   10  C   UNL     1      43.831 -17.967   3.463  1.00  0.00     0.048 A 
HETATM   11  C   UNL     1      44.112 -20.124   2.740  1.00  0.00     0.262 A 
HETATM   12  C   UNL     1      44.425 -18.766   4.532  1.00  0.00     0.262 A 
HETATM   13  C   UNL     1      43.488 -16.634   3.433  1.00  0.00     0.020 A 
HETATM   14  O   UNL     1      44.763 -18.305   5.606  1.00  0.00    -0.267 OA
HETATM   15  N   UNL     1      44.523 -20.047   4.049  1.00  0.00    -0.275 N 
HETATM   16  C   UNL     1      42.938 -16.146   2.241  1.00  0.00     0.030 A 
HETATM   17  O   UNL     1      44.138 -21.062   1.964  1.00  0.00    -0.267 OA
BRANCH  15  18
HETATM   18  C   UNL     1      45.119 -21.124   4.774  1.00  0.00     0.096 A 
HETATM   19  C   UNL     1      44.404 -21.783   5.927  1.00  0.00     0.028 A 
HETATM   20  C   UNL     1      44.620 -22.541   4.653  1.00  0.00     0.028 A 
ENDBRANCH  15  18
ENDBRANCH   3   7
BRANCH   1  21
HETATM   21  C   UNL     1      39.147 -14.434   0.622  1.00  0.00     0.183 C 
BRANCH  21  22
HETATM   22  C   UNL     1      39.043 -13.276   1.540  1.00  0.00     0.047 A 
HETATM   23  N   UNL     1      37.988 -12.406   1.497  1.00  0.00    -0.280 N 
HETATM   24  N   UNL     1      37.999 -11.491   2.477  1.00  0.00    -0.178 NA
HETATM   25  H   UNL     1      37.221 -12.406   0.823  1.00  0.00     0.189 HD
HETATM   26  C   UNL     1      39.107 -11.766   3.180  1.00  0.00     0.064 A 
HETATM   27  C   UNL     1      39.804 -12.868   2.613  1.00  0.00     0.058 A 
BRANCH  26  28
HETATM   28  C   UNL     1      39.456 -10.992   4.443  1.00  0.00    -0.005 C 
HETATM   29  C   UNL     1      40.911 -10.474   4.426  1.00  0.00     0.021 C 
HETATM   30  C   UNL     1      39.290 -11.886   5.688  1.00  0.00     0.021 C 
HETATM   31  C   UNL     1      38.516  -9.775   4.574  1.00  0.00     0.021 C 
ENDBRANCH  26  28
ENDBRANCH  21  22
ENDBRANCH   1  21
TORSDOF 5
ENDMDL
