MODEL 1
REMARK VINA RESULT:      -7.6      0.000      0.000
REMARK  8 active torsions:
REMARK  status: ('A' for Active; 'I' for Inactive)
REMARK    1  A    between atoms: N_3  and  C_4 
REMARK    2  A    between atoms: C_4  and  C_5 
REMARK    3  A    between atoms: C_5  and  O_6 
REMARK    4  A    between atoms: C_11  and  C_12 
REMARK    5  A    between atoms: C_13  and  C_14 
REMARK    6  A    between atoms: C_22  and  C_23 
REMARK       I    between atoms: C_23  and  N_24 
REMARK    7  A    between atoms: N_24  and  C_25 
REMARK    8  A    between atoms: C_26  and  O_27 
ROOT
HETATM    1  C   UNL     1      41.660 -11.865   2.499  1.00  0.00     0.069 C 
HETATM    2  C   UNL     1      41.229 -13.301   2.672  1.00  0.00     0.026 C 
HETATM    3  N   UNL     1      40.135 -13.775   1.930  1.00  0.00    -0.301 N 
HETATM    4  C   UNL     1      39.510 -14.994   2.213  1.00  0.00     0.323 C 
HETATM    5  O   UNL     1      38.503 -15.422   1.653  1.00  0.00    -0.247 OA
HETATM    6  N   UNL     1      40.041 -15.723   3.233  1.00  0.00    -0.330 N 
HETATM    7  C   UNL     1      41.384 -15.563   3.725  1.00  0.00     0.161 C 
HETATM    8  C   UNL     1      41.833 -14.149   3.530  1.00  0.00     0.059 C 
HETATM    9  H   UNL     1      39.572 -16.606   3.379  1.00  0.00     0.165 HD
ENDROOT
BRANCH   8  10
HETATM   10  C   UNL     1      42.923 -13.695   4.432  1.00  0.00     0.256 C 
HETATM   11  N   UNL     1      42.494 -13.490   5.722  1.00  0.00    -0.321 N 
HETATM   12  H   UNL     1      41.517 -13.655   5.947  1.00  0.00     0.169 HD
HETATM   13  O   UNL     1      44.053 -13.545   3.985  1.00  0.00    -0.267 OA
BRANCH  11  14
HETATM   14  C   UNL     1      43.240 -13.003   6.819  1.00  0.00     0.068 A 
HETATM   15  C   UNL     1      42.730 -11.864   7.479  1.00  0.00     0.095 A 
HETATM   16  C   UNL     1      43.426 -11.319   8.563  1.00  0.00     0.039 A 
HETATM   17  C   UNL     1      44.617 -11.905   8.994  1.00  0.00     0.003 A 
HETATM   18  C   UNL     1      45.117 -13.032   8.347  1.00  0.00     0.002 A 
HETATM   19  C   UNL     1      44.432 -13.579   7.260  1.00  0.00     0.032 A 
BRANCH  15  20
HETATM   20  O   UNL     1      41.550 -11.369   6.972  1.00  0.00    -0.354 OA
HETATM   21  C   UNL     1      40.577 -10.930   7.911  1.00  0.00     0.210 C 
ENDBRANCH  15  20
ENDBRANCH  11  14
ENDBRANCH   8  10
BRANCH   7  22
HETATM   22  C   UNL     1      42.291 -16.610   3.072  1.00  0.00    -0.016 A 
HETATM   23  C   UNL     1      42.715 -17.775   3.762  1.00  0.00     0.056 A 
HETATM   24  C   UNL     1      43.549 -18.700   3.105  1.00  0.00     0.017 A 
HETATM   25  C   UNL     1      43.949 -18.500   1.785  1.00  0.00     0.001 A 
HETATM   26  C   UNL     1      43.517 -17.375   1.096  1.00  0.00     0.001 A 
HETATM   27  C   UNL     1      42.695 -16.444   1.729  1.00  0.00     0.010 A 
BRANCH  23  28
HETATM   28  C   UNL     1      42.281 -18.066   5.183  1.00  0.00     0.418 C 
HETATM   29  F   UNL     1      40.929 -18.177   5.297  1.00  0.00    -0.166 F 
HETATM   30  F   UNL     1      42.789 -19.225   5.687  1.00  0.00    -0.166 F 
HETATM   31  F   UNL     1      42.656 -17.088   6.051  1.00  0.00    -0.166 F 
ENDBRANCH  23  28
ENDBRANCH   7  22
BRANCH   3  32
HETATM   32  C   UNL     1      39.559 -13.001   0.819  1.00  0.00     0.160 C 
BRANCH  32  33
HETATM   33  C   UNL     1      40.313 -13.181  -0.507  1.00  0.00     0.187 C 
BRANCH  33  34
HETATM   34  O   UNL     1      39.866 -14.349  -1.198  1.00  0.00    -0.394 OA
HETATM   35  C   UNL     1      40.927 -15.268  -1.419  1.00  0.00     0.201 C 
ENDBRANCH  33  34
ENDBRANCH  32  33
ENDBRANCH   3  32
TORSDOF 8
ENDMDL
MODEL 2
REMARK VINA RESULT:      -7.5      2.583      6.759
REMARK  8 active torsions:
REMARK  status: ('A' for Active; 'I' for Inactive)
REMARK    1  A    between atoms: N_3  and  C_4 
REMARK    2  A    between atoms: C_4  and  C_5 
REMARK    3  A    between atoms: C_5  and  O_6 
REMARK    4  A    between atoms: C_11  and  C_12 
REMARK    5  A    between atoms: C_13  and  C_14 
REMARK    6  A    between atoms: C_22  and  C_23 
REMARK       I    between atoms: C_23  and  N_24 
REMARK    7  A    between atoms: N_24  and  C_25 
REMARK    8  A    between atoms: C_26  and  O_27 
ROOT
HETATM    1  C   UNL     1      39.478 -13.092   3.038  1.00  0.00     0.069 C 
HETATM    2  C   UNL     1      40.848 -13.665   3.310  1.00  0.00     0.026 C 
HETATM    3  N   UNL     1      41.612 -13.125   4.357  1.00  0.00    -0.301 N 
HETATM    4  C   UNL     1      42.973 -13.410   4.514  1.00  0.00     0.323 C 
HETATM    5  O   UNL     1      43.710 -12.906   5.360  1.00  0.00    -0.247 OA
HETATM    6  N   UNL     1      43.518 -14.272   3.612  1.00  0.00    -0.330 N 
HETATM    7  C   UNL     1      42.755 -15.205   2.827  1.00  0.00     0.161 C 
HETATM    8  C   UNL     1      41.385 -14.661   2.576  1.00  0.00     0.059 C 
HETATM    9  H   UNL     1      44.495 -14.466   3.786  1.00  0.00     0.165 HD
ENDROOT
BRANCH   8  10
HETATM   10  C   UNL     1      40.688 -15.208   1.383  1.00  0.00     0.256 C 
HETATM   11  N   UNL     1      41.016 -14.544   0.225  1.00  0.00    -0.321 N 
HETATM   12  H   UNL     1      41.673 -13.770   0.272  1.00  0.00     0.169 HD
HETATM   13  O   UNL     1      39.920 -16.153   1.513  1.00  0.00    -0.267 OA
BRANCH  11  14
HETATM   14  C   UNL     1      40.500 -14.754  -1.074  1.00  0.00     0.068 A 
HETATM   15  C   UNL     1      39.427 -13.928  -1.474  1.00  0.00     0.095 A 
HETATM   16  C   UNL     1      38.858 -14.094  -2.740  1.00  0.00     0.039 A 
HETATM   17  C   UNL     1      39.355 -15.067  -3.609  1.00  0.00     0.003 A 
HETATM   18  C   UNL     1      40.418 -15.877  -3.217  1.00  0.00     0.002 A 
HETATM   19  C   UNL     1      40.988 -15.724  -1.952  1.00  0.00     0.032 A 
BRANCH  15  20
HETATM   20  O   UNL     1      39.018 -13.003  -0.541  1.00  0.00    -0.354 OA
HETATM   21  C   UNL     1      37.656 -13.056  -0.133  1.00  0.00     0.210 C 
ENDBRANCH  15  20
ENDBRANCH  11  14
ENDBRANCH   8  10
BRANCH   7  22
HETATM   22  C   UNL     1      42.775 -16.577   3.508  1.00  0.00    -0.016 A 
HETATM   23  C   UNL     1      43.227 -17.743   2.839  1.00  0.00     0.056 A 
HETATM   24  C   UNL     1      43.221 -18.976   3.521  1.00  0.00     0.017 A 
HETATM   25  C   UNL     1      42.797 -19.065   4.846  1.00  0.00     0.001 A 
HETATM   26  C   UNL     1      42.378 -17.922   5.514  1.00  0.00     0.001 A 
HETATM   27  C   UNL     1      42.372 -16.693   4.856  1.00  0.00     0.010 A 
BRANCH  23  28
HETATM   28  C   UNL     1      43.736 -17.704   1.413  1.00  0.00     0.418 C 
HETATM   29  F   UNL     1      44.038 -18.944   0.939  1.00  0.00    -0.166 F 
HETATM   30  F   UNL     1      42.847 -17.177   0.525  1.00  0.00    -0.166 F 
HETATM   31  F   UNL     1      44.870 -16.964   1.288  1.00  0.00    -0.166 F 
ENDBRANCH  23  28
ENDBRANCH   7  22
BRANCH   3  32
HETATM   32  C   UNL     1      41.032 -12.201   5.344  1.00  0.00     0.160 C 
BRANCH  32  33
HETATM   33  C   UNL     1      40.130 -12.895   6.376  1.00  0.00     0.187 C 
BRANCH  33  34
HETATM   34  O   UNL     1      39.102 -12.016   6.834  1.00  0.00    -0.394 OA
HETATM   35  C   UNL     1      39.440 -11.412   8.075  1.00  0.00     0.201 C 
ENDBRANCH  33  34
ENDBRANCH  32  33
ENDBRANCH   3  32
TORSDOF 8
ENDMDL
MODEL 3
REMARK VINA RESULT:      -7.5      2.704      5.871
REMARK  8 active torsions:
REMARK  status: ('A' for Active; 'I' for Inactive)
REMARK    1  A    between atoms: N_3  and  C_4 
REMARK    2  A    between atoms: C_4  and  C_5 
REMARK    3  A    between atoms: C_5  and  O_6 
REMARK    4  A    between atoms: C_11  and  C_12 
REMARK    5  A    between atoms: C_13  and  C_14 
REMARK    6  A    between atoms: C_22  and  C_23 
REMARK       I    between atoms: C_23  and  N_24 
REMARK    7  A    between atoms: N_24  and  C_25 
REMARK    8  A    between atoms: C_26  and  O_27 
ROOT
HETATM    1  C   UNL     1      41.806 -16.206   0.014  1.00  0.00     0.069 C 
HETATM    2  C   UNL     1      42.045 -15.516   1.335  1.00  0.00     0.026 C 
HETATM    3  N   UNL     1      41.422 -14.280   1.577  1.00  0.00    -0.301 N 
HETATM    4  C   UNL     1      41.786 -13.455   2.647  1.00  0.00     0.323 C 
HETATM    5  O   UNL     1      41.334 -12.333   2.861  1.00  0.00    -0.247 OA
HETATM    6  N   UNL     1      42.760 -13.930   3.471  1.00  0.00    -0.330 N 
HETATM    7  C   UNL     1      43.115 -15.319   3.585  1.00  0.00     0.161 C 
HETATM    8  C   UNL     1      42.853 -16.020   2.290  1.00  0.00     0.059 C 
HETATM    9  H   UNL     1      42.967 -13.310   4.242  1.00  0.00     0.165 HD
ENDROOT
BRANCH   8  10
HETATM   10  C   UNL     1      43.636 -17.264   2.066  1.00  0.00     0.256 C 
HETATM   11  N   UNL     1      43.084 -18.358   2.687  1.00  0.00    -0.321 N 
HETATM   12  H   UNL     1      42.230 -18.239   3.225  1.00  0.00     0.169 HD
HETATM   13  O   UNL     1      44.654 -17.221   1.386  1.00  0.00    -0.267 OA
BRANCH  11  14
HETATM   14  C   UNL     1      43.591 -19.677   2.738  1.00  0.00     0.068 A 
HETATM   15  C   UNL     1      44.319 -20.034   3.894  1.00  0.00     0.095 A 
HETATM   16  C   UNL     1      44.863 -21.318   4.002  1.00  0.00     0.039 A 
HETATM   17  C   UNL     1      44.679 -22.244   2.975  1.00  0.00     0.003 A 
HETATM   18  C   UNL     1      43.956 -21.893   1.837  1.00  0.00     0.002 A 
HETATM   19  C   UNL     1      43.415 -20.612   1.717  1.00  0.00     0.032 A 
BRANCH  15  20
HETATM   20  O   UNL     1      44.437 -19.045   4.844  1.00  0.00    -0.354 OA
HETATM   21  C   UNL     1      44.111 -19.394   6.183  1.00  0.00     0.210 C 
ENDBRANCH  15  20
ENDBRANCH  11  14
ENDBRANCH   8  10
BRANCH   7  22
HETATM   22  C   UNL     1      42.393 -15.929   4.791  1.00  0.00    -0.016 A 
HETATM   23  C   UNL     1      42.964 -15.927   6.089  1.00  0.00     0.056 A 
HETATM   24  C   UNL     1      42.249 -16.504   7.158  1.00  0.00     0.017 A 
HETATM   25  C   UNL     1      40.985 -17.058   6.963  1.00  0.00     0.001 A 
HETATM   26  C   UNL     1      40.410 -17.040   5.699  1.00  0.00     0.001 A 
HETATM   27  C   UNL     1      41.103 -16.478   4.628  1.00  0.00     0.010 A 
BRANCH  23  28
HETATM   28  C   UNL     1      44.316 -15.305   6.370  1.00  0.00     0.418 C 
HETATM   29  F   UNL     1      45.334 -16.198   6.222  1.00  0.00    -0.166 F 
HETATM   30  F   UNL     1      44.621 -14.258   5.554  1.00  0.00    -0.166 F 
HETATM   31  F   UNL     1      44.413 -14.828   7.640  1.00  0.00    -0.166 F 
ENDBRANCH  23  28
ENDBRANCH   7  22
BRANCH   3  32
HETATM   32  C   UNL     1      40.360 -13.764   0.700  1.00  0.00     0.160 C 
BRANCH  32  33
HETATM   33  C   UNL     1      38.944 -14.096   1.192  1.00  0.00     0.187 C 
BRANCH  33  34
HETATM   34  O   UNL     1      38.020 -14.148   0.103  1.00  0.00    -0.394 OA
HETATM   35  C   UNL     1      38.522 -13.478  -1.045  1.00  0.00     0.201 C 
ENDBRANCH  33  34
ENDBRANCH  32  33
ENDBRANCH   3  32
TORSDOF 8
ENDMDL
MODEL 4
REMARK VINA RESULT:      -7.5      2.623      6.244
REMARK  8 active torsions:
REMARK  status: ('A' for Active; 'I' for Inactive)
REMARK    1  A    between atoms: N_3  and  C_4 
REMARK    2  A    between atoms: C_4  and  C_5 
REMARK    3  A    between atoms: C_5  and  O_6 
REMARK    4  A    between atoms: C_11  and  C_12 
REMARK    5  A    between atoms: C_13  and  C_14 
REMARK    6  A    between atoms: C_22  and  C_23 
REMARK       I    between atoms: C_23  and  N_24 
REMARK    7  A    between atoms: N_24  and  C_25 
REMARK    8  A    between atoms: C_26  and  O_27 
ROOT
HETATM    1  C   UNL     1      43.258 -14.230   5.852  1.00  0.00     0.069 C 
HETATM    2  C   UNL     1      42.144 -14.021   4.854  1.00  0.00     0.026 C 
HETATM    3  N   UNL     1      41.131 -13.095   5.153  1.00  0.00    -0.301 N 
HETATM    4  C   UNL     1      39.940 -13.027   4.422  1.00  0.00     0.323 C 
HETATM    5  O   UNL     1      38.988 -12.295   4.685  1.00  0.00    -0.247 OA
HETATM    6  N   UNL     1      39.824 -13.888   3.374  1.00  0.00    -0.330 N 
HETATM    7  C   UNL     1      40.940 -14.519   2.721  1.00  0.00     0.161 C 
HETATM    8  C   UNL     1      42.062 -14.703   3.693  1.00  0.00     0.059 C 
HETATM    9  H   UNL     1      38.959 -13.779   2.862  1.00  0.00     0.165 HD
ENDROOT
BRANCH   8  10
HETATM   10  C   UNL     1      43.030 -15.780   3.356  1.00  0.00     0.256 C 
HETATM   11  N   UNL     1      42.566 -17.032   3.679  1.00  0.00    -0.321 N 
HETATM   12  H   UNL     1      41.647 -17.121   4.105  1.00  0.00     0.169 HD
HETATM   13  O   UNL     1      44.104 -15.486   2.845  1.00  0.00    -0.267 OA
BRANCH  11  14
HETATM   14  C   UNL     1      43.241 -18.268   3.556  1.00  0.00     0.068 A 
HETATM   15  C   UNL     1      43.913 -18.743   4.704  1.00  0.00     0.095 A 
HETATM   16  C   UNL     1      44.614 -19.951   4.646  1.00  0.00     0.039 A 
HETATM   17  C   UNL     1      44.643 -20.688   3.461  1.00  0.00     0.003 A 
HETATM   18  C   UNL     1      43.975 -20.222   2.331  1.00  0.00     0.002 A 
HETATM   19  C   UNL     1      43.277 -19.014   2.377  1.00  0.00     0.032 A 
BRANCH  15  20
HETATM   20  O   UNL     1      43.818 -17.938   5.816  1.00  0.00    -0.354 OA
HETATM   21  C   UNL     1      44.999 -17.766   6.591  1.00  0.00     0.210 C 
ENDBRANCH  15  20
ENDBRANCH  11  14
ENDBRANCH   8  10
BRANCH   7  22
HETATM   22  C   UNL     1      41.314 -13.719   1.470  1.00  0.00    -0.016 A 
HETATM   23  C   UNL     1      41.530 -14.342   0.214  1.00  0.00     0.056 A 
HETATM   24  C   UNL     1      41.872 -13.550  -0.900  1.00  0.00     0.017 A 
HETATM   25  C   UNL     1      41.982 -12.165  -0.793  1.00  0.00     0.001 A 
HETATM   26  C   UNL     1      41.746 -11.546   0.427  1.00  0.00     0.001 A 
HETATM   27  C   UNL     1      41.412 -12.312   1.543  1.00  0.00     0.010 A 
BRANCH  23  28
HETATM   28  C   UNL     1      41.388 -15.838   0.027  1.00  0.00     0.418 C 
HETATM   29  F   UNL     1      42.543 -16.504   0.303  1.00  0.00    -0.166 F 
HETATM   30  F   UNL     1      40.437 -16.405   0.821  1.00  0.00    -0.166 F 
HETATM   31  F   UNL     1      41.054 -16.172  -1.249  1.00  0.00    -0.166 F 
ENDBRANCH  23  28
ENDBRANCH   7  22
BRANCH   3  32
HETATM   32  C   UNL     1      41.250 -12.153   6.276  1.00  0.00     0.160 C 
BRANCH  32  33
HETATM   33  C   UNL     1      41.601 -10.722   5.840  1.00  0.00     0.187 C 
BRANCH  33  34
HETATM   34  O   UNL     1      41.991  -9.925   6.959  1.00  0.00    -0.394 OA
HETATM   35  C   UNL     1      42.093 -10.698   8.147  1.00  0.00     0.201 C 
ENDBRANCH  33  34
ENDBRANCH  32  33
ENDBRANCH   3  32
TORSDOF 8
ENDMDL
MODEL 5
REMARK VINA RESULT:      -7.4      3.736      7.161
REMARK  8 active torsions:
REMARK  status: ('A' for Active; 'I' for Inactive)
REMARK    1  A    between atoms: N_3  and  C_4 
REMARK    2  A    between atoms: C_4  and  C_5 
REMARK    3  A    between atoms: C_5  and  O_6 
REMARK    4  A    between atoms: C_11  and  C_12 
REMARK    5  A    between atoms: C_13  and  C_14 
REMARK    6  A    between atoms: C_22  and  C_23 
REMARK       I    between atoms: C_23  and  N_24 
REMARK    7  A    between atoms: N_24  and  C_25 
REMARK    8  A    between atoms: C_26  and  O_27 
ROOT
HETATM    1  C   UNL     1      43.926 -16.969   1.220  1.00  0.00     0.069 C 
HETATM    2  C   UNL     1      42.651 -16.723   1.991  1.00  0.00     0.026 C 
HETATM    3  N   UNL     1      42.547 -17.216   3.302  1.00  0.00    -0.301 N 
HETATM    4  C   UNL     1      41.329 -17.265   3.988  1.00  0.00     0.323 C 
HETATM    5  O   UNL     1      41.162 -17.757   5.102  1.00  0.00    -0.247 OA
HETATM    6  N   UNL     1      40.243 -16.775   3.328  1.00  0.00    -0.330 N 
HETATM    7  C   UNL     1      40.318 -15.859   2.222  1.00  0.00     0.161 C 
HETATM    8  C   UNL     1      41.592 -16.072   1.468  1.00  0.00     0.059 C 
HETATM    9  H   UNL     1      39.395 -16.808   3.877  1.00  0.00     0.165 HD
ENDROOT
BRANCH   8  10
HETATM   10  C   UNL     1      41.581 -15.620   0.052  1.00  0.00     0.256 C 
HETATM   11  N   UNL     1      41.901 -14.291  -0.084  1.00  0.00    -0.321 N 
HETATM   12  H   UNL     1      42.108 -13.747   0.749  1.00  0.00     0.169 HD
HETATM   13  O   UNL     1      41.303 -16.419  -0.833  1.00  0.00    -0.267 OA
BRANCH  11  14
HETATM   14  C   UNL     1      41.926 -13.519  -1.268  1.00  0.00     0.068 A 
HETATM   15  C   UNL     1      42.352 -12.179  -1.145  1.00  0.00     0.095 A 
HETATM   16  C   UNL     1      42.385 -11.354  -2.274  1.00  0.00     0.039 A 
HETATM   17  C   UNL     1      42.006 -11.858  -3.520  1.00  0.00     0.003 A 
HETATM   18  C   UNL     1      41.592 -13.182  -3.642  1.00  0.00     0.002 A 
HETATM   19  C   UNL     1      41.550 -14.011  -2.520  1.00  0.00     0.032 A 
BRANCH  15  20
HETATM   20  O   UNL     1      42.703 -11.788   0.127  1.00  0.00    -0.354 OA
HETATM   21  C   UNL     1      41.841 -10.864   0.780  1.00  0.00     0.210 C 
ENDBRANCH  15  20
ENDBRANCH  11  14
ENDBRANCH   8  10
BRANCH   7  22
HETATM   22  C   UNL     1      40.118 -14.429   2.733  1.00  0.00    -0.016 A 
HETATM   23  C   UNL     1      39.101 -13.582   2.224  1.00  0.00     0.056 A 
HETATM   24  C   UNL     1      38.969 -12.276   2.737  1.00  0.00     0.017 A 
HETATM   25  C   UNL     1      39.807 -11.811   3.748  1.00  0.00     0.001 A 
HETATM   26  C   UNL     1      40.788 -12.644   4.269  1.00  0.00     0.001 A 
HETATM   27  C   UNL     1      40.939 -13.937   3.772  1.00  0.00     0.010 A 
BRANCH  23  28
HETATM   28  C   UNL     1      38.135 -14.044   1.153  1.00  0.00     0.418 C 
HETATM   29  F   UNL     1      37.113 -13.163   0.966  1.00  0.00    -0.166 F 
HETATM   30  F   UNL     1      38.707 -14.210  -0.072  1.00  0.00    -0.166 F 
HETATM   31  F   UNL     1      37.555 -15.237   1.457  1.00  0.00    -0.166 F 
ENDBRANCH  23  28
ENDBRANCH   7  22
BRANCH   3  32
HETATM   32  C   UNL     1      43.715 -17.737   4.029  1.00  0.00     0.160 C 
BRANCH  32  33
HETATM   33  C   UNL     1      43.804 -19.271   4.024  1.00  0.00     0.187 C 
BRANCH  33  34
HETATM   34  O   UNL     1      44.520 -19.741   2.880  1.00  0.00    -0.394 OA
HETATM   35  C   UNL     1      43.726 -20.611   2.084  1.00  0.00     0.201 C 
ENDBRANCH  33  34
ENDBRANCH  32  33
ENDBRANCH   3  32
TORSDOF 8
ENDMDL
MODEL 6
REMARK VINA RESULT:      -7.3      3.344      6.130
REMARK  8 active torsions:
REMARK  status: ('A' for Active; 'I' for Inactive)
REMARK    1  A    between atoms: N_3  and  C_4 
REMARK    2  A    between atoms: C_4  and  C_5 
REMARK    3  A    between atoms: C_5  and  O_6 
REMARK    4  A    between atoms: C_11  and  C_12 
REMARK    5  A    between atoms: C_13  and  C_14 
REMARK    6  A    between atoms: C_22  and  C_23 
REMARK       I    between atoms: C_23  and  N_24 
REMARK    7  A    between atoms: N_24  and  C_25 
REMARK    8  A    between atoms: C_26  and  O_27 
ROOT
HETATM    1  C   UNL     1      40.937 -13.488   4.633  1.00  0.00     0.069 C 
HETATM    2  C   UNL     1      40.443 -13.473   3.206  1.00  0.00     0.026 C 
HETATM    3  N   UNL     1      39.305 -12.712   2.891  1.00  0.00    -0.301 N 
HETATM    4  C   UNL     1      38.631 -12.844   1.672  1.00  0.00     0.323 C 
HETATM    5  O   UNL     1      37.588 -12.266   1.373  1.00  0.00    -0.247 OA
HETATM    6  N   UNL     1      39.157 -13.732   0.784  1.00  0.00    -0.330 N 
HETATM    7  C   UNL     1      40.519 -14.191   0.814  1.00  0.00     0.161 C 
HETATM    8  C   UNL     1      41.030 -14.181   2.220  1.00  0.00     0.059 C 
HETATM    9  H   UNL     1      38.650 -13.769  -0.090  1.00  0.00     0.165 HD
ENDROOT
BRANCH   8  10
HETATM   10  C   UNL     1      42.167 -15.098   2.494  1.00  0.00     0.256 C 
HETATM   11  N   UNL     1      41.778 -16.412   2.592  1.00  0.00    -0.321 N 
HETATM   12  H   UNL     1      40.795 -16.643   2.478  1.00  0.00     0.169 HD
HETATM   13  O   UNL     1      43.298 -14.640   2.605  1.00  0.00    -0.267 OA
BRANCH  11  14
HETATM   14  C   UNL     1      42.578 -17.535   2.903  1.00  0.00     0.068 A 
HETATM   15  C   UNL     1      42.748 -17.835   4.273  1.00  0.00     0.095 A 
HETATM   16  C   UNL     1      43.541 -18.922   4.652  1.00  0.00     0.039 A 
HETATM   17  C   UNL     1      44.155 -19.714   3.679  1.00  0.00     0.003 A 
HETATM   18  C   UNL     1      43.981 -19.422   2.328  1.00  0.00     0.002 A 
HETATM   19  C   UNL     1      43.197 -18.334   1.940  1.00  0.00     0.032 A 
BRANCH  15  20
HETATM   20  O   UNL     1      42.099 -16.991   5.144  1.00  0.00    -0.354 OA
HETATM   21  C   UNL     1      42.897 -16.325   6.114  1.00  0.00     0.210 C 
ENDBRANCH  15  20
ENDBRANCH  11  14
ENDBRANCH   8  10
BRANCH   7  22
HETATM   22  C   UNL     1      41.355 -13.365  -0.168  1.00  0.00    -0.016 A 
HETATM   23  C   UNL     1      41.604 -13.800  -1.496  1.00  0.00     0.056 A 
HETATM   24  C   UNL     1      42.381 -12.993  -2.351  1.00  0.00     0.017 A 
HETATM   25  C   UNL     1      42.892 -11.770  -1.921  1.00  0.00     0.001 A 
HETATM   26  C   UNL     1      42.630 -11.327  -0.631  1.00  0.00     0.001 A 
HETATM   27  C   UNL     1      41.868 -12.112   0.233  1.00  0.00     0.010 A 
BRANCH  23  28
HETATM   28  C   UNL     1      41.044 -15.100  -2.032  1.00  0.00     0.418 C 
HETATM   29  F   UNL     1      41.581 -15.433  -3.239  1.00  0.00    -0.166 F 
HETATM   30  F   UNL     1      41.266 -16.172  -1.222  1.00  0.00    -0.166 F 
HETATM   31  F   UNL     1      39.698 -15.047  -2.219  1.00  0.00    -0.166 F 
ENDBRANCH  23  28
ENDBRANCH   7  22
BRANCH   3  32
HETATM   32  C   UNL     1      38.735 -11.743   3.839  1.00  0.00     0.160 C 
BRANCH  32  33
HETATM   33  C   UNL     1      39.293 -10.322   3.671  1.00  0.00     0.187 C 
BRANCH  33  34
HETATM   34  O   UNL     1      40.222 -10.008   4.710  1.00  0.00    -0.394 OA
HETATM   35  C   UNL     1      39.651 -10.191   5.999  1.00  0.00     0.201 C 
ENDBRANCH  33  34
ENDBRANCH  32  33
ENDBRANCH   3  32
TORSDOF 8
ENDMDL
MODEL 7
REMARK VINA RESULT:      -7.2      3.136      6.840
REMARK  8 active torsions:
REMARK  status: ('A' for Active; 'I' for Inactive)
REMARK    1  A    between atoms: N_3  and  C_4 
REMARK    2  A    between atoms: C_4  and  C_5 
REMARK    3  A    between atoms: C_5  and  O_6 
REMARK    4  A    between atoms: C_11  and  C_12 
REMARK    5  A    between atoms: C_13  and  C_14 
REMARK    6  A    between atoms: C_22  and  C_23 
REMARK       I    between atoms: C_23  and  N_24 
REMARK    7  A    between atoms: N_24  and  C_25 
REMARK    8  A    between atoms: C_26  and  O_27 
ROOT
HETATM    1  C   UNL     1      43.642 -19.206   2.125  1.00  0.00     0.069 C 
HETATM    2  C   UNL     1      43.338 -18.792   3.545  1.00  0.00     0.026 C 
HETATM    3  N   UNL     1      43.977 -19.465   4.599  1.00  0.00    -0.301 N 
HETATM    4  C   UNL     1      43.568 -19.330   5.930  1.00  0.00     0.323 C 
HETATM    5  O   UNL     1      44.035 -19.953   6.882  1.00  0.00    -0.247 OA
HETATM    6  N   UNL     1      42.531 -18.479   6.160  1.00  0.00    -0.330 N 
HETATM    7  C   UNL     1      42.134 -17.430   5.260  1.00  0.00     0.161 C 
HETATM    8  C   UNL     1      42.459 -17.817   3.851  1.00  0.00     0.059 C 
HETATM    9  H   UNL     1      42.293 -18.396   7.139  1.00  0.00     0.165 HD
ENDROOT
BRANCH   8  10
HETATM   10  C   UNL     1      41.658 -17.135   2.800  1.00  0.00     0.256 C 
HETATM   11  N   UNL     1      42.406 -16.265   2.044  1.00  0.00    -0.321 N 
HETATM   12  H   UNL     1      43.395 -16.157   2.252  1.00  0.00     0.169 HD
HETATM   13  O   UNL     1      40.464 -17.386   2.694  1.00  0.00    -0.267 OA
BRANCH  11  14
HETATM   14  C   UNL     1      41.963 -15.411   1.009  1.00  0.00     0.068 A 
HETATM   15  C   UNL     1      42.010 -14.023   1.265  1.00  0.00     0.095 A 
HETATM   16  C   UNL     1      41.571 -13.122   0.290  1.00  0.00     0.039 A 
HETATM   17  C   UNL     1      41.096 -13.594  -0.935  1.00  0.00     0.003 A 
HETATM   18  C   UNL     1      41.055 -14.962  -1.190  1.00  0.00     0.002 A 
HETATM   19  C   UNL     1      41.485 -15.870  -0.220  1.00  0.00     0.032 A 
BRANCH  15  20
HETATM   20  O   UNL     1      42.497 -13.669   2.502  1.00  0.00    -0.354 OA
HETATM   21  C   UNL     1      41.983 -12.476   3.082  1.00  0.00     0.210 C 
ENDBRANCH  15  20
ENDBRANCH  11  14
ENDBRANCH   8  10
BRANCH   7  22
HETATM   22  C   UNL     1      42.761 -16.108   5.712  1.00  0.00    -0.016 A 
HETATM   23  C   UNL     1      41.993 -14.926   5.872  1.00  0.00     0.056 A 
HETATM   24  C   UNL     1      42.630 -13.741   6.291  1.00  0.00     0.017 A 
HETATM   25  C   UNL     1      43.996 -13.716   6.570  1.00  0.00     0.001 A 
HETATM   26  C   UNL     1      44.747 -14.876   6.441  1.00  0.00     0.001 A 
HETATM   27  C   UNL     1      44.138 -16.058   6.022  1.00  0.00     0.010 A 
BRANCH  23  28
HETATM   28  C   UNL     1      40.500 -14.900   5.622  1.00  0.00     0.418 C 
HETATM   29  F   UNL     1      39.902 -13.814   6.185  1.00  0.00    -0.166 F 
HETATM   30  F   UNL     1      40.162 -14.864   4.303  1.00  0.00    -0.166 F 
HETATM   31  F   UNL     1      39.869 -15.989   6.138  1.00  0.00    -0.166 F 
ENDBRANCH  23  28
ENDBRANCH   7  22
BRANCH   3  32
HETATM   32  C   UNL     1      45.106 -20.379   4.363  1.00  0.00     0.160 C 
BRANCH  32  33
HETATM   33  C   UNL     1      44.898 -21.776   4.967  1.00  0.00     0.187 C 
BRANCH  33  34
HETATM   34  O   UNL     1      44.371 -22.683   3.998  1.00  0.00    -0.394 OA
HETATM   35  C   UNL     1      44.758 -22.325   2.678  1.00  0.00     0.201 C 
ENDBRANCH  33  34
ENDBRANCH  32  33
ENDBRANCH   3  32
TORSDOF 8
ENDMDL
MODEL 8
REMARK VINA RESULT:      -7.0      2.874      6.899
REMARK  8 active torsions:
REMARK  status: ('A' for Active; 'I' for Inactive)
REMARK    1  A    between atoms: N_3  and  C_4 
REMARK    2  A    between atoms: C_4  and  C_5 
REMARK    3  A    between atoms: C_5  and  O_6 
REMARK    4  A    between atoms: C_11  and  C_12 
REMARK    5  A    between atoms: C_13  and  C_14 
REMARK    6  A    between atoms: C_22  and  C_23 
REMARK       I    between atoms: C_23  and  N_24 
REMARK    7  A    between atoms: N_24  and  C_25 
REMARK    8  A    between atoms: C_26  and  O_27 
ROOT
HETATM    1  C   UNL     1      43.295 -17.240   0.978  1.00  0.00     0.069 C 
HETATM    2  C   UNL     1      42.912 -17.233   2.439  1.00  0.00     0.026 C 
HETATM    3  N   UNL     1      43.288 -18.322   3.243  1.00  0.00    -0.301 N 
HETATM    4  C   UNL     1      42.761 -18.524   4.523  1.00  0.00     0.323 C 
HETATM    5  O   UNL     1      42.990 -19.497   5.238  1.00  0.00    -0.247 OA
HETATM    6  N   UNL     1      41.882 -17.585   4.970  1.00  0.00    -0.330 N 
HETATM    7  C   UNL     1      41.794 -16.249   4.445  1.00  0.00     0.161 C 
HETATM    8  C   UNL     1      42.201 -16.237   3.006  1.00  0.00     0.059 C 
HETATM    9  H   UNL     1      41.552 -17.762   5.909  1.00  0.00     0.165 HD
ENDROOT
BRANCH   8  10
HETATM   10  C   UNL     1      41.669 -15.108   2.200  1.00  0.00     0.256 C 
HETATM   11  N   UNL     1      40.363 -15.296   1.818  1.00  0.00    -0.321 N 
HETATM   12  H   UNL     1      39.886 -16.149   2.100  1.00  0.00     0.169 HD
HETATM   13  O   UNL     1      42.393 -14.151   1.951  1.00  0.00    -0.267 OA
BRANCH  11  14
HETATM   14  C   UNL     1      39.566 -14.462   1.001  1.00  0.00     0.068 A 
HETATM   15  C   UNL     1      39.830 -14.490  -0.386  1.00  0.00     0.095 A 
HETATM   16  C   UNL     1      39.091 -13.678  -1.250  1.00  0.00     0.039 A 
HETATM   17  C   UNL     1      38.090 -12.847  -0.744  1.00  0.00     0.003 A 
HETATM   18  C   UNL     1      37.825 -12.823   0.623  1.00  0.00     0.002 A 
HETATM   19  C   UNL     1      38.562 -13.627   1.495  1.00  0.00     0.032 A 
BRANCH  15  20
HETATM   20  O   UNL     1      40.836 -15.345  -0.775  1.00  0.00    -0.354 OA
HETATM   21  C   UNL     1      40.971 -15.592  -2.169  1.00  0.00     0.210 C 
ENDBRANCH  15  20
ENDBRANCH  11  14
ENDBRANCH   8  10
BRANCH   7  22
HETATM   22  C   UNL     1      42.601 -15.300   5.337  1.00  0.00    -0.016 A 
HETATM   23  C   UNL     1      42.088 -14.047   5.762  1.00  0.00     0.056 A 
HETATM   24  C   UNL     1      42.880 -13.220   6.582  1.00  0.00     0.017 A 
HETATM   25  C   UNL     1      44.149 -13.620   6.998  1.00  0.00     0.001 A 
HETATM   26  C   UNL     1      44.646 -14.856   6.607  1.00  0.00     0.001 A 
HETATM   27  C   UNL     1      43.881 -15.688   5.791  1.00  0.00     0.010 A 
BRANCH  23  28
HETATM   28  C   UNL     1      40.702 -13.575   5.375  1.00  0.00     0.418 C 
HETATM   29  F   UNL     1      40.703 -12.880   4.204  1.00  0.00    -0.166 F 
HETATM   30  F   UNL     1      39.804 -14.585   5.202  1.00  0.00    -0.166 F 
HETATM   31  F   UNL     1      40.157 -12.748   6.307  1.00  0.00    -0.166 F 
ENDBRANCH  23  28
ENDBRANCH   7  22
BRANCH   3  32
HETATM   32  C   UNL     1      44.245 -19.336   2.775  1.00  0.00     0.160 C 
BRANCH  32  33
HETATM   33  C   UNL     1      43.585 -20.496   2.015  1.00  0.00     0.187 C 
BRANCH  33  34
HETATM   34  O   UNL     1      44.448 -21.633   1.961  1.00  0.00    -0.394 OA
HETATM   35  C   UNL     1      44.494 -22.318   3.205  1.00  0.00     0.201 C 
ENDBRANCH  33  34
ENDBRANCH  32  33
ENDBRANCH   3  32
TORSDOF 8
ENDMDL
MODEL 9
REMARK VINA RESULT:      -6.8      2.914      7.000
REMARK  8 active torsions:
REMARK  status: ('A' for Active; 'I' for Inactive)
REMARK    1  A    between atoms: N_3  and  C_4 
REMARK    2  A    between atoms: C_4  and  C_5 
REMARK    3  A    between atoms: C_5  and  O_6 
REMARK    4  A    between atoms: C_11  and  C_12 
REMARK    5  A    between atoms: C_13  and  C_14 
REMARK    6  A    between atoms: C_22  and  C_23 
REMARK       I    between atoms: C_23  and  N_24 
REMARK    7  A    between atoms: N_24  and  C_25 
REMARK    8  A    between atoms: C_26  and  O_27 
ROOT
HETATM    1  C   UNL     1      43.643 -17.327   0.784  1.00  0.00     0.069 C 
HETATM    2  C   UNL     1      42.975 -17.156   2.128  1.00  0.00     0.026 C 
HETATM    3  N   UNL     1      43.130 -18.163   3.095  1.00  0.00    -0.301 N 
HETATM    4  C   UNL     1      42.347 -18.214   4.254  1.00  0.00     0.323 C 
HETATM    5  O   UNL     1      42.382 -19.112   5.093  1.00  0.00    -0.247 OA
HETATM    6  N   UNL     1      41.442 -17.210   4.416  1.00  0.00    -0.330 N 
HETATM    7  C   UNL     1      41.525 -15.935   3.756  1.00  0.00     0.161 C 
HETATM    8  C   UNL     1      42.212 -16.087   2.437  1.00  0.00     0.059 C 
HETATM    9  H   UNL     1      40.922 -17.278   5.281  1.00  0.00     0.165 HD
ENDROOT
BRANCH   8  10
HETATM   10  C   UNL     1      41.907 -15.035   1.432  1.00  0.00     0.256 C 
HETATM   11  N   UNL     1      41.011 -15.456   0.478  1.00  0.00    -0.321 N 
HETATM   12  H   UNL     1      40.648 -16.403   0.529  1.00  0.00     0.169 HD
HETATM   13  O   UNL     1      42.446 -13.939   1.524  1.00  0.00    -0.267 OA
BRANCH  11  14
HETATM   14  C   UNL     1      40.547 -14.745  -0.652  1.00  0.00     0.068 A 
HETATM   15  C   UNL     1      39.279 -14.134  -0.543  1.00  0.00     0.095 A 
HETATM   16  C   UNL     1      38.751 -13.430  -1.629  1.00  0.00     0.039 A 
HETATM   17  C   UNL     1      39.480 -13.325  -2.815  1.00  0.00     0.003 A 
HETATM   18  C   UNL     1      40.734 -13.923  -2.921  1.00  0.00     0.002 A 
HETATM   19  C   UNL     1      41.266 -14.633  -1.844  1.00  0.00     0.032 A 
BRANCH  15  20
HETATM   20  O   UNL     1      38.649 -14.300   0.670  1.00  0.00    -0.354 OA
HETATM   21  C   UNL     1      37.378 -13.682   0.827  1.00  0.00     0.210 C 
ENDBRANCH  15  20
ENDBRANCH  11  14
ENDBRANCH   8  10
BRANCH   7  22
HETATM   22  C   UNL     1      42.180 -14.919   4.697  1.00  0.00    -0.016 A 
HETATM   23  C   UNL     1      41.496 -13.762   5.150  1.00  0.00     0.056 A 
HETATM   24  C   UNL     1      42.155 -12.866   6.015  1.00  0.00     0.017 A 
HETATM   25  C   UNL     1      43.458 -13.107   6.446  1.00  0.00     0.001 A 
HETATM   26  C   UNL     1      44.124 -14.250   6.026  1.00  0.00     0.001 A 
HETATM   27  C   UNL     1      43.492 -15.148   5.167  1.00  0.00     0.010 A 
BRANCH  23  28
HETATM   28  C   UNL     1      40.066 -13.467   4.748  1.00  0.00     0.418 C 
HETATM   29  F   UNL     1      39.914 -13.406   3.396  1.00  0.00    -0.166 F 
HETATM   30  F   UNL     1      39.169 -14.397   5.178  1.00  0.00    -0.166 F 
HETATM   31  F   UNL     1      39.627 -12.274   5.232  1.00  0.00    -0.166 F 
ENDBRANCH  23  28
ENDBRANCH   7  22
BRANCH   3  32
HETATM   32  C   UNL     1      44.112 -19.246   2.935  1.00  0.00     0.160 C 
BRANCH  32  33
HETATM   33  C   UNL     1      43.600 -20.415   2.081  1.00  0.00     0.187 C 
BRANCH  33  34
HETATM   34  O   UNL     1      44.541 -21.490   2.063  1.00  0.00    -0.394 OA
HETATM   35  C   UNL     1      44.505 -22.241   3.268  1.00  0.00     0.201 C 
ENDBRANCH  33  34
ENDBRANCH  32  33
ENDBRANCH   3  32
TORSDOF 8
ENDMDL
MODEL 10
REMARK VINA RESULT:      -6.7      2.888      6.618
REMARK  8 active torsions:
REMARK  status: ('A' for Active; 'I' for Inactive)
REMARK    1  A    between atoms: N_3  and  C_4 
REMARK    2  A    between atoms: C_4  and  C_5 
REMARK    3  A    between atoms: C_5  and  O_6 
REMARK    4  A    between atoms: C_11  and  C_12 
REMARK    5  A    between atoms: C_13  and  C_14 
REMARK    6  A    between atoms: C_22  and  C_23 
REMARK       I    between atoms: C_23  and  N_24 
REMARK    7  A    between atoms: N_24  and  C_25 
REMARK    8  A    between atoms: C_26  and  O_27 
ROOT
HETATM    1  C   UNL     1      42.215 -12.587   6.059  1.00  0.00     0.069 C 
HETATM    2  C   UNL     1      41.229 -12.236   4.971  1.00  0.00     0.026 C 
HETATM    3  N   UNL     1      40.842 -10.894   4.813  1.00  0.00    -0.301 N 
HETATM    4  C   UNL     1      39.755 -10.517   4.018  1.00  0.00     0.323 C 
HETATM    5  O   UNL     1      39.322  -9.372   3.906  1.00  0.00    -0.247 OA
HETATM    6  N   UNL     1      39.103 -11.522   3.370  1.00  0.00    -0.330 N 
HETATM    7  C   UNL     1      39.677 -12.812   3.099  1.00  0.00     0.161 C 
HETATM    8  C   UNL     1      40.679 -13.158   4.154  1.00  0.00     0.059 C 
HETATM    9  H   UNL     1      38.344 -11.195   2.789  1.00  0.00     0.165 HD
ENDROOT
BRANCH   8  10
HETATM   10  C   UNL     1      40.948 -14.609   4.330  1.00  0.00     0.256 C 
HETATM   11  N   UNL     1      42.034 -15.039   3.606  1.00  0.00    -0.321 N 
HETATM   12  H   UNL     1      42.541 -14.369   3.034  1.00  0.00     0.169 HD
HETATM   13  O   UNL     1      40.225 -15.272   5.063  1.00  0.00    -0.267 OA
BRANCH  11  14
HETATM   14  C   UNL     1      42.534 -16.356   3.489  1.00  0.00     0.068 A 
HETATM   15  C   UNL     1      42.110 -17.100   2.366  1.00  0.00     0.095 A 
HETATM   16  C   UNL     1      42.554 -18.415   2.197  1.00  0.00     0.039 A 
HETATM   17  C   UNL     1      43.420 -18.987   3.132  1.00  0.00     0.003 A 
HETATM   18  C   UNL     1      43.842 -18.251   4.236  1.00  0.00     0.002 A 
HETATM   19  C   UNL     1      43.400 -16.939   4.416  1.00  0.00     0.032 A 
BRANCH  15  20
HETATM   20  O   UNL     1      41.260 -16.439   1.510  1.00  0.00    -0.354 OA
HETATM   21  C   UNL     1      41.560 -16.507   0.121  1.00  0.00     0.210 C 
ENDBRANCH  15  20
ENDBRANCH  11  14
ENDBRANCH   8  10
BRANCH   7  22
HETATM   22  C   UNL     1      40.233 -12.829   1.671  1.00  0.00    -0.016 A 
HETATM   23  C   UNL     1      39.493 -13.356   0.582  1.00  0.00     0.056 A 
HETATM   24  C   UNL     1      40.060 -13.343  -0.708  1.00  0.00     0.017 A 
HETATM   25  C   UNL     1      41.325 -12.804  -0.934  1.00  0.00     0.001 A 
HETATM   26  C   UNL     1      42.043 -12.263   0.124  1.00  0.00     0.001 A 
HETATM   27  C   UNL     1      41.503 -12.271   1.409  1.00  0.00     0.010 A 
BRANCH  23  28
HETATM   28  C   UNL     1      38.098 -13.920   0.757  1.00  0.00     0.418 C 
HETATM   29  F   UNL     1      38.085 -15.019   1.562  1.00  0.00    -0.166 F 
HETATM   30  F   UNL     1      37.216 -13.044   1.315  1.00  0.00    -0.166 F 
HETATM   31  F   UNL     1      37.543 -14.308  -0.422  1.00  0.00    -0.166 F 
ENDBRANCH  23  28
ENDBRANCH   7  22
BRANCH   3  32
HETATM   32  C   UNL     1      41.546  -9.800   5.499  1.00  0.00     0.160 C 
BRANCH  32  33
HETATM   33  C   UNL     1      41.019  -9.526   6.915  1.00  0.00     0.187 C 
BRANCH  33  34
HETATM   34  O   UNL     1      42.087  -9.482   7.863  1.00  0.00    -0.394 OA
HETATM   35  C   UNL     1      41.821 -10.301   8.993  1.00  0.00     0.201 C 
ENDBRANCH  33  34
ENDBRANCH  32  33
ENDBRANCH   3  32
TORSDOF 8
ENDMDL
