MODEL 1
REMARK VINA RESULT:      -8.1      0.000      0.000
REMARK  8 active torsions:
REMARK  status: ('A' for Active; 'I' for Inactive)
REMARK    1  A    between atoms: C_2  and  C_3 
REMARK    2  A    between atoms: C_3  and  N_4 
REMARK    3  A    between atoms: N_4  and  C_6 
REMARK    4  A    between atoms: N_4  and  C_23 
REMARK    5  A    between atoms: C_6  and  C_7 
REMARK       I    between atoms: C_7  and  N_8 
REMARK    6  A    between atoms: N_8  and  C_9 
REMARK    7  A    between atoms: C_23  and  C_24 
REMARK       I    between atoms: C_24  and  N_25 
REMARK    8  A    between atoms: N_25  and  C_26 
ROOT
HETATM    1  N   UNL     1      40.752 -12.515   1.440  1.00  0.00    -0.055 N 
HETATM    2  H   UNL     1      40.367 -13.364   1.885  1.00  0.00     0.281 HD
ENDROOT
BRANCH   1   3
HETATM    3  C   UNL     1      39.633 -11.499   1.373  1.00  0.00     0.235 C 
BRANCH   3   4
HETATM    4  C   UNL     1      38.305 -12.029   1.912  1.00  0.00     0.023 C 
HETATM    5  C   UNL     1      37.270 -12.313   0.836  1.00  0.00     0.007 C 
ENDBRANCH   3   4
ENDBRANCH   1   3
BRANCH   1   6
HETATM    6  C   UNL     1      41.321 -12.920   0.063  1.00  0.00     0.338 C 
BRANCH   6   7
HETATM    7  C   UNL     1      40.352 -13.800  -0.749  1.00  0.00     0.249 C 
HETATM    8  N   UNL     1      40.163 -15.118  -0.501  1.00  0.00    -0.304 N 
HETATM    9  H   UNL     1      39.433 -15.580  -1.033  1.00  0.00     0.171 HD
HETATM   10  O   UNL     1      39.649 -13.273  -1.622  1.00  0.00    -0.271 OA
BRANCH   8  11
HETATM   11  C   UNL     1      40.908 -15.909   0.317  1.00  0.00     0.174 A 
HETATM   12  S   UNL     1      40.257 -16.098   1.874  1.00  0.00    -0.050 SA
HETATM   13  C   UNL     1      41.585 -17.112   2.290  1.00  0.00     0.040 A 
HETATM   14  C   UNL     1      42.419 -17.248   1.174  1.00  0.00     0.079 A 
HETATM   15  C   UNL     1      41.860 -17.744   3.512  1.00  0.00     0.061 A 
HETATM   16  N   UNL     1      42.027 -16.523   0.050  1.00  0.00    -0.223 NA
HETATM   17  C   UNL     1      43.550 -18.083   1.272  1.00  0.00     0.072 A 
HETATM   18  C   UNL     1      43.812 -18.746   2.475  1.00  0.00     0.104 A 
HETATM   19  C   UNL     1      42.995 -18.551   3.589  1.00  0.00     0.103 A 
HETATM   20  O   UNL     1      44.903 -19.579   2.486  1.00  0.00    -0.346 OA
HETATM   21  O   UNL     1      43.232 -19.138   4.807  1.00  0.00    -0.346 OA
HETATM   22  C   UNL     1      44.549 -19.696   4.882  1.00  0.00     0.202 C 
HETATM   23  C   UNL     1      44.873 -20.466   3.613  1.00  0.00     0.202 C 
ENDBRANCH   8  11
ENDBRANCH   6   7
ENDBRANCH   1   6
BRANCH   1  24
HETATM   24  C   UNL     1      41.856 -12.063   2.417  1.00  0.00     0.338 C 
BRANCH  24  25
HETATM   25  C   UNL     1      42.451 -13.252   3.180  1.00  0.00     0.248 C 
HETATM   26  N   UNL     1      41.830 -13.501   4.386  1.00  0.00    -0.323 N 
HETATM   27  H   UNL     1      41.057 -12.902   4.675  1.00  0.00     0.169 HD
HETATM   28  O   UNL     1      43.359 -13.896   2.661  1.00  0.00    -0.271 OA
BRANCH  26  29
HETATM   29  C   UNL     1      42.094 -14.551   5.295  1.00  0.00     0.077 A 
HETATM   30  C   UNL     1      40.994 -15.333   5.684  1.00  0.00     0.184 A 
HETATM   31  F   UNL     1      39.785 -15.044   5.175  1.00  0.00    -0.200 F 
HETATM   32  C   UNL     1      41.139 -16.398   6.563  1.00  0.00     0.195 A 
HETATM   33  F   UNL     1      40.074 -17.136   6.905  1.00  0.00    -0.199 F 
HETATM   34  C   UNL     1      42.392 -16.691   7.073  1.00  0.00     0.158 A 
HETATM   35  F   UNL     1      42.554 -17.714   7.922  1.00  0.00    -0.203 F 
HETATM   36  C   UNL     1      43.499 -15.926   6.708  1.00  0.00     0.048 A 
HETATM   37  C   UNL     1      43.353 -14.855   5.817  1.00  0.00     0.036 A 
ENDBRANCH  26  29
ENDBRANCH  24  25
ENDBRANCH   1  24
TORSDOF 8
ENDMDL
MODEL 2
REMARK VINA RESULT:      -8.1      5.819      9.334
REMARK  8 active torsions:
REMARK  status: ('A' for Active; 'I' for Inactive)
REMARK    1  A    between atoms: C_2  and  C_3 
REMARK    2  A    between atoms: C_3  and  N_4 
REMARK    3  A    between atoms: N_4  and  C_6 
REMARK    4  A    between atoms: N_4  and  C_23 
REMARK    5  A    between atoms: C_6  and  C_7 
REMARK       I    between atoms: C_7  and  N_8 
REMARK    6  A    between atoms: N_8  and  C_9 
REMARK    7  A    between atoms: C_23  and  C_24 
REMARK       I    between atoms: C_24  and  N_25 
REMARK    8  A    between atoms: N_25  and  C_26 
ROOT
HETATM    1  N   UNL     1      43.117 -14.616   6.357  1.00  0.00    -0.055 N 
HETATM    2  H   UNL     1      43.697 -15.021   5.605  1.00  0.00     0.281 HD
ENDROOT
BRANCH   1   3
HETATM    3  C   UNL     1      42.516 -13.337   5.819  1.00  0.00     0.235 C 
BRANCH   3   4
HETATM    4  C   UNL     1      42.652 -13.199   4.303  1.00  0.00     0.023 C 
HETATM    5  C   UNL     1      43.815 -13.980   3.712  1.00  0.00     0.007 C 
ENDBRANCH   3   4
ENDBRANCH   1   3
BRANCH   1   6
HETATM    6  C   UNL     1      44.019 -14.418   7.595  1.00  0.00     0.338 C 
BRANCH   6   7
HETATM    7  C   UNL     1      45.228 -13.505   7.313  1.00  0.00     0.249 C 
HETATM    8  N   UNL     1      45.498 -12.391   8.035  1.00  0.00    -0.304 N 
HETATM    9  H   UNL     1      46.370 -11.916   7.826  1.00  0.00     0.171 HD
HETATM   10  O   UNL     1      46.041 -13.836   6.440  1.00  0.00    -0.271 OA
BRANCH   8  11
HETATM   11  C   UNL     1      44.684 -11.790   8.943  1.00  0.00     0.174 A 
HETATM   12  S   UNL     1      45.177 -11.997  10.555  1.00  0.00    -0.050 SA
HETATM   13  C   UNL     1      43.825 -11.064  11.073  1.00  0.00     0.040 A 
HETATM   14  C   UNL     1      43.110 -10.639   9.947  1.00  0.00     0.079 A 
HETATM   15  C   UNL     1      43.436 -10.729  12.378  1.00  0.00     0.061 A 
HETATM   16  N   UNL     1      43.604 -11.091   8.725  1.00  0.00    -0.223 NA
HETATM   17  C   UNL     1      41.984  -9.812  10.133  1.00  0.00     0.072 A 
HETATM   18  C   UNL     1      41.610  -9.443  11.429  1.00  0.00     0.104 A 
HETATM   19  C   UNL     1      42.308  -9.924  12.537  1.00  0.00     0.103 A 
HETATM   20  O   UNL     1      40.533  -8.599  11.534  1.00  0.00    -0.346 OA
HETATM   21  O   UNL     1      41.957  -9.633  13.831  1.00  0.00    -0.346 OA
HETATM   22  C   UNL     1      40.645  -9.063  13.912  1.00  0.00     0.202 C 
HETATM   23  C   UNL     1      40.459  -8.004  12.838  1.00  0.00     0.202 C 
ENDBRANCH   8  11
ENDBRANCH   6   7
ENDBRANCH   1   6
BRANCH   1  24
HETATM   24  C   UNL     1      42.031 -15.685   6.593  1.00  0.00     0.338 C 
BRANCH  24  25
HETATM   25  C   UNL     1      42.098 -16.795   5.539  1.00  0.00     0.248 C 
HETATM   26  N   UNL     1      43.383 -17.206   5.252  1.00  0.00    -0.323 N 
HETATM   27  H   UNL     1      44.163 -16.761   5.734  1.00  0.00     0.169 HD
HETATM   28  O   UNL     1      41.050 -17.251   5.089  1.00  0.00    -0.271 OA
BRANCH  26  29
HETATM   29  C   UNL     1      43.785 -18.244   4.378  1.00  0.00     0.077 A 
HETATM   30  C   UNL     1      44.408 -19.354   4.970  1.00  0.00     0.184 A 
HETATM   31  F   UNL     1      44.574 -19.365   6.304  1.00  0.00    -0.200 F 
HETATM   32  C   UNL     1      44.832 -20.435   4.211  1.00  0.00     0.195 A 
HETATM   33  F   UNL     1      45.410 -21.488   4.805  1.00  0.00    -0.199 F 
HETATM   34  C   UNL     1      44.645 -20.416   2.839  1.00  0.00     0.158 A 
HETATM   35  F   UNL     1      45.048 -21.449   2.088  1.00  0.00    -0.203 F 
HETATM   36  C   UNL     1      44.036 -19.323   2.226  1.00  0.00     0.048 A 
HETATM   37  C   UNL     1      43.603 -18.234   2.994  1.00  0.00     0.036 A 
ENDBRANCH  26  29
ENDBRANCH  24  25
ENDBRANCH   1  24
TORSDOF 8
ENDMDL
MODEL 3
REMARK VINA RESULT:      -8.1      2.618      6.700
REMARK  8 active torsions:
REMARK  status: ('A' for Active; 'I' for Inactive)
REMARK    1  A    between atoms: C_2  and  C_3 
REMARK    2  A    between atoms: C_3  and  N_4 
REMARK    3  A    between atoms: N_4  and  C_6 
REMARK    4  A    between atoms: N_4  and  C_23 
REMARK    5  A    between atoms: C_6  and  C_7 
REMARK       I    between atoms: C_7  and  N_8 
REMARK    6  A    between atoms: N_8  and  C_9 
REMARK    7  A    between atoms: C_23  and  C_24 
REMARK       I    between atoms: C_24  and  N_25 
REMARK    8  A    between atoms: N_25  and  C_26 
ROOT
HETATM    1  N   UNL     1      43.055 -15.265   4.532  1.00  0.00    -0.055 N 
HETATM    2  H   UNL     1      43.274 -16.232   4.821  1.00  0.00     0.281 HD
ENDROOT
BRANCH   1   3
HETATM    3  C   UNL     1      43.784 -14.340   5.481  1.00  0.00     0.235 C 
BRANCH   3   4
HETATM    4  C   UNL     1      44.430 -15.071   6.657  1.00  0.00     0.023 C 
HETATM    5  C   UNL     1      43.754 -16.384   7.016  1.00  0.00     0.007 C 
ENDBRANCH   3   4
ENDBRANCH   1   3
BRANCH   1   6
HETATM    6  C   UNL     1      41.520 -15.103   4.548  1.00  0.00     0.338 C 
BRANCH   6   7
HETATM    7  C   UNL     1      40.776 -16.429   4.305  1.00  0.00     0.249 C 
HETATM    8  N   UNL     1      40.333 -16.817   3.085  1.00  0.00    -0.304 N 
HETATM    9  H   UNL     1      39.941 -17.750   3.020  1.00  0.00     0.171 HD
HETATM   10  O   UNL     1      40.638 -17.223   5.245  1.00  0.00    -0.271 OA
BRANCH   8  11
HETATM   11  C   UNL     1      40.273 -16.057   1.959  1.00  0.00     0.174 A 
HETATM   12  S   UNL     1      39.088 -14.843   2.008  1.00  0.00    -0.050 SA
HETATM   13  C   UNL     1      39.554 -14.344   0.427  1.00  0.00     0.040 A 
HETATM   14  C   UNL     1      40.617 -15.145  -0.006  1.00  0.00     0.079 A 
HETATM   15  C   UNL     1      39.020 -13.315  -0.364  1.00  0.00     0.061 A 
HETATM   16  N   UNL     1      41.002 -16.149   0.880  1.00  0.00    -0.223 NA
HETATM   17  C   UNL     1      41.196 -14.878  -1.263  1.00  0.00     0.072 A 
HETATM   18  C   UNL     1      40.695 -13.831  -2.042  1.00  0.00     0.104 A 
HETATM   19  C   UNL     1      39.600 -13.083  -1.611  1.00  0.00     0.103 A 
HETATM   20  O   UNL     1      41.336 -13.598  -3.233  1.00  0.00    -0.346 OA
HETATM   21  O   UNL     1      39.037 -12.076  -2.355  1.00  0.00    -0.346 OA
HETATM   22  C   UNL     1      39.490 -12.101  -3.714  1.00  0.00     0.202 C 
HETATM   23  C   UNL     1      40.994 -12.312  -3.769  1.00  0.00     0.202 C 
ENDBRANCH   8  11
ENDBRANCH   6   7
ENDBRANCH   1   6
BRANCH   1  24
HETATM   24  C   UNL     1      43.636 -15.171   3.107  1.00  0.00     0.338 C 
BRANCH  24  25
HETATM   25  C   UNL     1      44.008 -16.554   2.562  1.00  0.00     0.248 C 
HETATM   26  N   UNL     1      43.791 -17.578   3.458  1.00  0.00    -0.323 N 
HETATM   27  H   UNL     1      43.420 -17.355   4.381  1.00  0.00     0.169 HD
HETATM   28  O   UNL     1      44.404 -16.648   1.402  1.00  0.00    -0.271 OA
BRANCH  26  29
HETATM   29  C   UNL     1      43.971 -18.965   3.249  1.00  0.00     0.077 A 
HETATM   30  C   UNL     1      44.633 -19.671   4.266  1.00  0.00     0.184 A 
HETATM   31  F   UNL     1      45.040 -19.000   5.356  1.00  0.00    -0.200 F 
HETATM   32  C   UNL     1      44.854 -21.038   4.172  1.00  0.00     0.195 A 
HETATM   33  F   UNL     1      45.474 -21.688   5.165  1.00  0.00    -0.199 F 
HETATM   34  C   UNL     1      44.420 -21.719   3.047  1.00  0.00     0.158 A 
HETATM   35  F   UNL     1      44.623 -23.038   2.936  1.00  0.00    -0.203 F 
HETATM   36  C   UNL     1      43.767 -21.041   2.020  1.00  0.00     0.048 A 
HETATM   37  C   UNL     1      43.540 -19.662   2.119  1.00  0.00     0.036 A 
ENDBRANCH  26  29
ENDBRANCH  24  25
ENDBRANCH   1  24
TORSDOF 8
ENDMDL
MODEL 4
REMARK VINA RESULT:      -8.0      3.351      6.161
REMARK  8 active torsions:
REMARK  status: ('A' for Active; 'I' for Inactive)
REMARK    1  A    between atoms: C_2  and  C_3 
REMARK    2  A    between atoms: C_3  and  N_4 
REMARK    3  A    between atoms: N_4  and  C_6 
REMARK    4  A    between atoms: N_4  and  C_23 
REMARK    5  A    between atoms: C_6  and  C_7 
REMARK       I    between atoms: C_7  and  N_8 
REMARK    6  A    between atoms: N_8  and  C_9 
REMARK    7  A    between atoms: C_23  and  C_24 
REMARK       I    between atoms: C_24  and  N_25 
REMARK    8  A    between atoms: N_25  and  C_26 
ROOT
HETATM    1  N   UNL     1      40.791 -13.195   3.353  1.00  0.00    -0.055 N 
HETATM    2  H   UNL     1      40.671 -14.220   3.383  1.00  0.00     0.281 HD
ENDROOT
BRANCH   1   3
HETATM    3  C   UNL     1      42.063 -12.915   2.584  1.00  0.00     0.235 C 
BRANCH   3   4
HETATM    4  C   UNL     1      43.128 -13.995   2.770  1.00  0.00     0.023 C 
HETATM    5  C   UNL     1      43.826 -13.951   4.120  1.00  0.00     0.007 C 
ENDBRANCH   3   4
ENDBRANCH   1   3
BRANCH   1   6
HETATM    6  C   UNL     1      40.806 -12.679   4.808  1.00  0.00     0.338 C 
BRANCH   6   7
HETATM    7  C   UNL     1      39.747 -13.360   5.696  1.00  0.00     0.249 C 
HETATM    8  N   UNL     1      39.778 -14.678   6.008  1.00  0.00    -0.304 N 
HETATM    9  H   UNL     1      39.087 -15.002   6.675  1.00  0.00     0.171 HD
HETATM   10  O   UNL     1      38.863 -12.667   6.218  1.00  0.00    -0.271 OA
BRANCH   8  11
HETATM   11  C   UNL     1      40.577 -15.629   5.454  1.00  0.00     0.174 A 
HETATM   12  S   UNL     1      41.614 -16.390   6.562  1.00  0.00    -0.050 SA
HETATM   13  C   UNL     1      42.241 -17.362   5.286  1.00  0.00     0.040 A 
HETATM   14  C   UNL     1      41.573 -17.037   4.100  1.00  0.00     0.079 A 
HETATM   15  C   UNL     1      43.243 -18.342   5.338  1.00  0.00     0.061 A 
HETATM   16  N   UNL     1      40.634 -16.013   4.209  1.00  0.00    -0.223 NA
HETATM   17  C   UNL     1      41.892 -17.751   2.927  1.00  0.00     0.072 A 
HETATM   18  C   UNL     1      42.864 -18.755   2.977  1.00  0.00     0.104 A 
HETATM   19  C   UNL     1      43.552 -19.022   4.160  1.00  0.00     0.103 A 
HETATM   20  O   UNL     1      43.091 -19.441   1.810  1.00  0.00    -0.346 OA
HETATM   21  O   UNL     1      44.547 -19.963   4.255  1.00  0.00    -0.346 OA
HETATM   22  C   UNL     1      44.998 -20.392   2.965  1.00  0.00     0.202 C 
HETATM   23  C   UNL     1      43.815 -20.655   2.049  1.00  0.00     0.202 C 
ENDBRANCH   8  11
ENDBRANCH   6   7
ENDBRANCH   1   6
BRANCH   1  24
HETATM   24  C   UNL     1      39.552 -12.707   2.575  1.00  0.00     0.338 C 
BRANCH  24  25
HETATM   25  C   UNL     1      39.184 -13.674   1.444  1.00  0.00     0.248 C 
HETATM   26  N   UNL     1      39.486 -13.195   0.187  1.00  0.00    -0.323 N 
HETATM   27  H   UNL     1      39.909 -12.271   0.100  1.00  0.00     0.169 HD
HETATM   28  O   UNL     1      38.718 -14.774   1.732  1.00  0.00    -0.271 OA
BRANCH  26  29
HETATM   29  C   UNL     1      39.331 -13.857  -1.053  1.00  0.00     0.077 A 
HETATM   30  C   UNL     1      40.447 -14.564  -1.529  1.00  0.00     0.184 A 
HETATM   31  F   UNL     1      41.569 -14.572  -0.788  1.00  0.00    -0.200 F 
HETATM   32  C   UNL     1      40.404 -15.261  -2.728  1.00  0.00     0.195 A 
HETATM   33  F   UNL     1      41.480 -15.939  -3.150  1.00  0.00    -0.199 F 
HETATM   34  C   UNL     1      39.239 -15.253  -3.476  1.00  0.00     0.158 A 
HETATM   35  F   UNL     1      39.176 -15.919  -4.636  1.00  0.00    -0.203 F 
HETATM   36  C   UNL     1      38.119 -14.554  -3.030  1.00  0.00     0.048 A 
HETATM   37  C   UNL     1      38.162 -13.855  -1.815  1.00  0.00     0.036 A 
ENDBRANCH  26  29
ENDBRANCH  24  25
ENDBRANCH   1  24
TORSDOF 8
ENDMDL
MODEL 5
REMARK VINA RESULT:      -7.9      2.998      6.757
REMARK  8 active torsions:
REMARK  status: ('A' for Active; 'I' for Inactive)
REMARK    1  A    between atoms: C_2  and  C_3 
REMARK    2  A    between atoms: C_3  and  N_4 
REMARK    3  A    between atoms: N_4  and  C_6 
REMARK    4  A    between atoms: N_4  and  C_23 
REMARK    5  A    between atoms: C_6  and  C_7 
REMARK       I    between atoms: C_7  and  N_8 
REMARK    6  A    between atoms: N_8  and  C_9 
REMARK    7  A    between atoms: C_23  and  C_24 
REMARK       I    between atoms: C_24  and  N_25 
REMARK    8  A    between atoms: N_25  and  C_26 
ROOT
HETATM    1  N   UNL     1      42.709 -15.076   5.332  1.00  0.00    -0.055 N 
HETATM    2  H   UNL     1      42.696 -15.879   5.980  1.00  0.00     0.281 HD
ENDROOT
BRANCH   1   3
HETATM    3  C   UNL     1      43.975 -14.296   5.612  1.00  0.00     0.235 C 
BRANCH   3   4
HETATM    4  C   UNL     1      44.583 -14.605   6.979  1.00  0.00     0.023 C 
HETATM    5  C   UNL     1      45.085 -13.379   7.725  1.00  0.00     0.007 C 
ENDBRANCH   3   4
ENDBRANCH   1   3
BRANCH   1   6
HETATM    6  C   UNL     1      41.410 -14.271   5.552  1.00  0.00     0.338 C 
BRANCH   6   7
HETATM    7  C   UNL     1      41.638 -12.747   5.520  1.00  0.00     0.249 C 
HETATM    8  N   UNL     1      41.407 -11.987   4.423  1.00  0.00    -0.304 N 
HETATM    9  H   UNL     1      41.499 -10.984   4.540  1.00  0.00     0.171 HD
HETATM   10  O   UNL     1      41.973 -12.167   6.561  1.00  0.00    -0.271 OA
BRANCH   8  11
HETATM   11  C   UNL     1      41.155 -12.429   3.162  1.00  0.00     0.174 A 
HETATM   12  S   UNL     1      39.504 -12.597   2.806  1.00  0.00    -0.050 SA
HETATM   13  C   UNL     1      39.915 -13.128   1.220  1.00  0.00     0.040 A 
HETATM   14  C   UNL     1      41.307 -13.106   1.081  1.00  0.00     0.079 A 
HETATM   15  C   UNL     1      39.064 -13.525   0.177  1.00  0.00     0.061 A 
HETATM   16  N   UNL     1      42.011 -12.726   2.223  1.00  0.00    -0.223 NA
HETATM   17  C   UNL     1      41.869 -13.455  -0.163  1.00  0.00     0.072 A 
HETATM   18  C   UNL     1      41.027 -13.817  -1.219  1.00  0.00     0.104 A 
HETATM   19  C   UNL     1      39.646 -13.883  -1.039  1.00  0.00     0.103 A 
HETATM   20  O   UNL     1      41.638 -14.100  -2.415  1.00  0.00    -0.346 OA
HETATM   21  O   UNL     1      38.776 -14.277  -2.025  1.00  0.00    -0.346 OA
HETATM   22  C   UNL     1      39.459 -14.899  -3.119  1.00  0.00     0.202 C 
HETATM   23  C   UNL     1      40.696 -14.101  -3.497  1.00  0.00     0.202 C 
ENDBRANCH   8  11
ENDBRANCH   6   7
ENDBRANCH   1   6
BRANCH   1  24
HETATM   24  C   UNL     1      42.758 -15.734   3.939  1.00  0.00     0.338 C 
BRANCH  24  25
HETATM   25  C   UNL     1      42.691 -17.262   4.038  1.00  0.00     0.248 C 
HETATM   26  N   UNL     1      43.848 -17.893   3.633  1.00  0.00    -0.323 N 
HETATM   27  H   UNL     1      44.630 -17.326   3.306  1.00  0.00     0.169 HD
HETATM   28  O   UNL     1      41.678 -17.784   4.499  1.00  0.00    -0.271 OA
BRANCH  26  29
HETATM   29  C   UNL     1      44.134 -19.278   3.658  1.00  0.00     0.077 A 
HETATM   30  C   UNL     1      43.958 -19.975   2.452  1.00  0.00     0.184 A 
HETATM   31  F   UNL     1      43.545 -19.295   1.369  1.00  0.00    -0.200 F 
HETATM   32  C   UNL     1      44.220 -21.334   2.357  1.00  0.00     0.195 A 
HETATM   33  F   UNL     1      44.059 -21.970   1.189  1.00  0.00    -0.199 F 
HETATM   34  C   UNL     1      44.656 -22.021   3.478  1.00  0.00     0.158 A 
HETATM   35  F   UNL     1      44.914 -23.333   3.409  1.00  0.00    -0.203 F 
HETATM   36  C   UNL     1      44.831 -21.354   4.690  1.00  0.00     0.048 A 
HETATM   37  C   UNL     1      44.572 -19.980   4.782  1.00  0.00     0.036 A 
ENDBRANCH  26  29
ENDBRANCH  24  25
ENDBRANCH   1  24
TORSDOF 8
ENDMDL
MODEL 6
REMARK VINA RESULT:      -7.9      5.217      8.593
REMARK  8 active torsions:
REMARK  status: ('A' for Active; 'I' for Inactive)
REMARK    1  A    between atoms: C_2  and  C_3 
REMARK    2  A    between atoms: C_3  and  N_4 
REMARK    3  A    between atoms: N_4  and  C_6 
REMARK    4  A    between atoms: N_4  and  C_23 
REMARK    5  A    between atoms: C_6  and  C_7 
REMARK       I    between atoms: C_7  and  N_8 
REMARK    6  A    between atoms: N_8  and  C_9 
REMARK    7  A    between atoms: C_23  and  C_24 
REMARK       I    between atoms: C_24  and  N_25 
REMARK    8  A    between atoms: N_25  and  C_26 
ROOT
HETATM    1  N   UNL     1      42.190 -14.728   5.610  1.00  0.00    -0.055 N 
HETATM    2  H   UNL     1      41.981 -15.597   6.128  1.00  0.00     0.281 HD
ENDROOT
BRANCH   1   3
HETATM    3  C   UNL     1      43.497 -14.190   6.150  1.00  0.00     0.235 C 
BRANCH   3   4
HETATM    4  C   UNL     1      44.353 -15.257   6.829  1.00  0.00     0.023 C 
HETATM    5  C   UNL     1      43.550 -16.350   7.517  1.00  0.00     0.007 C 
ENDBRANCH   3   4
ENDBRANCH   1   3
BRANCH   1   6
HETATM    6  C   UNL     1      40.991 -13.771   5.790  1.00  0.00     0.338 C 
BRANCH   6   7
HETATM    7  C   UNL     1      41.177 -12.434   5.049  1.00  0.00     0.249 C 
HETATM    8  N   UNL     1      41.509 -11.280   5.675  1.00  0.00    -0.304 N 
HETATM    9  H   UNL     1      41.699 -10.480   5.081  1.00  0.00     0.171 HD
HETATM   10  O   UNL     1      41.098 -12.415   3.813  1.00  0.00    -0.271 OA
BRANCH   8  11
HETATM   11  C   UNL     1      41.526 -11.055   7.017  1.00  0.00     0.174 A 
HETATM   12  S   UNL     1      39.985 -10.892   7.709  1.00  0.00    -0.050 SA
HETATM   13  C   UNL     1      40.717 -10.661   9.250  1.00  0.00     0.040 A 
HETATM   14  C   UNL     1      42.106 -10.756   9.111  1.00  0.00     0.079 A 
HETATM   15  C   UNL     1      40.103 -10.420  10.489  1.00  0.00     0.061 A 
HETATM   16  N   UNL     1      42.559 -10.956   7.808  1.00  0.00    -0.223 NA
HETATM   17  C   UNL     1      42.911 -10.649  10.263  1.00  0.00     0.072 A 
HETATM   18  C   UNL     1      42.305 -10.446  11.507  1.00  0.00     0.104 A 
HETATM   19  C   UNL     1      40.922 -10.300  11.611  1.00  0.00     0.103 A 
HETATM   20  O   UNL     1      43.145 -10.397  12.591  1.00  0.00    -0.346 OA
HETATM   21  O   UNL     1      40.279 -10.053  12.798  1.00  0.00    -0.346 OA
HETATM   22  C   UNL     1      41.194  -9.655  13.826  1.00  0.00     0.202 C 
HETATM   23  C   UNL     1      42.422 -10.551  13.821  1.00  0.00     0.202 C 
ENDBRANCH   8  11
ENDBRANCH   6   7
ENDBRANCH   1   6
BRANCH   1  24
HETATM   24  C   UNL     1      42.343 -15.202   4.151  1.00  0.00     0.338 C 
BRANCH  24  25
HETATM   25  C   UNL     1      42.317 -16.731   4.054  1.00  0.00     0.248 C 
HETATM   26  N   UNL     1      43.374 -17.258   3.342  1.00  0.00    -0.323 N 
HETATM   27  H   UNL     1      44.066 -16.623   2.945  1.00  0.00     0.169 HD
HETATM   28  O   UNL     1      41.426 -17.348   4.634  1.00  0.00    -0.271 OA
BRANCH  26  29
HETATM   29  C   UNL     1      43.675 -18.622   3.121  1.00  0.00     0.077 A 
HETATM   30  C   UNL     1      44.403 -19.274   4.129  1.00  0.00     0.184 A 
HETATM   31  F   UNL     1      44.755 -18.578   5.223  1.00  0.00    -0.200 F 
HETATM   32  C   UNL     1      44.743 -20.615   4.023  1.00  0.00     0.195 A 
HETATM   33  F   UNL     1      45.424 -21.216   5.008  1.00  0.00    -0.199 F 
HETATM   34  C   UNL     1      44.365 -21.324   2.895  1.00  0.00     0.158 A 
HETATM   35  F   UNL     1      44.683 -22.619   2.773  1.00  0.00    -0.203 F 
HETATM   36  C   UNL     1      43.649 -20.698   1.876  1.00  0.00     0.048 A 
HETATM   37  C   UNL     1      43.301 -19.346   1.987  1.00  0.00     0.036 A 
ENDBRANCH  26  29
ENDBRANCH  24  25
ENDBRANCH   1  24
TORSDOF 8
ENDMDL
MODEL 7
REMARK VINA RESULT:      -7.7      2.244      4.350
REMARK  8 active torsions:
REMARK  status: ('A' for Active; 'I' for Inactive)
REMARK    1  A    between atoms: C_2  and  C_3 
REMARK    2  A    between atoms: C_3  and  N_4 
REMARK    3  A    between atoms: N_4  and  C_6 
REMARK    4  A    between atoms: N_4  and  C_23 
REMARK    5  A    between atoms: C_6  and  C_7 
REMARK       I    between atoms: C_7  and  N_8 
REMARK    6  A    between atoms: N_8  and  C_9 
REMARK    7  A    between atoms: C_23  and  C_24 
REMARK       I    between atoms: C_24  and  N_25 
REMARK    8  A    between atoms: N_25  and  C_26 
ROOT
HETATM    1  N   UNL     1      39.656 -13.266  -0.073  1.00  0.00    -0.055 N 
HETATM    2  H   UNL     1      40.426 -12.734   0.364  1.00  0.00     0.281 HD
ENDROOT
BRANCH   1   3
HETATM    3  C   UNL     1      39.122 -12.424  -1.211  1.00  0.00     0.235 C 
BRANCH   3   4
HETATM    4  C   UNL     1      37.803 -12.947  -1.778  1.00  0.00     0.023 C 
HETATM    5  C   UNL     1      37.924 -13.557  -3.165  1.00  0.00     0.007 C 
ENDBRANCH   3   4
ENDBRANCH   1   3
BRANCH   1   6
HETATM    6  C   UNL     1      38.616 -13.577   1.025  1.00  0.00     0.338 C 
BRANCH   6   7
HETATM    7  C   UNL     1      38.297 -12.357   1.910  1.00  0.00     0.249 C 
HETATM    8  N   UNL     1      38.925 -12.108   3.084  1.00  0.00    -0.304 N 
HETATM    9  H   UNL     1      38.706 -11.228   3.538  1.00  0.00     0.171 HD
HETATM   10  O   UNL     1      37.486 -11.514   1.503  1.00  0.00    -0.271 OA
BRANCH   8  11
HETATM   11  C   UNL     1      39.748 -12.951   3.763  1.00  0.00     0.174 A 
HETATM   12  S   UNL     1      41.396 -12.567   3.628  1.00  0.00    -0.050 SA
HETATM   13  C   UNL     1      41.777 -13.909   4.636  1.00  0.00     0.040 A 
HETATM   14  C   UNL     1      40.588 -14.537   5.024  1.00  0.00     0.079 A 
HETATM   15  C   UNL     1      43.037 -14.364   5.056  1.00  0.00     0.061 A 
HETATM   16  N   UNL     1      39.425 -13.987   4.488  1.00  0.00    -0.223 NA
HETATM   17  C   UNL     1      40.659 -15.638   5.901  1.00  0.00     0.072 A 
HETATM   18  C   UNL     1      41.908 -16.076   6.354  1.00  0.00     0.104 A 
HETATM   19  C   UNL     1      43.081 -15.467   5.910  1.00  0.00     0.103 A 
HETATM   20  O   UNL     1      41.900 -17.123   7.241  1.00  0.00    -0.346 OA
HETATM   21  O   UNL     1      44.334 -15.884   6.284  1.00  0.00    -0.346 OA
HETATM   22  C   UNL     1      44.301 -17.174   6.905  1.00  0.00     0.202 C 
HETATM   23  C   UNL     1      43.163 -17.252   7.909  1.00  0.00     0.202 C 
ENDBRANCH   8  11
ENDBRANCH   6   7
ENDBRANCH   1   6
BRANCH   1  24
HETATM   24  C   UNL     1      40.347 -14.540  -0.599  1.00  0.00     0.338 C 
BRANCH  24  25
HETATM   25  C   UNL     1      41.423 -15.036   0.373  1.00  0.00     0.248 C 
HETATM   26  N   UNL     1      41.382 -16.396   0.594  1.00  0.00    -0.323 N 
HETATM   27  H   UNL     1      40.669 -16.952   0.122  1.00  0.00     0.169 HD
HETATM   28  O   UNL     1      42.236 -14.231   0.820  1.00  0.00    -0.271 OA
BRANCH  26  29
HETATM   29  C   UNL     1      42.264 -17.173   1.382  1.00  0.00     0.077 A 
HETATM   30  C   UNL     1      41.799 -17.556   2.649  1.00  0.00     0.184 A 
HETATM   31  F   UNL     1      40.567 -17.175   3.026  1.00  0.00    -0.200 F 
HETATM   32  C   UNL     1      42.575 -18.329   3.501  1.00  0.00     0.195 A 
HETATM   33  F   UNL     1      42.099 -18.693   4.700  1.00  0.00    -0.199 F 
HETATM   34  C   UNL     1      43.839 -18.723   3.096  1.00  0.00     0.158 A 
HETATM   35  F   UNL     1      44.605 -19.469   3.903  1.00  0.00    -0.203 F 
HETATM   36  C   UNL     1      44.328 -18.350   1.846  1.00  0.00     0.048 A 
HETATM   37  C   UNL     1      43.540 -17.575   0.984  1.00  0.00     0.036 A 
ENDBRANCH  26  29
ENDBRANCH  24  25
ENDBRANCH   1  24
TORSDOF 8
ENDMDL
MODEL 8
REMARK VINA RESULT:      -7.7      5.405      6.272
REMARK  8 active torsions:
REMARK  status: ('A' for Active; 'I' for Inactive)
REMARK    1  A    between atoms: C_2  and  C_3 
REMARK    2  A    between atoms: C_3  and  N_4 
REMARK    3  A    between atoms: N_4  and  C_6 
REMARK    4  A    between atoms: N_4  and  C_23 
REMARK    5  A    between atoms: C_6  and  C_7 
REMARK       I    between atoms: C_7  and  N_8 
REMARK    6  A    between atoms: N_8  and  C_9 
REMARK    7  A    between atoms: C_23  and  C_24 
REMARK       I    between atoms: C_24  and  N_25 
REMARK    8  A    between atoms: N_25  and  C_26 
ROOT
HETATM    1  N   UNL     1      41.217 -11.196   6.447  1.00  0.00    -0.055 N 
HETATM    2  H   UNL     1      40.342 -11.032   6.969  1.00  0.00     0.281 HD
ENDROOT
BRANCH   1   3
HETATM    3  C   UNL     1      41.329 -10.101   5.408  1.00  0.00     0.235 C 
BRANCH   3   4
HETATM    4  C   UNL     1      40.158  -9.120   5.440  1.00  0.00     0.023 C 
HETATM    5  C   UNL     1      39.143  -9.331   4.328  1.00  0.00     0.007 C 
ENDBRANCH   3   4
ENDBRANCH   1   3
BRANCH   1   6
HETATM    6  C   UNL     1      41.156 -12.622   5.857  1.00  0.00     0.338 C 
BRANCH   6   7
HETATM    7  C   UNL     1      39.728 -13.201   5.840  1.00  0.00     0.249 C 
HETATM    8  N   UNL     1      39.466 -14.522   5.697  1.00  0.00    -0.304 N 
HETATM    9  H   UNL     1      38.497 -14.805   5.794  1.00  0.00     0.171 HD
HETATM   10  O   UNL     1      38.770 -12.443   6.043  1.00  0.00    -0.271 OA
BRANCH   8  11
HETATM   11  C   UNL     1      40.349 -15.495   5.345  1.00  0.00     0.174 A 
HETATM   12  S   UNL     1      40.750 -15.500   3.696  1.00  0.00    -0.050 SA
HETATM   13  C   UNL     1      41.793 -16.843   3.968  1.00  0.00     0.040 A 
HETATM   14  C   UNL     1      41.769 -17.166   5.330  1.00  0.00     0.079 A 
HETATM   15  C   UNL     1      42.577 -17.550   3.044  1.00  0.00     0.061 A 
HETATM   16  N   UNL     1      40.907 -16.395   6.107  1.00  0.00    -0.223 NA
HETATM   17  C   UNL     1      42.594 -18.211   5.792  1.00  0.00     0.072 A 
HETATM   18  C   UNL     1      43.407 -18.897   4.884  1.00  0.00     0.104 A 
HETATM   19  C   UNL     1      43.371 -18.591   3.524  1.00  0.00     0.103 A 
HETATM   20  O   UNL     1      44.219 -19.871   5.410  1.00  0.00    -0.346 OA
HETATM   21  O   UNL     1      44.111 -19.262   2.582  1.00  0.00    -0.346 OA
HETATM   22  C   UNL     1      44.657 -20.480   3.103  1.00  0.00     0.202 C 
HETATM   23  C   UNL     1      45.248 -20.250   4.484  1.00  0.00     0.202 C 
ENDBRANCH   8  11
ENDBRANCH   6   7
ENDBRANCH   1   6
BRANCH   1  24
HETATM   24  C   UNL     1      42.313 -11.057   7.522  1.00  0.00     0.338 C 
BRANCH  24  25
HETATM   25  C   UNL     1      41.724 -10.632   8.871  1.00  0.00     0.248 C 
HETATM   26  N   UNL     1      42.389 -11.162   9.956  1.00  0.00    -0.323 N 
HETATM   27  H   UNL     1      43.187 -11.775   9.794  1.00  0.00     0.169 HD
HETATM   28  O   UNL     1      40.779  -9.845   8.886  1.00  0.00    -0.271 OA
BRANCH  26  29
HETATM   29  C   UNL     1      42.139 -10.921  11.328  1.00  0.00     0.077 A 
HETATM   30  C   UNL     1      43.144 -10.245  12.038  1.00  0.00     0.184 A 
HETATM   31  F   UNL     1      44.256  -9.870  11.382  1.00  0.00    -0.200 F 
HETATM   32  C   UNL     1      43.000  -9.944  13.385  1.00  0.00     0.195 A 
HETATM   33  F   UNL     1      43.969  -9.284  14.033  1.00  0.00    -0.199 F 
HETATM   34  C   UNL     1      41.846 -10.327  14.046  1.00  0.00     0.158 A 
HETATM   35  F   UNL     1      41.687 -10.048  15.346  1.00  0.00    -0.203 F 
HETATM   36  C   UNL     1      40.836 -11.006  13.366  1.00  0.00     0.048 A 
HETATM   37  C   UNL     1      40.980 -11.304  12.004  1.00  0.00     0.036 A 
ENDBRANCH  26  29
ENDBRANCH  24  25
ENDBRANCH   1  24
TORSDOF 8
ENDMDL
MODEL 9
REMARK VINA RESULT:      -7.6      5.175      8.519
REMARK  8 active torsions:
REMARK  status: ('A' for Active; 'I' for Inactive)
REMARK    1  A    between atoms: C_2  and  C_3 
REMARK    2  A    between atoms: C_3  and  N_4 
REMARK    3  A    between atoms: N_4  and  C_6 
REMARK    4  A    between atoms: N_4  and  C_23 
REMARK    5  A    between atoms: C_6  and  C_7 
REMARK       I    between atoms: C_7  and  N_8 
REMARK    6  A    between atoms: N_8  and  C_9 
REMARK    7  A    between atoms: C_23  and  C_24 
REMARK       I    between atoms: C_24  and  N_25 
REMARK    8  A    between atoms: N_25  and  C_26 
ROOT
HETATM    1  N   UNL     1      42.037 -15.205   5.326  1.00  0.00    -0.055 N 
HETATM    2  H   UNL     1      42.342 -15.924   6.001  1.00  0.00     0.281 HD
ENDROOT
BRANCH   1   3
HETATM    3  C   UNL     1      43.008 -14.051   5.433  1.00  0.00     0.235 C 
BRANCH   3   4
HETATM    4  C   UNL     1      44.121 -14.293   6.451  1.00  0.00     0.023 C 
HETATM    5  C   UNL     1      44.218 -15.732   6.932  1.00  0.00     0.007 C 
ENDBRANCH   3   4
ENDBRANCH   1   3
BRANCH   1   6
HETATM    6  C   UNL     1      40.576 -14.834   5.660  1.00  0.00     0.338 C 
BRANCH   6   7
HETATM    7  C   UNL     1      39.956 -13.865   4.635  1.00  0.00     0.249 C 
HETATM    8  N   UNL     1      39.800 -12.540   4.868  1.00  0.00    -0.304 N 
HETATM    9  H   UNL     1      39.469 -11.978   4.091  1.00  0.00     0.171 HD
HETATM   10  O   UNL     1      39.653 -14.290   3.512  1.00  0.00    -0.271 OA
BRANCH   8  11
HETATM   11  C   UNL     1      39.952 -11.897   6.057  1.00  0.00     0.174 A 
HETATM   12  S   UNL     1      41.301 -10.869   6.119  1.00  0.00    -0.050 SA
HETATM   13  C   UNL     1      40.887 -10.447   7.736  1.00  0.00     0.040 A 
HETATM   14  C   UNL     1      39.713 -11.120   8.093  1.00  0.00     0.079 A 
HETATM   15  C   UNL     1      41.552  -9.579   8.616  1.00  0.00     0.061 A 
HETATM   16  N   UNL     1      39.201 -11.976   7.121  1.00  0.00    -0.223 NA
HETATM   17  C   UNL     1      39.158 -10.882   9.368  1.00  0.00     0.072 A 
HETATM   18  C   UNL     1      39.794  -9.991  10.238  1.00  0.00     0.104 A 
HETATM   19  C   UNL     1      40.992  -9.375   9.877  1.00  0.00     0.103 A 
HETATM   20  O   UNL     1      39.174  -9.772  11.443  1.00  0.00    -0.346 OA
HETATM   21  O   UNL     1      41.683  -8.529  10.709  1.00  0.00    -0.346 OA
HETATM   22  C   UNL     1      41.210  -8.607  12.059  1.00  0.00     0.202 C 
HETATM   23  C   UNL     1      39.691  -8.601  12.091  1.00  0.00     0.202 C 
ENDBRANCH   8  11
ENDBRANCH   6   7
ENDBRANCH   1   6
BRANCH   1  24
HETATM   24  C   UNL     1      42.161 -15.913   3.961  1.00  0.00     0.338 C 
BRANCH  24  25
HETATM   25  C   UNL     1      42.276 -17.432   4.126  1.00  0.00     0.248 C 
HETATM   26  N   UNL     1      43.432 -17.959   3.591  1.00  0.00    -0.323 N 
HETATM   27  H   UNL     1      44.098 -17.333   3.140  1.00  0.00     0.169 HD
HETATM   28  O   UNL     1      41.396 -18.031   4.740  1.00  0.00    -0.271 OA
BRANCH  26  29
HETATM   29  C   UNL     1      43.869 -19.304   3.629  1.00  0.00     0.077 A 
HETATM   30  C   UNL     1      43.748 -20.035   2.436  1.00  0.00     0.184 A 
HETATM   31  F   UNL     1      43.240 -19.423   1.353  1.00  0.00    -0.200 F 
HETATM   32  C   UNL     1      44.156 -21.359   2.355  1.00  0.00     0.195 A 
HETATM   33  F   UNL     1      44.042 -22.028   1.199  1.00  0.00    -0.199 F 
HETATM   34  C   UNL     1      44.686 -21.976   3.476  1.00  0.00     0.158 A 
HETATM   35  F   UNL     1      45.085 -23.252   3.419  1.00  0.00    -0.203 F 
HETATM   36  C   UNL     1      44.811 -21.275   4.674  1.00  0.00     0.048 A 
HETATM   37  C   UNL     1      44.404 -19.936   4.753  1.00  0.00     0.036 A 
ENDBRANCH  26  29
ENDBRANCH  24  25
ENDBRANCH   1  24
TORSDOF 8
ENDMDL
MODEL 10
REMARK VINA RESULT:      -7.6      3.530      7.053
REMARK  8 active torsions:
REMARK  status: ('A' for Active; 'I' for Inactive)
REMARK    1  A    between atoms: C_2  and  C_3 
REMARK    2  A    between atoms: C_3  and  N_4 
REMARK    3  A    between atoms: N_4  and  C_6 
REMARK    4  A    between atoms: N_4  and  C_23 
REMARK    5  A    between atoms: C_6  and  C_7 
REMARK       I    between atoms: C_7  and  N_8 
REMARK    6  A    between atoms: N_8  and  C_9 
REMARK    7  A    between atoms: C_23  and  C_24 
REMARK       I    between atoms: C_24  and  N_25 
REMARK    8  A    between atoms: N_25  and  C_26 
ROOT
HETATM    1  N   UNL     1      40.653 -15.565   4.125  1.00  0.00    -0.055 N 
HETATM    2  H   UNL     1      40.143 -16.453   4.254  1.00  0.00     0.281 HD
ENDROOT
BRANCH   1   3
HETATM    3  C   UNL     1      40.276 -14.661   5.278  1.00  0.00     0.235 C 
BRANCH   3   4
HETATM    4  C   UNL     1      40.224 -13.184   4.893  1.00  0.00     0.023 C 
HETATM    5  C   UNL     1      39.325 -12.343   5.784  1.00  0.00     0.007 C 
ENDBRANCH   3   4
ENDBRANCH   1   3
BRANCH   1   6
HETATM    6  C   UNL     1      40.281 -15.004   2.735  1.00  0.00     0.338 C 
BRANCH   6   7
HETATM    7  C   UNL     1      40.224 -16.093   1.647  1.00  0.00     0.249 C 
HETATM    8  N   UNL     1      40.591 -15.875   0.361  1.00  0.00    -0.304 N 
HETATM    9  H   UNL     1      40.605 -16.684  -0.250  1.00  0.00     0.171 HD
HETATM   10  O   UNL     1      39.903 -17.246   1.965  1.00  0.00    -0.271 OA
BRANCH   8  11
HETATM   11  C   UNL     1      40.855 -14.674  -0.220  1.00  0.00     0.174 A 
HETATM   12  S   UNL     1      39.498 -13.936  -0.925  1.00  0.00    -0.050 SA
HETATM   13  C   UNL     1      40.486 -12.608  -1.401  1.00  0.00     0.040 A 
HETATM   14  C   UNL     1      41.791 -12.830  -0.948  1.00  0.00     0.079 A 
HETATM   15  C   UNL     1      40.125 -11.456  -2.116  1.00  0.00     0.061 A 
HETATM   16  N   UNL     1      41.994 -14.042  -0.292  1.00  0.00    -0.223 NA
HETATM   17  C   UNL     1      42.766 -11.839  -1.183  1.00  0.00     0.072 A 
HETATM   18  C   UNL     1      42.407 -10.670  -1.862  1.00  0.00     0.104 A 
HETATM   19  C   UNL     1      41.112 -10.498  -2.350  1.00  0.00     0.103 A 
HETATM   20  O   UNL     1      43.394  -9.728  -2.015  1.00  0.00    -0.346 OA
HETATM   21  O   UNL     1      40.717  -9.394  -3.063  1.00  0.00    -0.346 OA
HETATM   22  C   UNL     1      41.837  -8.619  -3.507  1.00  0.00     0.202 C 
HETATM   23  C   UNL     1      42.848  -8.454  -2.385  1.00  0.00     0.202 C 
ENDBRANCH   8  11
ENDBRANCH   6   7
ENDBRANCH   1   6
BRANCH   1  24
HETATM   24  C   UNL     1      42.135 -15.983   4.207  1.00  0.00     0.338 C 
BRANCH  24  25
HETATM   25  C   UNL     1      42.282 -17.502   4.351  1.00  0.00     0.248 C 
HETATM   26  N   UNL     1      43.400 -18.011   3.727  1.00  0.00    -0.323 N 
HETATM   27  H   UNL     1      44.021 -17.372   3.230  1.00  0.00     0.169 HD
HETATM   28  O   UNL     1      41.458 -18.117   5.026  1.00  0.00    -0.271 OA
BRANCH  26  29
HETATM   29  C   UNL     1      43.855 -19.350   3.721  1.00  0.00     0.077 A 
HETATM   30  C   UNL     1      43.792 -20.028   2.493  1.00  0.00     0.184 A 
HETATM   31  F   UNL     1      43.318 -19.373   1.419  1.00  0.00    -0.200 F 
HETATM   32  C   UNL     1      44.223 -21.341   2.369  1.00  0.00     0.195 A 
HETATM   33  F   UNL     1      44.165 -21.958   1.181  1.00  0.00    -0.199 F 
HETATM   34  C   UNL     1      44.718 -22.001   3.481  1.00  0.00     0.158 A 
HETATM   35  F   UNL     1      45.139 -23.268   3.383  1.00  0.00    -0.203 F 
HETATM   36  C   UNL     1      44.785 -21.353   4.713  1.00  0.00     0.048 A 
HETATM   37  C   UNL     1      44.355 -20.025   4.836  1.00  0.00     0.036 A 
ENDBRANCH  26  29
ENDBRANCH  24  25
ENDBRANCH   1  24
TORSDOF 8
ENDMDL
