MODEL 1
REMARK VINA RESULT:      -9.2      0.000      0.000
REMARK  5 active torsions:
REMARK  status: ('A' for Active; 'I' for Inactive)
REMARK    1  A    between atoms: C_4  and  C_5 
REMARK    2  A    between atoms: C_5  and  C_6 
REMARK    3  A    between atoms: C_6  and  N_7 
REMARK       I    between atoms: N_7  and  C_8 
REMARK       I    between atoms: C_8  and  N_9 
REMARK    4  A    between atoms: N_9  and  N_10 
REMARK       I    between atoms: N_10  and  C_11 
REMARK    5  A    between atoms: C_11  and  C_12 
ROOT
HETATM    1  N   UNL     1      41.729 -16.741   3.749  1.00  0.00    -0.341 N 
HETATM    2  C   UNL     1      41.277 -16.037   4.841  1.00  0.00     0.334 C 
HETATM    3  N   UNL     1      40.245 -15.180   4.561  1.00  0.00    -0.249 N 
HETATM    4  O   UNL     1      41.729 -16.151   5.974  1.00  0.00    -0.246 OA
HETATM    5  H   UNL     1      41.656 -16.182   2.910  1.00  0.00     0.164 HD
HETATM    6  H   UNL     1      39.910 -14.558   5.295  1.00  0.00     0.192 HD
ENDROOT
BRANCH   3   7
HETATM    7  N   UNL     1      39.611 -15.126   3.311  1.00  0.00    -0.262 N 
HETATM    8  C   UNL     1      40.158 -14.279   2.358  1.00  0.00     0.272 C 
HETATM    9  O   UNL     1      41.264 -13.765   2.508  1.00  0.00    -0.266 OA
HETATM   10  H   UNL     1      38.612 -15.300   3.317  1.00  0.00     0.190 HD
BRANCH   8  11
HETATM   11  C   UNL     1      39.313 -14.020   1.191  1.00  0.00     0.061 A 
HETATM   12  C   UNL     1      39.663 -14.263  -0.185  1.00  0.00     0.008 A 
HETATM   13  C   UNL     1      38.583 -13.870  -0.975  1.00  0.00     0.043 A 
HETATM   14  C   UNL     1      40.806 -14.780  -0.833  1.00  0.00     0.015 A 
HETATM   15  C   UNL     1      38.587 -13.967  -2.373  1.00  0.00     0.030 A 
HETATM   16  N   UNL     1      37.607 -13.410  -0.126  1.00  0.00    -0.364 N 
HETATM   17  C   UNL     1      39.731 -14.483  -2.986  1.00  0.00     0.002 A 
HETATM   18  C   UNL     1      40.827 -14.886  -2.229  1.00  0.00     0.001 A 
HETATM   19  H   UNL     1      36.708 -13.059  -0.429  1.00  0.00     0.165 HD
HETATM   20  C   UNL     1      38.028 -13.498   1.176  1.00  0.00     0.106 A 
ENDBRANCH   8  11
ENDBRANCH   3   7
BRANCH   1  21
HETATM   21  C   UNL     1      42.903 -17.579   3.899  1.00  0.00     0.138 C 
BRANCH  21  22
HETATM   22  C   UNL     1      43.306 -18.248   2.569  1.00  0.00     0.003 C 
HETATM   23  C   UNL     1      44.234 -17.414   1.612  1.00  0.00     0.016 C 
HETATM   24  C   UNL     1      43.007 -17.042   0.766  1.00  0.00     0.002 C 
HETATM   25  C   UNL     1      42.241 -18.204   1.415  1.00  0.00     0.016 C 
BRANCH  22  26
HETATM   26  C   UNL     1      43.855 -19.731   2.948  1.00  0.00    -0.048 A 
HETATM   27  C   UNL     1      43.779 -20.805   2.035  1.00  0.00     0.008 A 
HETATM   28  C   UNL     1      44.221 -22.090   2.362  1.00  0.00     0.001 A 
HETATM   29  C   UNL     1      44.753 -22.343   3.621  1.00  0.00     0.000 A 
HETATM   30  C   UNL     1      44.840 -21.312   4.551  1.00  0.00     0.001 A 
HETATM   31  C   UNL     1      44.395 -20.029   4.216  1.00  0.00     0.008 A 
ENDBRANCH  22  26
ENDBRANCH  21  22
ENDBRANCH   1  21
TORSDOF 5
ENDMDL
MODEL 2
REMARK VINA RESULT:      -9.1      6.384      9.786
REMARK  5 active torsions:
REMARK  status: ('A' for Active; 'I' for Inactive)
REMARK    1  A    between atoms: C_4  and  C_5 
REMARK    2  A    between atoms: C_5  and  C_6 
REMARK    3  A    between atoms: C_6  and  N_7 
REMARK       I    between atoms: N_7  and  C_8 
REMARK       I    between atoms: C_8  and  N_9 
REMARK    4  A    between atoms: N_9  and  N_10 
REMARK       I    between atoms: N_10  and  C_11 
REMARK    5  A    between atoms: C_11  and  C_12 
ROOT
HETATM    1  N   UNL     1      42.588 -11.591   8.315  1.00  0.00    -0.341 N 
HETATM    2  C   UNL     1      41.850 -11.288   7.195  1.00  0.00     0.334 C 
HETATM    3  N   UNL     1      41.811 -12.295   6.266  1.00  0.00    -0.249 N 
HETATM    4  O   UNL     1      41.262 -10.227   7.018  1.00  0.00    -0.246 OA
HETATM    5  H   UNL     1      43.370 -12.184   8.077  1.00  0.00     0.164 HD
HETATM    6  H   UNL     1      41.359 -12.120   5.370  1.00  0.00     0.192 HD
ENDROOT
BRANCH   3   7
HETATM    7  N   UNL     1      42.353 -13.569   6.494  1.00  0.00    -0.262 N 
HETATM    8  C   UNL     1      43.217 -14.072   5.532  1.00  0.00     0.272 C 
HETATM    9  O   UNL     1      43.668 -13.365   4.633  1.00  0.00    -0.266 OA
HETATM   10  H   UNL     1      41.773 -14.202   7.032  1.00  0.00     0.190 HD
BRANCH   8  11
HETATM   11  C   UNL     1      43.520 -15.500   5.647  1.00  0.00     0.061 A 
HETATM   12  C   UNL     1      43.469 -16.471   4.584  1.00  0.00     0.008 A 
HETATM   13  C   UNL     1      43.820 -17.709   5.121  1.00  0.00     0.043 A 
HETATM   14  C   UNL     1      43.152 -16.409   3.210  1.00  0.00     0.015 A 
HETATM   15  C   UNL     1      43.870 -18.883   4.357  1.00  0.00     0.030 A 
HETATM   16  N   UNL     1      44.082 -17.513   6.454  1.00  0.00    -0.364 N 
HETATM   17  C   UNL     1      43.551 -18.790   3.000  1.00  0.00     0.002 A 
HETATM   18  C   UNL     1      43.197 -17.570   2.431  1.00  0.00     0.001 A 
HETATM   19  H   UNL     1      44.361 -18.245   7.093  1.00  0.00     0.165 HD
HETATM   20  C   UNL     1      43.911 -16.192   6.784  1.00  0.00     0.106 A 
ENDBRANCH   8  11
ENDBRANCH   3   7
BRANCH   1  21
HETATM   21  C   UNL     1      42.807 -10.554   9.305  1.00  0.00     0.138 C 
BRANCH  21  22
HETATM   22  C   UNL     1      43.805 -10.999  10.393  1.00  0.00     0.003 C 
HETATM   23  C   UNL     1      45.290 -10.507  10.235  1.00  0.00     0.016 C 
HETATM   24  C   UNL     1      45.673 -11.883   9.671  1.00  0.00     0.002 C 
HETATM   25  C   UNL     1      44.377 -12.456  10.262  1.00  0.00     0.016 C 
BRANCH  22  26
HETATM   26  C   UNL     1      43.110 -10.655  11.823  1.00  0.00    -0.048 A 
HETATM   27  C   UNL     1      41.863 -11.202  12.192  1.00  0.00     0.008 A 
HETATM   28  C   UNL     1      41.244 -10.889  13.405  1.00  0.00     0.001 A 
HETATM   29  C   UNL     1      41.856 -10.011  14.292  1.00  0.00     0.000 A 
HETATM   30  C   UNL     1      43.084  -9.447  13.963  1.00  0.00     0.001 A 
HETATM   31  C   UNL     1      43.696  -9.764  12.746  1.00  0.00     0.008 A 
ENDBRANCH  22  26
ENDBRANCH  21  22
ENDBRANCH   1  21
TORSDOF 5
ENDMDL
MODEL 3
REMARK VINA RESULT:      -9.1      5.976      8.722
REMARK  5 active torsions:
REMARK  status: ('A' for Active; 'I' for Inactive)
REMARK    1  A    between atoms: C_4  and  C_5 
REMARK    2  A    between atoms: C_5  and  C_6 
REMARK    3  A    between atoms: C_6  and  N_7 
REMARK       I    between atoms: N_7  and  C_8 
REMARK       I    between atoms: C_8  and  N_9 
REMARK    4  A    between atoms: N_9  and  N_10 
REMARK       I    between atoms: N_10  and  C_11 
REMARK    5  A    between atoms: C_11  and  C_12 
ROOT
HETATM    1  N   UNL     1      42.882 -14.542   6.408  1.00  0.00    -0.341 N 
HETATM    2  C   UNL     1      44.047 -14.917   7.036  1.00  0.00     0.334 C 
HETATM    3  N   UNL     1      44.603 -13.933   7.812  1.00  0.00    -0.249 N 
HETATM    4  O   UNL     1      44.560 -16.026   6.938  1.00  0.00    -0.246 OA
HETATM    5  H   UNL     1      42.911 -13.562   6.162  1.00  0.00     0.164 HD
HETATM    6  H   UNL     1      45.511 -14.100   8.242  1.00  0.00     0.192 HD
ENDROOT
BRANCH   3   7
HETATM    7  N   UNL     1      43.972 -12.704   8.058  1.00  0.00    -0.262 N 
HETATM    8  C   UNL     1      44.170 -12.128   9.305  1.00  0.00     0.272 C 
HETATM    9  O   UNL     1      45.025 -12.547  10.083  1.00  0.00    -0.266 OA
HETATM   10  H   UNL     1      43.100 -12.551   7.565  1.00  0.00     0.190 HD
BRANCH   8  11
HETATM   11  C   UNL     1      43.272 -11.019   9.633  1.00  0.00     0.061 A 
HETATM   12  C   UNL     1      43.192 -10.333  10.896  1.00  0.00     0.008 A 
HETATM   13  C   UNL     1      42.205  -9.353  10.787  1.00  0.00     0.043 A 
HETATM   14  C   UNL     1      43.869 -10.458  12.129  1.00  0.00     0.015 A 
HETATM   15  C   UNL     1      41.862  -8.497  11.842  1.00  0.00     0.030 A 
HETATM   16  N   UNL     1      41.701  -9.427   9.512  1.00  0.00    -0.364 N 
HETATM   17  C   UNL     1      42.550  -8.645  13.049  1.00  0.00     0.002 A 
HETATM   18  C   UNL     1      43.541  -9.611  13.193  1.00  0.00     0.001 A 
HETATM   19  H   UNL     1      40.968  -8.829   9.154  1.00  0.00     0.165 HD
HETATM   20  C   UNL     1      42.335 -10.417   8.806  1.00  0.00     0.106 A 
ENDBRANCH   8  11
ENDBRANCH   3   7
BRANCH   1  21
HETATM   21  C   UNL     1      42.278 -15.456   5.459  1.00  0.00     0.138 C 
BRANCH  21  22
HETATM   22  C   UNL     1      42.673 -15.122   4.006  1.00  0.00     0.003 C 
HETATM   23  C   UNL     1      43.603 -13.872   3.797  1.00  0.00     0.016 C 
HETATM   24  C   UNL     1      42.376 -13.042   3.392  1.00  0.00     0.002 C 
HETATM   25  C   UNL     1      41.604 -14.348   3.153  1.00  0.00     0.016 C 
BRANCH  22  26
HETATM   26  C   UNL     1      43.213 -16.506   3.346  1.00  0.00    -0.048 A 
HETATM   27  C   UNL     1      43.591 -16.583   1.989  1.00  0.00     0.008 A 
HETATM   28  C   UNL     1      44.029 -17.775   1.406  1.00  0.00     0.001 A 
HETATM   29  C   UNL     1      44.098 -18.937   2.166  1.00  0.00     0.000 A 
HETATM   30  C   UNL     1      43.729 -18.904   3.506  1.00  0.00     0.001 A 
HETATM   31  C   UNL     1      43.292 -17.707   4.082  1.00  0.00     0.008 A 
ENDBRANCH  22  26
ENDBRANCH  21  22
ENDBRANCH   1  21
TORSDOF 5
ENDMDL
MODEL 4
REMARK VINA RESULT:      -9.1      1.800      2.624
REMARK  5 active torsions:
REMARK  status: ('A' for Active; 'I' for Inactive)
REMARK    1  A    between atoms: C_4  and  C_5 
REMARK    2  A    between atoms: C_5  and  C_6 
REMARK    3  A    between atoms: C_6  and  N_7 
REMARK       I    between atoms: N_7  and  C_8 
REMARK       I    between atoms: C_8  and  N_9 
REMARK    4  A    between atoms: N_9  and  N_10 
REMARK       I    between atoms: N_10  and  C_11 
REMARK    5  A    between atoms: C_11  and  C_12 
ROOT
HETATM    1  N   UNL     1      42.383 -16.714   4.429  1.00  0.00    -0.341 N 
HETATM    2  C   UNL     1      41.946 -16.930   5.715  1.00  0.00     0.334 C 
HETATM    3  N   UNL     1      40.873 -16.158   6.074  1.00  0.00    -0.249 N 
HETATM    4  O   UNL     1      42.443 -17.739   6.489  1.00  0.00    -0.246 OA
HETATM    5  H   UNL     1      42.258 -15.745   4.169  1.00  0.00     0.164 HD
HETATM    6  H   UNL     1      40.541 -16.193   7.037  1.00  0.00     0.192 HD
ENDROOT
BRANCH   3   7
HETATM    7  N   UNL     1      40.191 -15.326   5.173  1.00  0.00    -0.262 N 
HETATM    8  C   UNL     1      40.659 -14.027   5.030  1.00  0.00     0.272 C 
HETATM    9  O   UNL     1      41.743 -13.675   5.493  1.00  0.00    -0.266 OA
HETATM   10  H   UNL     1      39.204 -15.521   5.055  1.00  0.00     0.190 HD
BRANCH   8  11
HETATM   11  C   UNL     1      39.760 -13.111   4.326  1.00  0.00     0.061 A 
HETATM   12  C   UNL     1      39.422 -13.156   2.927  1.00  0.00     0.008 A 
HETATM   13  C   UNL     1      38.547 -12.102   2.666  1.00  0.00     0.043 A 
HETATM   14  C   UNL     1      39.785 -13.998   1.854  1.00  0.00     0.015 A 
HETATM   15  C   UNL     1      38.019 -11.848   1.394  1.00  0.00     0.030 A 
HETATM   16  N   UNL     1      38.348 -11.438   3.851  1.00  0.00    -0.364 N 
HETATM   17  C   UNL     1      38.396 -12.699   0.352  1.00  0.00     0.002 A 
HETATM   18  C   UNL     1      39.266 -13.762   0.576  1.00  0.00     0.001 A 
HETATM   19  H   UNL     1      37.754 -10.626   3.957  1.00  0.00     0.165 HD
HETATM   20  C   UNL     1      39.065 -12.034   4.857  1.00  0.00     0.106 A 
ENDBRANCH   8  11
ENDBRANCH   3   7
BRANCH   1  21
HETATM   21  C   UNL     1      43.593 -17.379   3.985  1.00  0.00     0.138 C 
BRANCH  21  22
HETATM   22  C   UNL     1      43.398 -18.080   2.625  1.00  0.00     0.003 C 
HETATM   23  C   UNL     1      44.049 -17.386   1.373  1.00  0.00     0.016 C 
HETATM   24  C   UNL     1      42.676 -16.811   0.993  1.00  0.00     0.002 C 
HETATM   25  C   UNL     1      42.017 -17.849   1.913  1.00  0.00     0.016 C 
BRANCH  22  26
HETATM   26  C   UNL     1      43.810 -19.637   2.846  1.00  0.00    -0.048 A 
HETATM   27  C   UNL     1      44.410 -20.083   4.043  1.00  0.00     0.008 A 
HETATM   28  C   UNL     1      44.795 -21.413   4.230  1.00  0.00     0.001 A 
HETATM   29  C   UNL     1      44.592 -22.345   3.219  1.00  0.00     0.000 A 
HETATM   30  C   UNL     1      44.008 -21.944   2.023  1.00  0.00     0.001 A 
HETATM   31  C   UNL     1      43.626 -20.611   1.842  1.00  0.00     0.008 A 
ENDBRANCH  22  26
ENDBRANCH  21  22
ENDBRANCH   1  21
TORSDOF 5
ENDMDL
MODEL 5
REMARK VINA RESULT:      -8.9      1.915      2.484
REMARK  5 active torsions:
REMARK  status: ('A' for Active; 'I' for Inactive)
REMARK    1  A    between atoms: C_4  and  C_5 
REMARK    2  A    between atoms: C_5  and  C_6 
REMARK    3  A    between atoms: C_6  and  N_7 
REMARK       I    between atoms: N_7  and  C_8 
REMARK       I    between atoms: C_8  and  N_9 
REMARK    4  A    between atoms: N_9  and  N_10 
REMARK       I    between atoms: N_10  and  C_11 
REMARK    5  A    between atoms: C_11  and  C_12 
ROOT
HETATM    1  N   UNL     1      42.913 -15.345   2.958  1.00  0.00    -0.341 N 
HETATM    2  C   UNL     1      43.190 -14.027   3.237  1.00  0.00     0.334 C 
HETATM    3  N   UNL     1      42.521 -13.137   2.438  1.00  0.00    -0.249 N 
HETATM    4  O   UNL     1      43.953 -13.651   4.120  1.00  0.00    -0.246 OA
HETATM    5  H   UNL     1      42.747 -15.472   1.969  1.00  0.00     0.164 HD
HETATM    6  H   UNL     1      42.735 -12.144   2.521  1.00  0.00     0.192 HD
ENDROOT
BRANCH   3   7
HETATM    7  N   UNL     1      41.538 -13.525   1.515  1.00  0.00    -0.262 N 
HETATM    8  C   UNL     1      41.536 -12.884   0.284  1.00  0.00     0.272 C 
HETATM    9  O   UNL     1      42.471 -12.173  -0.078  1.00  0.00    -0.266 OA
HETATM   10  H   UNL     1      40.667 -13.853   1.914  1.00  0.00     0.190 HD
BRANCH   8  11
HETATM   11  C   UNL     1      40.335 -13.090  -0.527  1.00  0.00     0.061 A 
HETATM   12  C   UNL     1      40.163 -14.078  -1.562  1.00  0.00     0.008 A 
HETATM   13  C   UNL     1      38.880 -13.927  -2.087  1.00  0.00     0.043 A 
HETATM   14  C   UNL     1      40.988 -15.088  -2.104  1.00  0.00     0.015 A 
HETATM   15  C   UNL     1      38.382 -14.730  -3.121  1.00  0.00     0.030 A 
HETATM   16  N   UNL     1      38.283 -12.897  -1.405  1.00  0.00    -0.364 N 
HETATM   17  C   UNL     1      39.220 -15.721  -3.636  1.00  0.00     0.002 A 
HETATM   18  C   UNL     1      40.507 -15.901  -3.136  1.00  0.00     0.001 A 
HETATM   19  H   UNL     1      37.342 -12.568  -1.579  1.00  0.00     0.165 HD
HETATM   20  C   UNL     1      39.140 -12.388  -0.462  1.00  0.00     0.106 A 
ENDBRANCH   8  11
ENDBRANCH   3   7
BRANCH   1  21
HETATM   21  C   UNL     1      43.662 -16.374   3.652  1.00  0.00     0.138 C 
BRANCH  21  22
HETATM   22  C   UNL     1      42.756 -17.535   4.110  1.00  0.00     0.003 C 
HETATM   23  C   UNL     1      41.213 -17.370   3.854  1.00  0.00     0.016 C 
HETATM   24  C   UNL     1      41.025 -16.971   5.326  1.00  0.00     0.002 C 
HETATM   25  C   UNL     1      42.399 -17.580   5.640  1.00  0.00     0.016 C 
BRANCH  22  26
HETATM   26  C   UNL     1      43.416 -18.897   3.514  1.00  0.00    -0.048 A 
HETATM   27  C   UNL     1      43.057 -19.402   2.247  1.00  0.00     0.008 A 
HETATM   28  C   UNL     1      43.596 -20.587   1.739  1.00  0.00     0.001 A 
HETATM   29  C   UNL     1      44.515 -21.310   2.490  1.00  0.00     0.000 A 
HETATM   30  C   UNL     1      44.891 -20.848   3.747  1.00  0.00     0.001 A 
HETATM   31  C   UNL     1      44.346 -19.662   4.248  1.00  0.00     0.008 A 
ENDBRANCH  22  26
ENDBRANCH  21  22
ENDBRANCH   1  21
TORSDOF 5
ENDMDL
MODEL 6
REMARK VINA RESULT:      -8.8      1.889      2.186
REMARK  5 active torsions:
REMARK  status: ('A' for Active; 'I' for Inactive)
REMARK    1  A    between atoms: C_4  and  C_5 
REMARK    2  A    between atoms: C_5  and  C_6 
REMARK    3  A    between atoms: C_6  and  N_7 
REMARK       I    between atoms: N_7  and  C_8 
REMARK       I    between atoms: C_8  and  N_9 
REMARK    4  A    between atoms: N_9  and  N_10 
REMARK       I    between atoms: N_10  and  C_11 
REMARK    5  A    between atoms: C_11  and  C_12 
ROOT
HETATM    1  N   UNL     1      43.032 -15.751   3.471  1.00  0.00    -0.341 N 
HETATM    2  C   UNL     1      42.347 -15.022   4.414  1.00  0.00     0.334 C 
HETATM    3  N   UNL     1      42.150 -13.711   4.067  1.00  0.00    -0.249 N 
HETATM    4  O   UNL     1      41.930 -15.476   5.473  1.00  0.00    -0.246 OA
HETATM    5  H   UNL     1      43.713 -15.172   2.998  1.00  0.00     0.164 HD
HETATM    6  H   UNL     1      41.728 -13.080   4.747  1.00  0.00     0.192 HD
ENDROOT
BRANCH   3   7
HETATM    7  N   UNL     1      42.489 -13.192   2.809  1.00  0.00    -0.262 N 
HETATM    8  C   UNL     1      41.447 -12.906   1.938  1.00  0.00     0.272 C 
HETATM    9  O   UNL     1      40.276 -12.894   2.313  1.00  0.00    -0.266 OA
HETATM   10  H   UNL     1      43.387 -13.483   2.441  1.00  0.00     0.190 HD
BRANCH   8  11
HETATM   11  C   UNL     1      41.839 -12.658   0.550  1.00  0.00     0.061 A 
HETATM   12  C   UNL     1      41.544 -13.498  -0.583  1.00  0.00     0.008 A 
HETATM   13  C   UNL     1      42.106 -12.904  -1.712  1.00  0.00     0.043 A 
HETATM   14  C   UNL     1      40.849 -14.716  -0.750  1.00  0.00     0.015 A 
HETATM   15  C   UNL     1      42.011 -13.462  -2.994  1.00  0.00     0.030 A 
HETATM   16  N   UNL     1      42.718 -11.747  -1.298  1.00  0.00    -0.364 N 
HETATM   17  C   UNL     1      41.317 -14.667  -3.127  1.00  0.00     0.002 A 
HETATM   18  C   UNL     1      40.741 -15.288  -2.022  1.00  0.00     0.001 A 
HETATM   19  H   UNL     1      43.209 -11.111  -1.913  1.00  0.00     0.165 HD
HETATM   20  C   UNL     1      42.562 -11.582   0.055  1.00  0.00     0.106 A 
ENDBRANCH   8  11
ENDBRANCH   3   7
BRANCH   1  21
HETATM   21  C   UNL     1      43.412 -17.114   3.787  1.00  0.00     0.138 C 
BRANCH  21  22
HETATM   22  C   UNL     1      43.391 -18.022   2.541  1.00  0.00     0.003 C 
HETATM   23  C   UNL     1      44.088 -17.462   1.247  1.00  0.00     0.016 C 
HETATM   24  C   UNL     1      42.710 -17.079   0.686  1.00  0.00     0.002 C 
HETATM   25  C   UNL     1      42.061 -18.028   1.704  1.00  0.00     0.016 C 
BRANCH  22  26
HETATM   26  C   UNL     1      43.908 -19.485   3.027  1.00  0.00    -0.048 A 
HETATM   27  C   UNL     1      43.882 -20.604   2.169  1.00  0.00     0.008 A 
HETATM   28  C   UNL     1      44.296 -21.872   2.588  1.00  0.00     0.001 A 
HETATM   29  C   UNL     1      44.749 -22.061   3.888  1.00  0.00     0.000 A 
HETATM   30  C   UNL     1      44.785 -20.984   4.767  1.00  0.00     0.001 A 
HETATM   31  C   UNL     1      44.368 -19.719   4.340  1.00  0.00     0.008 A 
ENDBRANCH  22  26
ENDBRANCH  21  22
ENDBRANCH   1  21
TORSDOF 5
ENDMDL
MODEL 7
REMARK VINA RESULT:      -8.8      3.141      7.102
REMARK  5 active torsions:
REMARK  status: ('A' for Active; 'I' for Inactive)
REMARK    1  A    between atoms: C_4  and  C_5 
REMARK    2  A    between atoms: C_5  and  C_6 
REMARK    3  A    between atoms: C_6  and  N_7 
REMARK       I    between atoms: N_7  and  C_8 
REMARK       I    between atoms: C_8  and  N_9 
REMARK    4  A    between atoms: N_9  and  N_10 
REMARK       I    between atoms: N_10  and  C_11 
REMARK    5  A    between atoms: C_11  and  C_12 
ROOT
HETATM    1  N   UNL     1      43.489 -15.005   5.105  1.00  0.00    -0.341 N 
HETATM    2  C   UNL     1      43.948 -14.864   6.394  1.00  0.00     0.334 C 
HETATM    3  N   UNL     1      44.499 -16.004   6.916  1.00  0.00    -0.249 N 
HETATM    4  O   UNL     1      43.893 -13.823   7.039  1.00  0.00    -0.246 OA
HETATM    5  H   UNL     1      43.130 -15.938   4.956  1.00  0.00     0.164 HD
HETATM    6  H   UNL     1      44.784 -16.010   7.894  1.00  0.00     0.192 HD
ENDROOT
BRANCH   3   7
HETATM    7  N   UNL     1      44.705 -17.170   6.163  1.00  0.00    -0.262 N 
HETATM    8  C   UNL     1      43.649 -18.067   6.078  1.00  0.00     0.272 C 
HETATM    9  O   UNL     1      42.516 -17.769   6.451  1.00  0.00    -0.266 OA
HETATM   10  H   UNL     1      45.659 -17.511   6.135  1.00  0.00     0.190 HD
BRANCH   8  11
HETATM   11  C   UNL     1      43.991 -19.389   5.551  1.00  0.00     0.061 A 
HETATM   12  C   UNL     1      43.954 -19.790   4.168  1.00  0.00     0.008 A 
HETATM   13  C   UNL     1      44.343 -21.128   4.102  1.00  0.00     0.043 A 
HETATM   14  C   UNL     1      43.620 -19.135   2.962  1.00  0.00     0.015 A 
HETATM   15  C   UNL     1      44.415 -21.841   2.898  1.00  0.00     0.030 A 
HETATM   16  N   UNL     1      44.613 -21.534   5.385  1.00  0.00    -0.364 N 
HETATM   17  C   UNL     1      44.079 -21.166   1.722  1.00  0.00     0.002 A 
HETATM   18  C   UNL     1      43.688 -19.831   1.750  1.00  0.00     0.001 A 
HETATM   19  H   UNL     1      44.919 -22.465   5.634  1.00  0.00     0.165 HD
HETATM   20  C   UNL     1      44.412 -20.501   6.264  1.00  0.00     0.106 A 
ENDBRANCH   8  11
ENDBRANCH   3   7
BRANCH   1  21
HETATM   21  C   UNL     1      42.769 -13.902   4.499  1.00  0.00     0.138 C 
BRANCH  21  22
HETATM   22  C   UNL     1      41.303 -14.270   4.194  1.00  0.00     0.003 C 
HETATM   23  C   UNL     1      40.275 -13.082   4.129  1.00  0.00     0.016 C 
HETATM   24  C   UNL     1      39.806 -13.426   5.551  1.00  0.00     0.002 C 
HETATM   25  C   UNL     1      40.454 -14.810   5.401  1.00  0.00     0.016 C 
BRANCH  22  26
HETATM   26  C   UNL     1      41.333 -15.233   2.884  1.00  0.00    -0.048 A 
HETATM   27  C   UNL     1      40.632 -16.458   2.847  1.00  0.00     0.008 A 
HETATM   28  C   UNL     1      40.676 -17.305   1.737  1.00  0.00     0.001 A 
HETATM   29  C   UNL     1      41.430 -16.955   0.623  1.00  0.00     0.000 A 
HETATM   30  C   UNL     1      42.139 -15.759   0.623  1.00  0.00     0.001 A 
HETATM   31  C   UNL     1      42.091 -14.916   1.737  1.00  0.00     0.008 A 
ENDBRANCH  22  26
ENDBRANCH  21  22
ENDBRANCH   1  21
TORSDOF 5
ENDMDL
MODEL 8
REMARK VINA RESULT:      -8.8      1.802      7.003
REMARK  5 active torsions:
REMARK  status: ('A' for Active; 'I' for Inactive)
REMARK    1  A    between atoms: C_4  and  C_5 
REMARK    2  A    between atoms: C_5  and  C_6 
REMARK    3  A    between atoms: C_6  and  N_7 
REMARK       I    between atoms: N_7  and  C_8 
REMARK       I    between atoms: C_8  and  N_9 
REMARK    4  A    between atoms: N_9  and  N_10 
REMARK       I    between atoms: N_10  and  C_11 
REMARK    5  A    between atoms: C_11  and  C_12 
ROOT
HETATM    1  N   UNL     1      40.245 -15.391   3.909  1.00  0.00    -0.341 N 
HETATM    2  C   UNL     1      39.955 -14.937   5.174  1.00  0.00     0.334 C 
HETATM    3  N   UNL     1      40.294 -15.814   6.171  1.00  0.00    -0.249 N 
HETATM    4  O   UNL     1      39.450 -13.848   5.420  1.00  0.00    -0.246 OA
HETATM    5  H   UNL     1      40.131 -16.394   3.856  1.00  0.00     0.164 HD
HETATM    6  H   UNL     1      40.034 -15.593   7.130  1.00  0.00     0.192 HD
ENDROOT
BRANCH   3   7
HETATM    7  N   UNL     1      40.999 -17.004   5.937  1.00  0.00    -0.262 N 
HETATM    8  C   UNL     1      42.348 -17.017   6.262  1.00  0.00     0.272 C 
HETATM    9  O   UNL     1      42.863 -16.119   6.925  1.00  0.00    -0.266 OA
HETATM   10  H   UNL     1      40.661 -17.572   5.168  1.00  0.00     0.190 HD
BRANCH   8  11
HETATM   11  C   UNL     1      43.110 -18.151   5.734  1.00  0.00     0.061 A 
HETATM   12  C   UNL     1      43.171 -18.569   4.357  1.00  0.00     0.008 A 
HETATM   13  C   UNL     1      43.997 -19.690   4.288  1.00  0.00     0.043 A 
HETATM   14  C   UNL     1      42.593 -18.095   3.158  1.00  0.00     0.015 A 
HETATM   15  C   UNL     1      44.274 -20.360   3.089  1.00  0.00     0.030 A 
HETATM   16  N   UNL     1      44.432 -19.951   5.564  1.00  0.00    -0.364 N 
HETATM   17  C   UNL     1      43.688 -19.867   1.920  1.00  0.00     0.002 A 
HETATM   18  C   UNL     1      42.859 -18.750   1.951  1.00  0.00     0.001 A 
HETATM   19  H   UNL     1      45.049 -20.713   5.810  1.00  0.00     0.165 HD
HETATM   20  C   UNL     1      43.913 -19.033   6.441  1.00  0.00     0.106 A 
ENDBRANCH   8  11
ENDBRANCH   3   7
BRANCH   1  21
HETATM   21  C   UNL     1      39.811 -14.603   2.771  1.00  0.00     0.138 C 
BRANCH  21  22
HETATM   22  C   UNL     1      41.001 -14.118   1.919  1.00  0.00     0.003 C 
HETATM   23  C   UNL     1      42.426 -14.632   2.338  1.00  0.00     0.016 C 
HETATM   24  C   UNL     1      42.694 -13.288   3.032  1.00  0.00     0.002 C 
HETATM   25  C   UNL     1      41.538 -12.674   2.229  1.00  0.00     0.016 C 
BRANCH  22  26
HETATM   26  C   UNL     1      40.597 -14.386   0.367  1.00  0.00    -0.048 A 
HETATM   27  C   UNL     1      41.326 -15.280  -0.445  1.00  0.00     0.008 A 
HETATM   28  C   UNL     1      41.003 -15.495  -1.788  1.00  0.00     0.001 A 
HETATM   29  C   UNL     1      39.937 -14.815  -2.365  1.00  0.00     0.000 A 
HETATM   30  C   UNL     1      39.197 -13.921  -1.598  1.00  0.00     0.001 A 
HETATM   31  C   UNL     1      39.526 -13.712  -0.256  1.00  0.00     0.008 A 
ENDBRANCH  22  26
ENDBRANCH  21  22
ENDBRANCH   1  21
TORSDOF 5
ENDMDL
MODEL 9
REMARK VINA RESULT:      -8.7      2.809      7.169
REMARK  5 active torsions:
REMARK  status: ('A' for Active; 'I' for Inactive)
REMARK    1  A    between atoms: C_4  and  C_5 
REMARK    2  A    between atoms: C_5  and  C_6 
REMARK    3  A    between atoms: C_6  and  N_7 
REMARK       I    between atoms: N_7  and  C_8 
REMARK       I    between atoms: C_8  and  N_9 
REMARK    4  A    between atoms: N_9  and  N_10 
REMARK       I    between atoms: N_10  and  C_11 
REMARK    5  A    between atoms: C_11  and  C_12 
ROOT
HETATM    1  N   UNL     1      42.573 -14.319   2.458  1.00  0.00    -0.341 N 
HETATM    2  C   UNL     1      42.105 -14.550   1.186  1.00  0.00     0.334 C 
HETATM    3  N   UNL     1      42.555 -15.720   0.632  1.00  0.00    -0.249 N 
HETATM    4  O   UNL     1      41.345 -13.803   0.581  1.00  0.00    -0.246 OA
HETATM    5  H   UNL     1      43.511 -14.682   2.564  1.00  0.00     0.164 HD
HETATM    6  H   UNL     1      42.326 -15.924  -0.339  1.00  0.00     0.192 HD
ENDROOT
BRANCH   3   7
HETATM    7  N   UNL     1      43.310 -16.664   1.343  1.00  0.00    -0.262 N 
HETATM    8  C   UNL     1      42.624 -17.728   1.911  1.00  0.00     0.272 C 
HETATM    9  O   UNL     1      41.451 -17.966   1.629  1.00  0.00    -0.266 OA
HETATM   10  H   UNL     1      44.149 -16.310   1.789  1.00  0.00     0.190 HD
BRANCH   8  11
HETATM   11  C   UNL     1      43.383 -18.516   2.885  1.00  0.00     0.061 A 
HETATM   12  C   UNL     1      43.748 -19.903   2.760  1.00  0.00     0.008 A 
HETATM   13  C   UNL     1      44.454 -20.263   3.907  1.00  0.00     0.043 A 
HETATM   14  C   UNL     1      43.538 -20.891   1.772  1.00  0.00     0.015 A 
HETATM   15  C   UNL     1      44.959 -21.553   4.117  1.00  0.00     0.030 A 
HETATM   16  N   UNL     1      44.527 -19.147   4.704  1.00  0.00    -0.364 N 
HETATM   17  C   UNL     1      44.736 -22.508   3.122  1.00  0.00     0.002 A 
HETATM   18  C   UNL     1      44.036 -22.184   1.964  1.00  0.00     0.001 A 
HETATM   19  H   UNL     1      44.987 -19.120   5.604  1.00  0.00     0.165 HD
HETATM   20  C   UNL     1      43.894 -18.090   4.102  1.00  0.00     0.106 A 
ENDBRANCH   8  11
ENDBRANCH   3   7
BRANCH   1  21
HETATM   21  C   UNL     1      42.268 -13.051   3.092  1.00  0.00     0.138 C 
BRANCH  21  22
HETATM   22  C   UNL     1      41.448 -13.236   4.385  1.00  0.00     0.003 C 
HETATM   23  C   UNL     1      39.950 -13.682   4.213  1.00  0.00     0.016 C 
HETATM   24  C   UNL     1      39.505 -12.229   4.434  1.00  0.00     0.002 C 
HETATM   25  C   UNL     1      40.881 -11.928   5.045  1.00  0.00     0.016 C 
BRANCH  22  26
HETATM   26  C   UNL     1      42.342 -14.174   5.366  1.00  0.00    -0.048 A 
HETATM   27  C   UNL     1      41.851 -15.396   5.876  1.00  0.00     0.008 A 
HETATM   28  C   UNL     1      42.602 -16.194   6.743  1.00  0.00     0.001 A 
HETATM   29  C   UNL     1      43.873 -15.792   7.134  1.00  0.00     0.000 A 
HETATM   30  C   UNL     1      44.391 -14.592   6.658  1.00  0.00     0.001 A 
HETATM   31  C   UNL     1      43.634 -13.798   5.791  1.00  0.00     0.008 A 
ENDBRANCH  22  26
ENDBRANCH  21  22
ENDBRANCH   1  21
TORSDOF 5
ENDMDL
MODEL 10
REMARK VINA RESULT:      -8.6      4.992      7.859
REMARK  5 active torsions:
REMARK  status: ('A' for Active; 'I' for Inactive)
REMARK    1  A    between atoms: C_4  and  C_5 
REMARK    2  A    between atoms: C_5  and  C_6 
REMARK    3  A    between atoms: C_6  and  N_7 
REMARK       I    between atoms: N_7  and  C_8 
REMARK       I    between atoms: C_8  and  N_9 
REMARK    4  A    between atoms: N_9  and  N_10 
REMARK       I    between atoms: N_10  and  C_11 
REMARK    5  A    between atoms: C_11  and  C_12 
ROOT
HETATM    1  N   UNL     1      41.297 -14.421   6.245  1.00  0.00    -0.341 N 
HETATM    2  C   UNL     1      40.652 -13.634   5.319  1.00  0.00     0.334 C 
HETATM    3  N   UNL     1      40.240 -12.423   5.809  1.00  0.00    -0.249 N 
HETATM    4  O   UNL     1      40.457 -13.956   4.153  1.00  0.00    -0.246 OA
HETATM    5  H   UNL     1      40.909 -14.275   7.168  1.00  0.00     0.164 HD
HETATM    6  H   UNL     1      39.679 -11.817   5.213  1.00  0.00     0.192 HD
ENDROOT
BRANCH   3   7
HETATM    7  N   UNL     1      40.567 -11.965   7.094  1.00  0.00    -0.262 N 
HETATM    8  C   UNL     1      41.339 -10.815   7.181  1.00  0.00     0.272 C 
HETATM    9  O   UNL     1      41.549 -10.101   6.203  1.00  0.00    -0.266 OA
HETATM   10  H   UNL     1      40.644 -12.679   7.809  1.00  0.00     0.190 HD
BRANCH   8  11
HETATM   11  C   UNL     1      41.908 -10.541   8.502  1.00  0.00     0.061 A 
HETATM   12  C   UNL     1      43.166 -11.027   9.006  1.00  0.00     0.008 A 
HETATM   13  C   UNL     1      43.322 -10.540  10.304  1.00  0.00     0.043 A 
HETATM   14  C   UNL     1      44.189 -11.843   8.476  1.00  0.00     0.015 A 
HETATM   15  C   UNL     1      44.443 -10.826  11.095  1.00  0.00     0.030 A 
HETATM   16  N   UNL     1      42.213  -9.782  10.588  1.00  0.00    -0.364 N 
HETATM   17  C   UNL     1      45.438 -11.636  10.543  1.00  0.00     0.002 A 
HETATM   18  C   UNL     1      45.317 -12.139   9.251  1.00  0.00     0.001 A 
HETATM   19  H   UNL     1      42.059  -9.305  11.466  1.00  0.00     0.165 HD
HETATM   20  C   UNL     1      41.358  -9.768   9.515  1.00  0.00     0.106 A 
ENDBRANCH   8  11
ENDBRANCH   3   7
BRANCH   1  21
HETATM   21  C   UNL     1      41.660 -15.775   5.875  1.00  0.00     0.138 C 
BRANCH  21  22
HETATM   22  C   UNL     1      43.181 -15.927   5.671  1.00  0.00     0.003 C 
HETATM   23  C   UNL     1      43.996 -16.544   6.866  1.00  0.00     0.016 C 
HETATM   24  C   UNL     1      44.443 -15.132   7.273  1.00  0.00     0.002 C 
HETATM   25  C   UNL     1      44.046 -14.632   5.877  1.00  0.00     0.016 C 
BRANCH  22  26
HETATM   26  C   UNL     1      43.380 -16.671   4.239  1.00  0.00    -0.048 A 
HETATM   27  C   UNL     1      43.281 -15.970   3.018  1.00  0.00     0.008 A 
HETATM   28  C   UNL     1      43.422 -16.607   1.782  1.00  0.00     0.001 A 
HETATM   29  C   UNL     1      43.664 -17.974   1.728  1.00  0.00     0.000 A 
HETATM   30  C   UNL     1      43.763 -18.702   2.909  1.00  0.00     0.001 A 
HETATM   31  C   UNL     1      43.621 -18.058   4.142  1.00  0.00     0.008 A 
ENDBRANCH  22  26
ENDBRANCH  21  22
ENDBRANCH   1  21
TORSDOF 5
ENDMDL
