MODEL 1
REMARK VINA RESULT:      -7.6      0.000      0.000
REMARK  5 active torsions:
REMARK  status: ('A' for Active; 'I' for Inactive)
REMARK    1  A    between atoms: C_3  and  N_4 
REMARK       I    between atoms: N_4  and  C_5 
REMARK       I    between atoms: C_5  and  N_6 
REMARK    2  A    between atoms: N_6  and  C_7 
REMARK    3  A    between atoms: C_7  and  C_8 
REMARK    4  A    between atoms: C_8  and  O_9 
REMARK    5  A    between atoms: O_9  and  C_10 
ROOT
HETATM    1  N   UNL     1      40.024 -15.998   2.873  1.00  0.00    -0.307 N 
HETATM    2  C   UNL     1      40.683 -15.537   3.988  1.00  0.00     0.320 C 
HETATM    3  N   UNL     1      40.666 -16.485   4.992  1.00  0.00    -0.340 N 
HETATM    4  O   UNL     1      41.210 -14.444   4.118  1.00  0.00    -0.247 OA
HETATM    5  H   UNL     1      39.226 -16.577   3.096  1.00  0.00     0.170 HD
HETATM    6  H   UNL     1      40.596 -17.430   4.643  1.00  0.00     0.164 HD
ENDROOT
BRANCH   3   7
HETATM    7  C   UNL     1      41.528 -16.329   6.161  1.00  0.00     0.156 C 
BRANCH   7   8
HETATM    8  C   UNL     1      42.527 -17.480   6.408  1.00  0.00     0.142 C 
HETATM    9  C   UNL     1      43.237 -17.336   7.756  1.00  0.00     0.042 C 
BRANCH   8  10
HETATM   10  O   UNL     1      43.582 -17.388   5.431  1.00  0.00    -0.345 OA
BRANCH  10  11
HETATM   11  C   UNL     1      43.896 -18.485   4.684  1.00  0.00     0.069 A 
HETATM   12  C   UNL     1      44.681 -19.562   5.093  1.00  0.00     0.038 A 
HETATM   13  C   UNL     1      44.913 -20.628   4.217  1.00  0.00     0.026 A 
HETATM   14  C   UNL     1      44.353 -20.620   2.940  1.00  0.00     0.034 A 
HETATM   15 CL   UNL     1      44.644 -21.932   1.866  1.00  0.00    -0.084 Cl
HETATM   16  C   UNL     1      43.554 -19.557   2.531  1.00  0.00     0.026 A 
HETATM   17  C   UNL     1      43.325 -18.495   3.407  1.00  0.00     0.038 A 
ENDBRANCH  10  11
ENDBRANCH   8  10
ENDBRANCH   7   8
ENDBRANCH   3   7
BRANCH   1  18
HETATM   18  C   UNL     1      40.021 -15.398   1.589  1.00  0.00     0.059 A 
HETATM   19  C   UNL     1      40.947 -15.637   0.560  1.00  0.00    -0.032 A 
HETATM   20  C   UNL     1      42.079 -16.622   0.630  1.00  0.00     0.050 C 
HETATM   21  C   UNL     1      40.802 -14.925  -0.644  1.00  0.00     0.028 A 
HETATM   22  C   UNL     1      39.728 -14.066  -0.809  1.00  0.00     0.117 A 
HETATM   23  N   UNL     1      38.788 -13.866   0.130  1.00  0.00    -0.271 NA
HETATM   24  C   UNL     1      38.959 -14.535   1.295  1.00  0.00     0.146 A 
ENDBRANCH   1  18
TORSDOF 5
ENDMDL
MODEL 2
REMARK VINA RESULT:      -7.6      0.920      1.840
REMARK  5 active torsions:
REMARK  status: ('A' for Active; 'I' for Inactive)
REMARK    1  A    between atoms: C_3  and  N_4 
REMARK       I    between atoms: N_4  and  C_5 
REMARK       I    between atoms: C_5  and  N_6 
REMARK    2  A    between atoms: N_6  and  C_7 
REMARK    3  A    between atoms: C_7  and  C_8 
REMARK    4  A    between atoms: C_8  and  O_9 
REMARK    5  A    between atoms: O_9  and  C_10 
ROOT
HETATM    1  N   UNL     1      40.266 -16.278   3.125  1.00  0.00    -0.307 N 
HETATM    2  C   UNL     1      40.988 -15.852   4.216  1.00  0.00     0.320 C 
HETATM    3  N   UNL     1      40.772 -16.682   5.299  1.00  0.00    -0.340 N 
HETATM    4  O   UNL     1      41.717 -14.874   4.265  1.00  0.00    -0.247 OA
HETATM    5  H   UNL     1      39.368 -16.668   3.374  1.00  0.00     0.170 HD
HETATM    6  H   UNL     1      40.524 -17.623   5.032  1.00  0.00     0.164 HD
ENDROOT
BRANCH   3   7
HETATM    7  C   UNL     1      41.633 -16.588   6.475  1.00  0.00     0.156 C 
BRANCH   7   8
HETATM    8  C   UNL     1      42.685 -17.710   6.620  1.00  0.00     0.142 C 
HETATM    9  C   UNL     1      43.455 -17.600   7.937  1.00  0.00     0.042 C 
BRANCH   8  10
HETATM   10  O   UNL     1      43.685 -17.533   5.598  1.00  0.00    -0.345 OA
BRANCH  10  11
HETATM   11  C   UNL     1      43.844 -18.497   4.647  1.00  0.00     0.069 A 
HETATM   12  C   UNL     1      43.357 -18.454   3.342  1.00  0.00     0.038 A 
HETATM   13  C   UNL     1      43.606 -19.519   2.468  1.00  0.00     0.026 A 
HETATM   14  C   UNL     1      44.349 -20.617   2.898  1.00  0.00     0.034 A 
HETATM   15 CL   UNL     1      44.650 -21.924   1.820  1.00  0.00    -0.084 Cl
HETATM   16  C   UNL     1      44.854 -20.659   4.193  1.00  0.00     0.026 A 
HETATM   17  C   UNL     1      44.603 -19.596   5.062  1.00  0.00     0.038 A 
ENDBRANCH  10  11
ENDBRANCH   8  10
ENDBRANCH   7   8
ENDBRANCH   3   7
BRANCH   1  18
HETATM   18  C   UNL     1      40.398 -15.811   1.794  1.00  0.00     0.059 A 
HETATM   19  C   UNL     1      39.824 -14.644   1.265  1.00  0.00    -0.032 A 
HETATM   20  C   UNL     1      39.009 -13.652   2.046  1.00  0.00     0.050 C 
HETATM   21  C   UNL     1      40.041 -14.353  -0.095  1.00  0.00     0.028 A 
HETATM   22  C   UNL     1      40.856 -15.178  -0.851  1.00  0.00     0.117 A 
HETATM   23  N   UNL     1      41.473 -16.265  -0.358  1.00  0.00    -0.271 NA
HETATM   24  C   UNL     1      41.229 -16.548   0.943  1.00  0.00     0.146 A 
ENDBRANCH   1  18
TORSDOF 5
ENDMDL
MODEL 3
REMARK VINA RESULT:      -7.6      3.502      5.967
REMARK  5 active torsions:
REMARK  status: ('A' for Active; 'I' for Inactive)
REMARK    1  A    between atoms: C_3  and  N_4 
REMARK       I    between atoms: N_4  and  C_5 
REMARK       I    between atoms: C_5  and  N_6 
REMARK    2  A    between atoms: N_6  and  C_7 
REMARK    3  A    between atoms: C_7  and  C_8 
REMARK    4  A    between atoms: C_8  and  O_9 
REMARK    5  A    between atoms: O_9  and  C_10 
ROOT
HETATM    1  N   UNL     1      44.986 -19.382   4.964  1.00  0.00    -0.307 N 
HETATM    2  C   UNL     1      44.134 -18.629   5.737  1.00  0.00     0.320 C 
HETATM    3  N   UNL     1      44.842 -17.732   6.512  1.00  0.00    -0.340 N 
HETATM    4  O   UNL     1      42.918 -18.720   5.773  1.00  0.00    -0.247 OA
HETATM    5  H   UNL     1      45.858 -19.595   5.429  1.00  0.00     0.170 HD
HETATM    6  H   UNL     1      45.726 -17.467   6.103  1.00  0.00     0.164 HD
ENDROOT
BRANCH   3   7
HETATM    7  C   UNL     1      44.143 -16.652   7.203  1.00  0.00     0.156 C 
BRANCH   7   8
HETATM    8  C   UNL     1      44.065 -15.313   6.437  1.00  0.00     0.142 C 
HETATM    9  C   UNL     1      44.438 -14.126   7.327  1.00  0.00     0.042 C 
BRANCH   8  10
HETATM   10  O   UNL     1      42.692 -15.075   6.071  1.00  0.00    -0.345 OA
BRANCH  10  11
HETATM   11  C   UNL     1      42.293 -15.312   4.790  1.00  0.00     0.069 A 
HETATM   12  C   UNL     1      41.155 -16.016   4.398  1.00  0.00     0.038 A 
HETATM   13  C   UNL     1      40.866 -16.174   3.038  1.00  0.00     0.026 A 
HETATM   14  C   UNL     1      41.707 -15.619   2.074  1.00  0.00     0.034 A 
HETATM   15 CL   UNL     1      41.347 -15.819   0.404  1.00  0.00    -0.084 Cl
HETATM   16  C   UNL     1      42.834 -14.900   2.457  1.00  0.00     0.026 A 
HETATM   17  C   UNL     1      43.121 -14.745   3.815  1.00  0.00     0.038 A 
ENDBRANCH  10  11
ENDBRANCH   8  10
ENDBRANCH   7   8
ENDBRANCH   3   7
BRANCH   1  18
HETATM   18  C   UNL     1      44.619 -20.244   3.901  1.00  0.00     0.059 A 
HETATM   19  C   UNL     1      44.145 -19.850   2.640  1.00  0.00    -0.032 A 
HETATM   20  C   UNL     1      43.999 -18.427   2.179  1.00  0.00     0.050 C 
HETATM   21  C   UNL     1      43.801 -20.852   1.715  1.00  0.00     0.028 A 
HETATM   22  C   UNL     1      43.996 -22.184   2.041  1.00  0.00     0.117 A 
HETATM   23  N   UNL     1      44.510 -22.592   3.214  1.00  0.00    -0.271 NA
HETATM   24  C   UNL     1      44.806 -21.616   4.105  1.00  0.00     0.146 A 
ENDBRANCH   1  18
TORSDOF 5
ENDMDL
MODEL 4
REMARK VINA RESULT:      -7.0      2.996      6.314
REMARK  5 active torsions:
REMARK  status: ('A' for Active; 'I' for Inactive)
REMARK    1  A    between atoms: C_3  and  N_4 
REMARK       I    between atoms: N_4  and  C_5 
REMARK       I    between atoms: C_5  and  N_6 
REMARK    2  A    between atoms: N_6  and  C_7 
REMARK    3  A    between atoms: C_7  and  C_8 
REMARK    4  A    between atoms: C_8  and  O_9 
REMARK    5  A    between atoms: O_9  and  C_10 
ROOT
HETATM    1  N   UNL     1      44.343 -18.478   4.612  1.00  0.00    -0.307 N 
HETATM    2  C   UNL     1      43.285 -17.914   5.288  1.00  0.00     0.320 C 
HETATM    3  N   UNL     1      43.573 -16.613   5.648  1.00  0.00    -0.340 N 
HETATM    4  O   UNL     1      42.229 -18.461   5.565  1.00  0.00    -0.247 OA
HETATM    5  H   UNL     1      45.241 -18.166   4.955  1.00  0.00     0.170 HD
HETATM    6  H   UNL     1      44.238 -16.170   5.031  1.00  0.00     0.164 HD
ENDROOT
BRANCH   3   7
HETATM    7  C   UNL     1      42.510 -15.735   6.129  1.00  0.00     0.156 C 
BRANCH   7   8
HETATM    8  C   UNL     1      41.856 -14.834   5.059  1.00  0.00     0.142 C 
HETATM    9  C   UNL     1      41.022 -13.717   5.689  1.00  0.00     0.042 C 
BRANCH   8  10
HETATM   10  O   UNL     1      40.905 -15.622   4.317  1.00  0.00    -0.345 OA
BRANCH  10  11
HETATM   11  C   UNL     1      40.742 -15.388   2.984  1.00  0.00     0.069 A 
HETATM   12  C   UNL     1      39.607 -14.855   2.374  1.00  0.00     0.038 A 
HETATM   13  C   UNL     1      39.585 -14.661   0.988  1.00  0.00     0.026 A 
HETATM   14  C   UNL     1      40.699 -14.991   0.217  1.00  0.00     0.034 A 
HETATM   15 CL   UNL     1      40.665 -14.753  -1.486  1.00  0.00    -0.084 Cl
HETATM   16  C   UNL     1      41.842 -15.506   0.821  1.00  0.00     0.026 A 
HETATM   17  C   UNL     1      41.861 -15.698   2.203  1.00  0.00     0.038 A 
ENDBRANCH  10  11
ENDBRANCH   8  10
ENDBRANCH   7   8
ENDBRANCH   3   7
BRANCH   1  18
HETATM   18  C   UNL     1      44.334 -19.708   3.910  1.00  0.00     0.059 A 
HETATM   19  C   UNL     1      44.003 -19.888   2.557  1.00  0.00    -0.032 A 
HETATM   20  C   UNL     1      43.653 -18.784   1.600  1.00  0.00     0.050 C 
HETATM   21  C   UNL     1      44.022 -21.195   2.036  1.00  0.00     0.028 A 
HETATM   22  C   UNL     1      44.423 -22.249   2.840  1.00  0.00     0.117 A 
HETATM   23  N   UNL     1      44.809 -22.101   4.118  1.00  0.00    -0.271 NA
HETATM   24  C   UNL     1      44.755 -20.842   4.614  1.00  0.00     0.146 A 
ENDBRANCH   1  18
TORSDOF 5
ENDMDL
MODEL 5
REMARK VINA RESULT:      -7.0      2.694      6.409
REMARK  5 active torsions:
REMARK  status: ('A' for Active; 'I' for Inactive)
REMARK    1  A    between atoms: C_3  and  N_4 
REMARK       I    between atoms: N_4  and  C_5 
REMARK       I    between atoms: C_5  and  N_6 
REMARK    2  A    between atoms: N_6  and  C_7 
REMARK    3  A    between atoms: C_7  and  C_8 
REMARK    4  A    between atoms: C_8  and  O_9 
REMARK    5  A    between atoms: O_9  and  C_10 
ROOT
HETATM    1  N   UNL     1      43.497 -17.638   4.501  1.00  0.00    -0.307 N 
HETATM    2  C   UNL     1      42.216 -17.237   4.801  1.00  0.00     0.320 C 
HETATM    3  N   UNL     1      42.143 -15.861   4.892  1.00  0.00    -0.340 N 
HETATM    4  O   UNL     1      41.254 -17.965   4.985  1.00  0.00    -0.247 OA
HETATM    5  H   UNL     1      44.203 -17.056   4.931  1.00  0.00     0.170 HD
HETATM    6  H   UNL     1      42.838 -15.390   4.331  1.00  0.00     0.164 HD
ENDROOT
BRANCH   3   7
HETATM    7  C   UNL     1      40.842 -15.199   4.931  1.00  0.00     0.156 C 
BRANCH   7   8
HETATM    8  C   UNL     1      40.541 -14.253   3.748  1.00  0.00     0.142 C 
HETATM    9  C   UNL     1      39.706 -13.046   4.183  1.00  0.00     0.042 C 
BRANCH   8  10
HETATM   10  O   UNL     1      39.706 -14.951   2.805  1.00  0.00    -0.345 OA
BRANCH  10  11
HETATM   11  C   UNL     1      40.143 -15.122   1.525  1.00  0.00     0.069 A 
HETATM   12  C   UNL     1      41.036 -16.097   1.083  1.00  0.00     0.038 A 
HETATM   13  C   UNL     1      41.390 -16.158  -0.270  1.00  0.00     0.026 A 
HETATM   14  C   UNL     1      40.844 -15.251  -1.178  1.00  0.00     0.034 A 
HETATM   15 CL   UNL     1      41.285 -15.329  -2.838  1.00  0.00    -0.084 Cl
HETATM   16  C   UNL     1      39.939 -14.287  -0.747  1.00  0.00     0.026 A 
HETATM   17  C   UNL     1      39.588 -14.229   0.603  1.00  0.00     0.038 A 
ENDBRANCH  10  11
ENDBRANCH   8  10
ENDBRANCH   7   8
ENDBRANCH   3   7
BRANCH   1  18
HETATM   18  C   UNL     1      43.905 -18.941   4.123  1.00  0.00     0.059 A 
HETATM   19  C   UNL     1      43.942 -19.451   2.816  1.00  0.00    -0.032 A 
HETATM   20  C   UNL     1      43.605 -18.673   1.575  1.00  0.00     0.050 C 
HETATM   21  C   UNL     1      44.350 -20.785   2.634  1.00  0.00     0.028 A 
HETATM   22  C   UNL     1      44.761 -21.533   3.725  1.00  0.00     0.117 A 
HETATM   23  N   UNL     1      44.800 -21.053   4.980  1.00  0.00    -0.271 NA
HETATM   24  C   UNL     1      44.374 -19.778   5.142  1.00  0.00     0.146 A 
ENDBRANCH   1  18
TORSDOF 5
ENDMDL
MODEL 6
REMARK VINA RESULT:      -6.9      1.926      2.873
REMARK  5 active torsions:
REMARK  status: ('A' for Active; 'I' for Inactive)
REMARK    1  A    between atoms: C_3  and  N_4 
REMARK       I    between atoms: N_4  and  C_5 
REMARK       I    between atoms: C_5  and  N_6 
REMARK    2  A    between atoms: N_6  and  C_7 
REMARK    3  A    between atoms: C_7  and  C_8 
REMARK    4  A    between atoms: C_8  and  O_9 
REMARK    5  A    between atoms: O_9  and  C_10 
ROOT
HETATM    1  N   UNL     1      41.720 -14.921  -0.273  1.00  0.00    -0.307 N 
HETATM    2  C   UNL     1      41.288 -15.237   0.994  1.00  0.00     0.320 C 
HETATM    3  N   UNL     1      42.287 -15.017   1.920  1.00  0.00    -0.340 N 
HETATM    4  O   UNL     1      40.187 -15.670   1.296  1.00  0.00    -0.247 OA
HETATM    5  H   UNL     1      42.695 -15.140  -0.424  1.00  0.00     0.170 HD
HETATM    6  H   UNL     1      42.941 -14.302   1.635  1.00  0.00     0.164 HD
ENDROOT
BRANCH   3   7
HETATM    7  C   UNL     1      41.976 -15.022   3.347  1.00  0.00     0.156 C 
BRANCH   7   8
HETATM    8  C   UNL     1      42.083 -16.395   4.046  1.00  0.00     0.142 C 
HETATM    9  C   UNL     1      41.733 -16.304   5.533  1.00  0.00     0.042 C 
BRANCH   8  10
HETATM   10  O   UNL     1      43.462 -16.813   4.023  1.00  0.00    -0.345 OA
BRANCH  10  11
HETATM   11  C   UNL     1      43.764 -18.091   3.655  1.00  0.00     0.069 A 
HETATM   12  C   UNL     1      44.391 -19.049   4.449  1.00  0.00     0.038 A 
HETATM   13  C   UNL     1      44.632 -20.330   3.939  1.00  0.00     0.026 A 
HETATM   14  C   UNL     1      44.236 -20.652   2.641  1.00  0.00     0.034 A 
HETATM   15 CL   UNL     1      44.537 -22.227   2.018  1.00  0.00    -0.084 Cl
HETATM   16  C   UNL     1      43.594 -19.707   1.849  1.00  0.00     0.026 A 
HETATM   17  C   UNL     1      43.356 -18.430   2.361  1.00  0.00     0.038 A 
ENDBRANCH  10  11
ENDBRANCH   8  10
ENDBRANCH   7   8
ENDBRANCH   3   7
BRANCH   1  18
HETATM   18  C   UNL     1      40.916 -14.816  -1.435  1.00  0.00     0.059 A 
HETATM   19  C   UNL     1      40.108 -13.724  -1.788  1.00  0.00    -0.032 A 
HETATM   20  C   UNL     1      40.001 -12.442  -1.010  1.00  0.00     0.050 C 
HETATM   21  C   UNL     1      39.353 -13.809  -2.972  1.00  0.00     0.028 A 
HETATM   22  C   UNL     1      39.473 -14.925  -3.784  1.00  0.00     0.117 A 
HETATM   23  N   UNL     1      40.288 -15.958  -3.508  1.00  0.00    -0.271 NA
HETATM   24  C   UNL     1      40.983 -15.874  -2.349  1.00  0.00     0.146 A 
ENDBRANCH   1  18
TORSDOF 5
ENDMDL
MODEL 7
REMARK VINA RESULT:      -6.9      2.533      3.386
REMARK  5 active torsions:
REMARK  status: ('A' for Active; 'I' for Inactive)
REMARK    1  A    between atoms: C_3  and  N_4 
REMARK       I    between atoms: N_4  and  C_5 
REMARK       I    between atoms: C_5  and  N_6 
REMARK    2  A    between atoms: N_6  and  C_7 
REMARK    3  A    between atoms: C_7  and  C_8 
REMARK    4  A    between atoms: C_8  and  O_9 
REMARK    5  A    between atoms: O_9  and  C_10 
ROOT
HETATM    1  N   UNL     1      40.673 -13.821   6.001  1.00  0.00    -0.307 N 
HETATM    2  C   UNL     1      42.000 -14.150   5.847  1.00  0.00     0.320 C 
HETATM    3  N   UNL     1      42.315 -15.271   6.589  1.00  0.00    -0.340 N 
HETATM    4  O   UNL     1      42.821 -13.550   5.170  1.00  0.00    -0.247 OA
HETATM    5  H   UNL     1      40.327 -14.004   6.932  1.00  0.00     0.170 HD
HETATM    6  H   UNL     1      41.525 -15.881   6.738  1.00  0.00     0.164 HD
ENDROOT
BRANCH   3   7
HETATM    7  C   UNL     1      43.584 -15.959   6.371  1.00  0.00     0.156 C 
BRANCH   7   8
HETATM    8  C   UNL     1      43.516 -17.502   6.393  1.00  0.00     0.142 C 
HETATM    9  C   UNL     1      43.663 -18.057   7.811  1.00  0.00     0.042 C 
BRANCH   8  10
HETATM   10  O   UNL     1      44.656 -18.020   5.681  1.00  0.00    -0.345 OA
BRANCH  10  11
HETATM   11  C   UNL     1      44.458 -18.857   4.624  1.00  0.00     0.069 A 
HETATM   12  C   UNL     1      43.891 -18.516   3.398  1.00  0.00     0.038 A 
HETATM   13  C   UNL     1      43.757 -19.485   2.396  1.00  0.00     0.026 A 
HETATM   14  C   UNL     1      44.199 -20.788   2.619  1.00  0.00     0.034 A 
HETATM   15 CL   UNL     1      44.030 -21.974   1.386  1.00  0.00    -0.084 Cl
HETATM   16  C   UNL     1      44.783 -21.132   3.834  1.00  0.00     0.026 A 
HETATM   17  C   UNL     1      44.914 -20.164   4.831  1.00  0.00     0.038 A 
ENDBRANCH  10  11
ENDBRANCH   8  10
ENDBRANCH   7   8
ENDBRANCH   3   7
BRANCH   1  18
HETATM   18  C   UNL     1      39.947 -12.873   5.238  1.00  0.00     0.059 A 
HETATM   19  C   UNL     1      39.570 -13.006   3.892  1.00  0.00    -0.032 A 
HETATM   20  C   UNL     1      39.829 -14.215   3.038  1.00  0.00     0.050 C 
HETATM   21  C   UNL     1      38.872 -11.944   3.289  1.00  0.00     0.028 A 
HETATM   22  C   UNL     1      38.522 -10.836   4.043  1.00  0.00     0.117 A 
HETATM   23  N   UNL     1      38.809 -10.708   5.349  1.00  0.00    -0.271 NA
HETATM   24  C   UNL     1      39.508 -11.725   5.907  1.00  0.00     0.146 A 
ENDBRANCH   1  18
TORSDOF 5
ENDMDL
MODEL 8
REMARK VINA RESULT:      -6.4      1.636      2.560
REMARK  5 active torsions:
REMARK  status: ('A' for Active; 'I' for Inactive)
REMARK    1  A    between atoms: C_3  and  N_4 
REMARK       I    between atoms: N_4  and  C_5 
REMARK       I    between atoms: C_5  and  N_6 
REMARK    2  A    between atoms: N_6  and  C_7 
REMARK    3  A    between atoms: C_7  and  C_8 
REMARK    4  A    between atoms: C_8  and  O_9 
REMARK    5  A    between atoms: O_9  and  C_10 
ROOT
HETATM    1  N   UNL     1      41.123 -14.244   0.435  1.00  0.00    -0.307 N 
HETATM    2  C   UNL     1      40.553 -14.847   1.532  1.00  0.00     0.320 C 
HETATM    3  N   UNL     1      41.469 -14.959   2.559  1.00  0.00    -0.340 N 
HETATM    4  O   UNL     1      39.405 -15.254   1.619  1.00  0.00    -0.247 OA
HETATM    5  H   UNL     1      42.094 -14.493   0.307  1.00  0.00     0.170 HD
HETATM    6  H   UNL     1      42.186 -14.250   2.528  1.00  0.00     0.164 HD
ENDROOT
BRANCH   3   7
HETATM    7  C   UNL     1      41.021 -15.315   3.902  1.00  0.00     0.156 C 
BRANCH   7   8
HETATM    8  C   UNL     1      41.293 -16.774   4.329  1.00  0.00     0.142 C 
HETATM    9  C   UNL     1      41.011 -16.993   5.817  1.00  0.00     0.042 C 
BRANCH   8  10
HETATM   10  O   UNL     1      42.701 -17.039   4.183  1.00  0.00    -0.345 OA
BRANCH  10  11
HETATM   11  C   UNL     1      43.103 -18.185   3.565  1.00  0.00     0.069 A 
HETATM   12  C   UNL     1      42.735 -18.604   2.288  1.00  0.00     0.038 A 
HETATM   13  C   UNL     1      43.236 -19.807   1.776  1.00  0.00     0.026 A 
HETATM   14  C   UNL     1      44.111 -20.582   2.538  1.00  0.00     0.034 A 
HETATM   15 CL   UNL     1      44.721 -22.060   1.906  1.00  0.00    -0.084 Cl
HETATM   16  C   UNL     1      44.497 -20.161   3.806  1.00  0.00     0.026 A 
HETATM   17  C   UNL     1      43.995 -18.961   4.314  1.00  0.00     0.038 A 
ENDBRANCH  10  11
ENDBRANCH   8  10
ENDBRANCH   7   8
ENDBRANCH   3   7
BRANCH   1  18
HETATM   18  C   UNL     1      40.443 -13.772  -0.715  1.00  0.00     0.059 A 
HETATM   19  C   UNL     1      40.361 -14.425  -1.956  1.00  0.00    -0.032 A 
HETATM   20  C   UNL     1      40.942 -15.777  -2.260  1.00  0.00     0.050 C 
HETATM   21  C   UNL     1      39.663 -13.788  -2.998  1.00  0.00     0.028 A 
HETATM   22  C   UNL     1      39.027 -12.581  -2.761  1.00  0.00     0.117 A 
HETATM   23  N   UNL     1      39.030 -11.963  -1.568  1.00  0.00    -0.271 NA
HETATM   24  C   UNL     1      39.733 -12.573  -0.584  1.00  0.00     0.146 A 
ENDBRANCH   1  18
TORSDOF 5
ENDMDL
MODEL 9
REMARK VINA RESULT:      -6.4      3.137      4.651
REMARK  5 active torsions:
REMARK  status: ('A' for Active; 'I' for Inactive)
REMARK    1  A    between atoms: C_3  and  N_4 
REMARK       I    between atoms: N_4  and  C_5 
REMARK       I    between atoms: C_5  and  N_6 
REMARK    2  A    between atoms: N_6  and  C_7 
REMARK    3  A    between atoms: C_7  and  C_8 
REMARK    4  A    between atoms: C_8  and  O_9 
REMARK    5  A    between atoms: O_9  and  C_10 
ROOT
HETATM    1  N   UNL     1      42.031 -15.711  -0.021  1.00  0.00    -0.307 N 
HETATM    2  C   UNL     1      42.080 -16.929   0.614  1.00  0.00     0.320 C 
HETATM    3  N   UNL     1      43.378 -17.249   0.959  1.00  0.00    -0.340 N 
HETATM    4  O   UNL     1      41.132 -17.663   0.847  1.00  0.00    -0.247 OA
HETATM    5  H   UNL     1      42.835 -15.539  -0.609  1.00  0.00     0.170 HD
HETATM    6  H   UNL     1      43.961 -16.437   1.101  1.00  0.00     0.164 HD
ENDROOT
BRANCH   3   7
HETATM    7  C   UNL     1      43.640 -18.356   1.875  1.00  0.00     0.156 C 
BRANCH   7   8
HETATM    8  C   UNL     1      43.788 -17.966   3.362  1.00  0.00     0.142 C 
HETATM    9  C   UNL     1      44.344 -19.121   4.199  1.00  0.00     0.042 C 
BRANCH   8  10
HETATM   10  O   UNL     1      42.475 -17.725   3.904  1.00  0.00    -0.345 OA
BRANCH  10  11
HETATM   11  C   UNL     1      42.190 -16.505   4.441  1.00  0.00     0.069 A 
HETATM   12  C   UNL     1      41.076 -16.187   5.215  1.00  0.00     0.038 A 
HETATM   13  C   UNL     1      40.917 -14.886   5.710  1.00  0.00     0.026 A 
HETATM   14  C   UNL     1      41.877 -13.913   5.438  1.00  0.00     0.034 A 
HETATM   15 CL   UNL     1      41.676 -12.316   6.046  1.00  0.00    -0.084 Cl
HETATM   16  C   UNL     1      43.001 -14.228   4.682  1.00  0.00     0.026 A 
HETATM   17  C   UNL     1      43.156 -15.525   4.190  1.00  0.00     0.038 A 
ENDBRANCH  10  11
ENDBRANCH   8  10
ENDBRANCH   7   8
ENDBRANCH   3   7
BRANCH   1  18
HETATM   18  C   UNL     1      40.865 -14.966  -0.325  1.00  0.00     0.059 A 
HETATM   19  C   UNL     1      40.034 -14.312   0.599  1.00  0.00    -0.032 A 
HETATM   20  C   UNL     1      40.277 -14.245   2.081  1.00  0.00     0.050 C 
HETATM   21  C   UNL     1      38.897 -13.641   0.114  1.00  0.00     0.028 A 
HETATM   22  C   UNL     1      38.662 -13.587  -1.250  1.00  0.00     0.117 A 
HETATM   23  N   UNL     1      39.472 -14.145  -2.165  1.00  0.00    -0.271 NA
HETATM   24  C   UNL     1      40.545 -14.814  -1.679  1.00  0.00     0.146 A 
ENDBRANCH   1  18
TORSDOF 5
ENDMDL
MODEL 10
REMARK VINA RESULT:      -6.4      3.017      6.661
REMARK  5 active torsions:
REMARK  status: ('A' for Active; 'I' for Inactive)
REMARK    1  A    between atoms: C_3  and  N_4 
REMARK       I    between atoms: N_4  and  C_5 
REMARK       I    between atoms: C_5  and  N_6 
REMARK    2  A    between atoms: N_6  and  C_7 
REMARK    3  A    between atoms: C_7  and  C_8 
REMARK    4  A    between atoms: C_8  and  O_9 
REMARK    5  A    between atoms: O_9  and  C_10 
ROOT
HETATM    1  N   UNL     1      44.307 -19.063   2.689  1.00  0.00    -0.307 N 
HETATM    2  C   UNL     1      43.121 -18.479   2.308  1.00  0.00     0.320 C 
HETATM    3  N   UNL     1      43.354 -17.365   1.526  1.00  0.00    -0.340 N 
HETATM    4  O   UNL     1      41.999 -18.853   2.612  1.00  0.00    -0.247 OA
HETATM    5  H   UNL     1      45.041 -18.390   2.859  1.00  0.00     0.170 HD
HETATM    6  H   UNL     1      44.227 -17.411   1.021  1.00  0.00     0.164 HD
ENDROOT
BRANCH   3   7
HETATM    7  C   UNL     1      42.255 -16.747   0.788  1.00  0.00     0.156 C 
BRANCH   7   8
HETATM    8  C   UNL     1      41.224 -15.983   1.647  1.00  0.00     0.142 C 
HETATM    9  C   UNL     1      40.412 -14.991   0.811  1.00  0.00     0.042 C 
BRANCH   8  10
HETATM   10  O   UNL     1      41.934 -15.163   2.594  1.00  0.00    -0.345 OA
BRANCH  10  11
HETATM   11  C   UNL     1      42.094 -15.607   3.873  1.00  0.00     0.069 A 
HETATM   12  C   UNL     1      41.139 -16.277   4.637  1.00  0.00     0.038 A 
HETATM   13  C   UNL     1      41.448 -16.683   5.940  1.00  0.00     0.026 A 
HETATM   14  C   UNL     1      42.711 -16.428   6.472  1.00  0.00     0.034 A 
HETATM   15 CL   UNL     1      43.084 -16.927   8.076  1.00  0.00    -0.084 Cl
HETATM   16  C   UNL     1      43.674 -15.776   5.710  1.00  0.00     0.026 A 
HETATM   17  C   UNL     1      43.363 -15.372   4.410  1.00  0.00     0.038 A 
ENDBRANCH  10  11
ENDBRANCH   8  10
ENDBRANCH   7   8
ENDBRANCH   3   7
BRANCH   1  18
HETATM   18  C   UNL     1      44.462 -20.328   3.308  1.00  0.00     0.059 A 
HETATM   19  C   UNL     1      44.385 -21.577   2.671  1.00  0.00    -0.032 A 
HETATM   20  C   UNL     1      44.177 -21.783   1.197  1.00  0.00     0.050 C 
HETATM   21  C   UNL     1      44.537 -22.734   3.456  1.00  0.00     0.028 A 
HETATM   22  C   UNL     1      44.820 -22.616   4.807  1.00  0.00     0.117 A 
HETATM   23  N   UNL     1      44.966 -21.435   5.433  1.00  0.00    -0.271 NA
HETATM   24  C   UNL     1      44.785 -20.331   4.670  1.00  0.00     0.146 A 
ENDBRANCH   1  18
TORSDOF 5
ENDMDL
