MODEL 1
REMARK VINA RESULT:      -8.6      0.000      0.000
REMARK  6 active torsions:
REMARK  status: ('A' for Active; 'I' for Inactive)
REMARK    1  A    between atoms: C_2  and  C_3 
REMARK    2  A    between atoms: C_7  and  N_8 
REMARK    3  A    between atoms: N_8  and  C_9 
REMARK    4  A    between atoms: C_12  and  N_13 
REMARK       I    between atoms: N_13  and  C_14 
REMARK       I    between atoms: C_14  and  N_15 
REMARK    5  A    between atoms: N_15  and  C_16 
REMARK    6  A    between atoms: N_24  and  C_25 
ROOT
HETATM    1  C   UNL     1      43.640 -14.812   5.908  1.00  0.00     0.130 A 
HETATM    2  N   UNL     1      43.623 -15.961   5.210  1.00  0.00    -0.213 NA
HETATM    3  C   UNL     1      43.060 -15.830   3.993  1.00  0.00     0.169 A 
HETATM    4  C   UNL     1      42.546 -14.652   3.472  1.00  0.00     0.078 A 
HETATM    5  C   UNL     1      42.660 -13.487   4.249  1.00  0.00     0.121 A 
HETATM    6  N   UNL     1      43.208 -13.609   5.479  1.00  0.00    -0.221 NA
HETATM    7  N   UNL     1      42.889 -16.804   3.011  1.00  0.00    -0.214 N 
HETATM    8  N   UNL     1      42.223 -16.301   1.927  1.00  0.00    -0.170 NA
HETATM    9  C   UNL     1      42.019 -15.013   2.210  1.00  0.00     0.069 A 
HETATM   10  C   UNL     1      41.304 -14.158   1.230  1.00  0.00     0.073 C 
ENDROOT
BRANCH   5  11
HETATM   11  N   UNL     1      42.235 -12.240   3.783  1.00  0.00    -0.272 NA
HETATM   12  H   UNL     1      43.029 -11.684   3.492  1.00  0.00     0.129 HD
BRANCH  11  13
HETATM   13  C   UNL     1      41.281 -11.498   4.621  1.00  0.00     0.062 C 
HETATM   14  C   UNL     1      40.933 -10.180   3.914  1.00  0.00     0.022 C 
HETATM   15  C   UNL     1      40.152 -10.384   2.615  1.00  0.00     0.027 C 
HETATM   16  C   UNL     1      38.973 -11.363   2.702  1.00  0.00     0.086 C 
HETATM   17  C   UNL     1      39.219 -12.589   3.588  1.00  0.00     0.027 C 
HETATM   18  C   UNL     1      40.014 -12.322   4.865  1.00  0.00     0.022 C 
BRANCH  16  19
HETATM   19  N   UNL     1      37.688 -10.709   2.942  1.00  0.00    -0.339 N 
HETATM   20  C   UNL     1      36.780 -10.323   1.992  1.00  0.00     0.317 C 
HETATM   21  N   UNL     1      35.652  -9.820   2.598  1.00  0.00    -0.335 N 
HETATM   22  O   UNL     1      36.933 -10.434   0.788  1.00  0.00    -0.247 OA
HETATM   23  H   UNL     1      35.499 -10.217   3.514  1.00  0.00     0.165 HD
HETATM   24  H   UNL     1      37.627 -10.172   3.795  1.00  0.00     0.164 HD
BRANCH  21  25
HETATM   25  C   UNL     1      34.434  -9.424   1.872  1.00  0.00     0.023 C 
HETATM   26  C   UNL     1      33.877 -10.604   1.059  1.00  0.00     0.037 C 
HETATM   27  C   UNL     1      33.382  -9.008   2.917  1.00  0.00     0.037 C 
HETATM   28  C   UNL     1      34.694  -8.221   0.950  1.00  0.00     0.037 C 
ENDBRANCH  21  25
ENDBRANCH  16  19
ENDBRANCH  11  13
ENDBRANCH   5  11
BRANCH   1  29
HETATM   29  C   UNL     1      44.238 -14.865   7.289  1.00  0.00     0.076 C 
HETATM   30  C   UNL     1      44.889 -13.542   7.658  1.00  0.00     0.013 C 
ENDBRANCH   1  29
BRANCH   7  31
HETATM   31  C   UNL     1      43.320 -18.168   2.992  1.00  0.00     0.060 A 
HETATM   32  C   UNL     1      44.113 -18.713   4.007  1.00  0.00     0.032 A 
HETATM   33  C   UNL     1      44.538 -20.046   3.936  1.00  0.00     0.009 A 
HETATM   34  C   UNL     1      44.170 -20.857   2.857  1.00  0.00    -0.062 A 
HETATM   35  C   UNL     1      44.656 -22.273   2.757  1.00  0.00     0.048 C 
HETATM   36  C   UNL     1      43.382 -20.314   1.839  1.00  0.00     0.009 A 
HETATM   37  C   UNL     1      42.957 -18.984   1.907  1.00  0.00     0.032 A 
ENDBRANCH   7  31
TORSDOF 6
ENDMDL
MODEL 2
REMARK VINA RESULT:      -8.2      3.929      7.798
REMARK  6 active torsions:
REMARK  status: ('A' for Active; 'I' for Inactive)
REMARK    1  A    between atoms: C_2  and  C_3 
REMARK    2  A    between atoms: C_7  and  N_8 
REMARK    3  A    between atoms: N_8  and  C_9 
REMARK    4  A    between atoms: C_12  and  N_13 
REMARK       I    between atoms: N_13  and  C_14 
REMARK       I    between atoms: C_14  and  N_15 
REMARK    5  A    between atoms: N_15  and  C_16 
REMARK    6  A    between atoms: N_24  and  C_25 
ROOT
HETATM    1  C   UNL     1      42.723 -17.561   1.928  1.00  0.00     0.130 A 
HETATM    2  N   UNL     1      41.979 -16.949   0.990  1.00  0.00    -0.213 NA
HETATM    3  C   UNL     1      41.789 -15.638   1.241  1.00  0.00     0.169 A 
HETATM    4  C   UNL     1      42.295 -14.951   2.334  1.00  0.00     0.078 A 
HETATM    5  C   UNL     1      43.112 -15.659   3.232  1.00  0.00     0.121 A 
HETATM    6  N   UNL     1      43.296 -16.979   3.000  1.00  0.00    -0.221 NA
HETATM    7  N   UNL     1      41.085 -14.707   0.480  1.00  0.00    -0.214 N 
HETATM    8  N   UNL     1      41.068 -13.482   1.090  1.00  0.00    -0.170 NA
HETATM    9  C   UNL     1      41.793 -13.636   2.200  1.00  0.00     0.069 A 
HETATM   10  C   UNL     1      41.976 -12.480   3.114  1.00  0.00     0.073 C 
ENDROOT
BRANCH   5  11
HETATM   11  N   UNL     1      43.723 -15.039   4.325  1.00  0.00    -0.272 NA
HETATM   12  H   UNL     1      44.730 -15.066   4.225  1.00  0.00     0.129 HD
BRANCH  11  13
HETATM   13  C   UNL     1      43.261 -15.428   5.665  1.00  0.00     0.062 C 
HETATM   14  C   UNL     1      44.475 -15.477   6.605  1.00  0.00     0.022 C 
HETATM   15  C   UNL     1      45.100 -14.104   6.850  1.00  0.00     0.027 C 
HETATM   16  C   UNL     1      44.111 -12.979   7.186  1.00  0.00     0.086 C 
HETATM   17  C   UNL     1      42.788 -13.034   6.413  1.00  0.00     0.027 C 
HETATM   18  C   UNL     1      42.220 -14.435   6.192  1.00  0.00     0.022 C 
BRANCH  16  19
HETATM   19  N   UNL     1      43.948 -12.755   8.621  1.00  0.00    -0.339 N 
HETATM   20  C   UNL     1      43.443 -11.631   9.217  1.00  0.00     0.317 C 
HETATM   21  N   UNL     1      43.362 -11.818  10.578  1.00  0.00    -0.335 N 
HETATM   22  O   UNL     1      43.089 -10.622   8.631  1.00  0.00    -0.247 OA
HETATM   23  H   UNL     1      43.241 -12.789  10.826  1.00  0.00     0.165 HD
HETATM   24  H   UNL     1      44.576 -13.276   9.215  1.00  0.00     0.164 HD
BRANCH  21  25
HETATM   25  C   UNL     1      42.754 -10.851  11.507  1.00  0.00     0.023 C 
HETATM   26  C   UNL     1      41.288 -10.582  11.132  1.00  0.00     0.037 C 
HETATM   27  C   UNL     1      42.794 -11.471  12.917  1.00  0.00     0.037 C 
HETATM   28  C   UNL     1      43.542  -9.532  11.544  1.00  0.00     0.037 C 
ENDBRANCH  21  25
ENDBRANCH  16  19
ENDBRANCH  11  13
ENDBRANCH   5  11
BRANCH   1  29
HETATM   29  C   UNL     1      42.976 -19.032   1.740  1.00  0.00     0.076 C 
HETATM   30  C   UNL     1      43.915 -19.571   2.807  1.00  0.00     0.013 C 
ENDBRANCH   1  29
BRANCH   7  31
HETATM   31  C   UNL     1      40.444 -14.862  -0.789  1.00  0.00     0.060 A 
HETATM   32  C   UNL     1      39.238 -14.224  -1.099  1.00  0.00     0.032 A 
HETATM   33  C   UNL     1      38.629 -14.426  -2.344  1.00  0.00     0.009 A 
HETATM   34  C   UNL     1      39.217 -15.258  -3.301  1.00  0.00    -0.062 A 
HETATM   35  C   UNL     1      38.547 -15.509  -4.620  1.00  0.00     0.048 C 
HETATM   36  C   UNL     1      40.419 -15.901  -2.993  1.00  0.00     0.009 A 
HETATM   37  C   UNL     1      41.030 -15.702  -1.752  1.00  0.00     0.032 A 
ENDBRANCH   7  31
TORSDOF 6
ENDMDL
MODEL 3
REMARK VINA RESULT:      -8.2      3.743      5.751
REMARK  6 active torsions:
REMARK  status: ('A' for Active; 'I' for Inactive)
REMARK    1  A    between atoms: C_2  and  C_3 
REMARK    2  A    between atoms: C_7  and  N_8 
REMARK    3  A    between atoms: N_8  and  C_9 
REMARK    4  A    between atoms: C_12  and  N_13 
REMARK       I    between atoms: N_13  and  C_14 
REMARK       I    between atoms: C_14  and  N_15 
REMARK    5  A    between atoms: N_15  and  C_16 
REMARK    6  A    between atoms: N_24  and  C_25 
ROOT
HETATM    1  C   UNL     1      41.208 -14.418   1.051  1.00  0.00     0.130 A 
HETATM    2  N   UNL     1      41.824 -15.542   1.454  1.00  0.00    -0.213 NA
HETATM    3  C   UNL     1      42.476 -15.396   2.625  1.00  0.00     0.169 A 
HETATM    4  C   UNL     1      42.525 -14.229   3.372  1.00  0.00     0.078 A 
HETATM    5  C   UNL     1      41.801 -13.119   2.903  1.00  0.00     0.121 A 
HETATM    6  N   UNL     1      41.158 -13.249   1.721  1.00  0.00    -0.221 NA
HETATM    7  N   UNL     1      43.203 -16.350   3.334  1.00  0.00    -0.214 N 
HETATM    8  N   UNL     1      43.767 -15.809   4.456  1.00  0.00    -0.170 NA
HETATM    9  C   UNL     1      43.358 -14.538   4.473  1.00  0.00     0.069 A 
HETATM   10  C   UNL     1      43.800 -13.647   5.575  1.00  0.00     0.073 C 
ENDROOT
BRANCH   5  11
HETATM   11  N   UNL     1      41.733 -11.921   3.620  1.00  0.00    -0.272 NA
HETATM   12  H   UNL     1      42.411 -11.924   4.372  1.00  0.00     0.129 HD
BRANCH  11  13
HETATM   13  C   UNL     1      40.401 -11.462   4.039  1.00  0.00     0.062 C 
HETATM   14  C   UNL     1      39.854 -12.442   5.086  1.00  0.00     0.022 C 
HETATM   15  C   UNL     1      40.642 -12.425   6.396  1.00  0.00     0.027 C 
HETATM   16  C   UNL     1      40.949 -11.032   6.963  1.00  0.00     0.086 C 
HETATM   17  C   UNL     1      41.287  -9.970   5.911  1.00  0.00     0.027 C 
HETATM   18  C   UNL     1      40.471 -10.047   4.621  1.00  0.00     0.022 C 
BRANCH  16  19
HETATM   19  N   UNL     1      39.983 -10.586   7.965  1.00  0.00    -0.339 N 
HETATM   20  C   UNL     1      40.254 -10.256   9.266  1.00  0.00     0.317 C 
HETATM   21  N   UNL     1      39.111  -9.798   9.881  1.00  0.00    -0.335 N 
HETATM   22  O   UNL     1      41.348 -10.329   9.797  1.00  0.00    -0.247 OA
HETATM   23  H   UNL     1      38.467  -9.375   9.229  1.00  0.00     0.165 HD
HETATM   24  H   UNL     1      39.033 -10.893   7.819  1.00  0.00     0.164 HD
BRANCH  21  25
HETATM   25  C   UNL     1      39.074  -9.250  11.247  1.00  0.00     0.023 C 
HETATM   26  C   UNL     1      39.869  -7.937  11.329  1.00  0.00     0.037 C 
HETATM   27  C   UNL     1      37.602  -8.955  11.592  1.00  0.00     0.037 C 
HETATM   28  C   UNL     1      39.611 -10.260  12.274  1.00  0.00     0.037 C 
ENDBRANCH  21  25
ENDBRANCH  16  19
ENDBRANCH  11  13
ENDBRANCH   5  11
BRANCH   1  29
HETATM   29  C   UNL     1      40.466 -14.481  -0.257  1.00  0.00     0.076 C 
HETATM   30  C   UNL     1      41.132 -15.447  -1.223  1.00  0.00     0.013 C 
ENDBRANCH   1  29
BRANCH   7  31
HETATM   31  C   UNL     1      43.396 -17.741   3.059  1.00  0.00     0.060 A 
HETATM   32  C   UNL     1      44.161 -18.566   3.889  1.00  0.00     0.032 A 
HETATM   33  C   UNL     1      44.349 -19.916   3.568  1.00  0.00     0.009 A 
HETATM   34  C   UNL     1      43.769 -20.466   2.420  1.00  0.00    -0.062 A 
HETATM   35  C   UNL     1      44.001 -21.901   2.051  1.00  0.00     0.048 C 
HETATM   36  C   UNL     1      43.008 -19.643   1.585  1.00  0.00     0.009 A 
HETATM   37  C   UNL     1      42.819 -18.294   1.903  1.00  0.00     0.032 A 
ENDBRANCH   7  31
TORSDOF 6
ENDMDL
MODEL 4
REMARK VINA RESULT:      -8.1      2.764      3.162
REMARK  6 active torsions:
REMARK  status: ('A' for Active; 'I' for Inactive)
REMARK    1  A    between atoms: C_2  and  C_3 
REMARK    2  A    between atoms: C_7  and  N_8 
REMARK    3  A    between atoms: N_8  and  C_9 
REMARK    4  A    between atoms: C_12  and  N_13 
REMARK       I    between atoms: N_13  and  C_14 
REMARK       I    between atoms: C_14  and  N_15 
REMARK    5  A    between atoms: N_15  and  C_16 
REMARK    6  A    between atoms: N_24  and  C_25 
ROOT
HETATM    1  C   UNL     1      43.261 -14.639   4.653  1.00  0.00     0.130 A 
HETATM    2  N   UNL     1      43.434 -15.964   4.507  1.00  0.00    -0.213 NA
HETATM    3  C   UNL     1      43.072 -16.413   3.288  1.00  0.00     0.169 A 
HETATM    4  C   UNL     1      42.574 -15.625   2.262  1.00  0.00     0.078 A 
HETATM    5  C   UNL     1      42.482 -14.240   2.484  1.00  0.00     0.121 A 
HETATM    6  N   UNL     1      42.827 -13.780   3.708  1.00  0.00    -0.221 NA
HETATM    7  N   UNL     1      43.130 -17.715   2.795  1.00  0.00    -0.214 N 
HETATM    8  N   UNL     1      42.619 -17.786   1.528  1.00  0.00    -0.170 NA
HETATM    9  C   UNL     1      42.288 -16.531   1.215  1.00  0.00     0.069 A 
HETATM   10  C   UNL     1      41.689 -16.248  -0.114  1.00  0.00     0.073 C 
ENDROOT
BRANCH   5  11
HETATM   11  N   UNL     1      42.058 -13.356   1.488  1.00  0.00    -0.272 NA
HETATM   12  H   UNL     1      42.850 -12.863   1.096  1.00  0.00     0.129 HD
BRANCH  11  13
HETATM   13  C   UNL     1      40.925 -12.475   1.808  1.00  0.00     0.062 C 
HETATM   14  C   UNL     1      40.844 -11.376   0.739  1.00  0.00     0.022 C 
HETATM   15  C   UNL     1      40.475 -11.910  -0.645  1.00  0.00     0.027 C 
HETATM   16  C   UNL     1      39.291 -12.887  -0.681  1.00  0.00     0.086 C 
HETATM   17  C   UNL     1      39.224 -13.859   0.502  1.00  0.00     0.027 C 
HETATM   18  C   UNL     1      39.615 -13.268   1.856  1.00  0.00     0.022 C 
BRANCH  16  19
HETATM   19  N   UNL     1      38.015 -12.245  -0.991  1.00  0.00    -0.339 N 
HETATM   20  C   UNL     1      37.555 -11.907  -2.236  1.00  0.00     0.317 C 
HETATM   21  N   UNL     1      36.279 -11.401  -2.143  1.00  0.00    -0.335 N 
HETATM   22  O   UNL     1      38.171 -12.056  -3.277  1.00  0.00    -0.247 OA
HETATM   23  H   UNL     1      35.777 -11.769  -1.347  1.00  0.00     0.165 HD
HETATM   24  H   UNL     1      37.622 -11.681  -0.252  1.00  0.00     0.164 HD
BRANCH  21  25
HETATM   25  C   UNL     1      35.446 -11.050  -3.304  1.00  0.00     0.023 C 
HETATM   26  C   UNL     1      35.312 -12.246  -4.261  1.00  0.00     0.037 C 
HETATM   27  C   UNL     1      34.045 -10.681  -2.780  1.00  0.00     0.037 C 
HETATM   28  C   UNL     1      36.010  -9.832  -4.054  1.00  0.00     0.037 C 
ENDBRANCH  21  25
ENDBRANCH  16  19
ENDBRANCH  11  13
ENDBRANCH   5  11
BRANCH   1  29
HETATM   29  C   UNL     1      43.625 -14.049   5.988  1.00  0.00     0.076 C 
HETATM   30  C   UNL     1      44.212 -15.102   6.915  1.00  0.00     0.013 C 
ENDBRANCH   1  29
BRANCH   7  31
HETATM   31  C   UNL     1      43.647 -18.901   3.405  1.00  0.00     0.060 A 
HETATM   32  C   UNL     1      43.814 -19.015   4.789  1.00  0.00     0.032 A 
HETATM   33  C   UNL     1      44.351 -20.184   5.343  1.00  0.00     0.009 A 
HETATM   34  C   UNL     1      44.721 -21.259   4.528  1.00  0.00    -0.062 A 
HETATM   35  C   UNL     1      45.333 -22.496   5.114  1.00  0.00     0.048 C 
HETATM   36  C   UNL     1      44.560 -21.145   3.144  1.00  0.00     0.009 A 
HETATM   37  C   UNL     1      44.024 -19.980   2.588  1.00  0.00     0.032 A 
ENDBRANCH   7  31
TORSDOF 6
ENDMDL
MODEL 5
REMARK VINA RESULT:      -8.0      3.372      4.009
REMARK  6 active torsions:
REMARK  status: ('A' for Active; 'I' for Inactive)
REMARK    1  A    between atoms: C_2  and  C_3 
REMARK    2  A    between atoms: C_7  and  N_8 
REMARK    3  A    between atoms: N_8  and  C_9 
REMARK    4  A    between atoms: C_12  and  N_13 
REMARK       I    between atoms: N_13  and  C_14 
REMARK       I    between atoms: C_14  and  N_15 
REMARK    5  A    between atoms: N_15  and  C_16 
REMARK    6  A    between atoms: N_24  and  C_25 
ROOT
HETATM    1  C   UNL     1      40.734 -15.532   4.499  1.00  0.00     0.130 A 
HETATM    2  N   UNL     1      41.432 -16.612   4.107  1.00  0.00    -0.213 NA
HETATM    3  C   UNL     1      41.630 -16.657   2.775  1.00  0.00     0.169 A 
HETATM    4  C   UNL     1      41.185 -15.707   1.868  1.00  0.00     0.078 A 
HETATM    5  C   UNL     1      40.515 -14.580   2.375  1.00  0.00     0.121 A 
HETATM    6  N   UNL     1      40.296 -14.532   3.708  1.00  0.00    -0.221 NA
HETATM    7  N   UNL     1      42.316 -17.619   2.035  1.00  0.00    -0.214 N 
HETATM    8  N   UNL     1      42.254 -17.348   0.696  1.00  0.00    -0.170 NA
HETATM    9  C   UNL     1      41.575 -16.203   0.602  1.00  0.00     0.069 A 
HETATM   10  C   UNL     1      41.319 -15.617  -0.738  1.00  0.00     0.073 C 
ENDROOT
BRANCH   5  11
HETATM   11  N   UNL     1      40.089 -13.536   1.549  1.00  0.00    -0.272 NA
HETATM   12  H   UNL     1      40.740 -12.763   1.597  1.00  0.00     0.129 HD
BRANCH  11  13
HETATM   13  C   UNL     1      38.683 -13.121   1.658  1.00  0.00     0.062 C 
HETATM   14  C   UNL     1      38.583 -11.635   1.286  1.00  0.00     0.022 C 
HETATM   15  C   UNL     1      38.900 -11.362  -0.184  1.00  0.00     0.027 C 
HETATM   16  C   UNL     1      38.213 -12.293  -1.192  1.00  0.00     0.086 C 
HETATM   17  C   UNL     1      38.102 -13.755  -0.744  1.00  0.00     0.027 C 
HETATM   18  C   UNL     1      37.793 -13.962   0.738  1.00  0.00     0.022 C 
BRANCH  16  19
HETATM   19  N   UNL     1      36.972 -11.747  -1.738  1.00  0.00    -0.339 N 
HETATM   20  C   UNL     1      36.526 -11.868  -3.027  1.00  0.00     0.317 C 
HETATM   21  N   UNL     1      35.279 -11.299  -3.148  1.00  0.00    -0.335 N 
HETATM   22  O   UNL     1      37.129 -12.422  -3.930  1.00  0.00    -0.247 OA
HETATM   23  H   UNL     1      34.761 -11.322  -2.281  1.00  0.00     0.165 HD
HETATM   24  H   UNL     1      36.612 -10.930  -1.265  1.00  0.00     0.164 HD
BRANCH  21  25
HETATM   25  C   UNL     1      34.462 -11.359  -4.371  1.00  0.00     0.023 C 
HETATM   26  C   UNL     1      34.157 -12.817  -4.752  1.00  0.00     0.037 C 
HETATM   27  C   UNL     1      33.132 -10.639  -4.079  1.00  0.00     0.037 C 
HETATM   28  C   UNL     1      35.148 -10.637  -5.542  1.00  0.00     0.037 C 
ENDBRANCH  21  25
ENDBRANCH  16  19
ENDBRANCH  11  13
ENDBRANCH   5  11
BRANCH   1  29
HETATM   29  C   UNL     1      40.451 -15.405   5.972  1.00  0.00     0.076 C 
HETATM   30  C   UNL     1      40.612 -16.739   6.683  1.00  0.00     0.013 C 
ENDBRANCH   1  29
BRANCH   7  31
HETATM   31  C   UNL     1      43.047 -18.764   2.482  1.00  0.00     0.060 A 
HETATM   32  C   UNL     1      43.078 -19.958   1.756  1.00  0.00     0.032 A 
HETATM   33  C   UNL     1      43.784 -21.066   2.244  1.00  0.00     0.009 A 
HETATM   34  C   UNL     1      44.477 -20.995   3.457  1.00  0.00    -0.062 A 
HETATM   35  C   UNL     1      45.201 -22.190   4.002  1.00  0.00     0.048 C 
HETATM   36  C   UNL     1      44.444 -19.804   4.187  1.00  0.00     0.009 A 
HETATM   37  C   UNL     1      43.740 -18.697   3.703  1.00  0.00     0.032 A 
ENDBRANCH   7  31
TORSDOF 6
ENDMDL
MODEL 6
REMARK VINA RESULT:      -7.9      3.696      5.039
REMARK  6 active torsions:
REMARK  status: ('A' for Active; 'I' for Inactive)
REMARK    1  A    between atoms: C_2  and  C_3 
REMARK    2  A    between atoms: C_7  and  N_8 
REMARK    3  A    between atoms: N_8  and  C_9 
REMARK    4  A    between atoms: C_12  and  N_13 
REMARK       I    between atoms: N_13  and  C_14 
REMARK       I    between atoms: C_14  and  N_15 
REMARK    5  A    between atoms: N_15  and  C_16 
REMARK    6  A    between atoms: N_24  and  C_25 
ROOT
HETATM    1  C   UNL     1      43.377 -14.297   5.008  1.00  0.00     0.130 A 
HETATM    2  N   UNL     1      43.359 -15.551   4.527  1.00  0.00    -0.213 NA
HETATM    3  C   UNL     1      42.302 -15.794   3.726  1.00  0.00     0.169 A 
HETATM    4  C   UNL     1      41.318 -14.873   3.399  1.00  0.00     0.078 A 
HETATM    5  C   UNL     1      41.451 -13.567   3.900  1.00  0.00     0.121 A 
HETATM    6  N   UNL     1      42.498 -13.316   4.719  1.00  0.00    -0.221 NA
HETATM    7  N   UNL     1      41.980 -16.972   3.054  1.00  0.00    -0.214 N 
HETATM    8  N   UNL     1      40.796 -16.848   2.380  1.00  0.00    -0.170 NA
HETATM    9  C   UNL     1      40.404 -15.589   2.592  1.00  0.00     0.069 A 
HETATM   10  C   UNL     1      39.130 -15.114   1.996  1.00  0.00     0.073 C 
ENDROOT
BRANCH   5  11
HETATM   11  N   UNL     1      40.549 -12.551   3.572  1.00  0.00    -0.272 NA
HETATM   12  H   UNL     1      41.028 -11.662   3.512  1.00  0.00     0.129 HD
BRANCH  11  13
HETATM   13  C   UNL     1      39.298 -12.487   4.342  1.00  0.00     0.062 C 
HETATM   14  C   UNL     1      39.547 -13.094   5.730  1.00  0.00     0.022 C 
HETATM   15  C   UNL     1      40.509 -12.265   6.583  1.00  0.00     0.027 C 
HETATM   16  C   UNL     1      40.230 -10.757   6.614  1.00  0.00     0.086 C 
HETATM   17  C   UNL     1      39.762 -10.161   5.282  1.00  0.00     0.027 C 
HETATM   18  C   UNL     1      38.811 -11.041   4.472  1.00  0.00     0.022 C 
BRANCH  16  19
HETATM   19  N   UNL     1      39.430 -10.336   7.763  1.00  0.00    -0.339 N 
HETATM   20  C   UNL     1      39.889 -10.091   9.029  1.00  0.00     0.317 C 
HETATM   21  N   UNL     1      38.861  -9.631   9.821  1.00  0.00    -0.335 N 
HETATM   22  O   UNL     1      41.042 -10.232   9.399  1.00  0.00    -0.247 OA
HETATM   23  H   UNL     1      38.153  -9.149   9.287  1.00  0.00     0.165 HD
HETATM   24  H   UNL     1      38.456 -10.602   7.734  1.00  0.00     0.164 HD
BRANCH  21  25
HETATM   25  C   UNL     1      39.035  -9.162  11.205  1.00  0.00     0.023 C 
HETATM   26  C   UNL     1      39.936  -7.918  11.250  1.00  0.00     0.037 C 
HETATM   27  C   UNL     1      37.643  -8.780  11.746  1.00  0.00     0.037 C 
HETATM   28  C   UNL     1      39.610 -10.267  12.106  1.00  0.00     0.037 C 
ENDBRANCH  21  25
ENDBRANCH  16  19
ENDBRANCH  11  13
ENDBRANCH   5  11
BRANCH   1  29
HETATM   29  C   UNL     1      44.514 -13.938   5.926  1.00  0.00     0.076 C 
HETATM   30  C   UNL     1      44.487 -14.777   7.193  1.00  0.00     0.013 C 
ENDBRANCH   1  29
BRANCH   7  31
HETATM   31  C   UNL     1      42.704 -18.203   2.970  1.00  0.00     0.060 A 
HETATM   32  C   UNL     1      42.675 -19.008   1.828  1.00  0.00     0.032 A 
HETATM   33  C   UNL     1      43.375 -20.221   1.798  1.00  0.00     0.009 A 
HETATM   34  C   UNL     1      44.122 -20.643   2.903  1.00  0.00    -0.062 A 
HETATM   35  C   UNL     1      44.841 -21.960   2.890  1.00  0.00     0.048 C 
HETATM   36  C   UNL     1      44.149 -19.842   4.048  1.00  0.00     0.009 A 
HETATM   37  C   UNL     1      43.451 -18.631   4.081  1.00  0.00     0.032 A 
ENDBRANCH   7  31
TORSDOF 6
ENDMDL
MODEL 7
REMARK VINA RESULT:      -7.9      3.280      4.276
REMARK  6 active torsions:
REMARK  status: ('A' for Active; 'I' for Inactive)
REMARK    1  A    between atoms: C_2  and  C_3 
REMARK    2  A    between atoms: C_7  and  N_8 
REMARK    3  A    between atoms: N_8  and  C_9 
REMARK    4  A    between atoms: C_12  and  N_13 
REMARK       I    between atoms: N_13  and  C_14 
REMARK       I    between atoms: C_14  and  N_15 
REMARK    5  A    between atoms: N_15  and  C_16 
REMARK    6  A    between atoms: N_24  and  C_25 
ROOT
HETATM    1  C   UNL     1      43.217 -14.762   6.014  1.00  0.00     0.130 A 
HETATM    2  N   UNL     1      43.388 -16.048   5.663  1.00  0.00    -0.213 NA
HETATM    3  C   UNL     1      42.607 -16.421   4.630  1.00  0.00     0.169 A 
HETATM    4  C   UNL     1      41.712 -15.596   3.965  1.00  0.00     0.078 A 
HETATM    5  C   UNL     1      41.643 -14.250   4.361  1.00  0.00     0.121 A 
HETATM    6  N   UNL     1      42.410 -13.867   5.407  1.00  0.00    -0.221 NA
HETATM    7  N   UNL     1      42.536 -17.666   4.007  1.00  0.00    -0.214 N 
HETATM    8  N   UNL     1      41.580 -17.674   3.027  1.00  0.00    -0.170 NA
HETATM    9  C   UNL     1      41.091 -16.432   3.008  1.00  0.00     0.069 A 
HETATM   10  C   UNL     1      40.012 -16.091   2.046  1.00  0.00     0.073 C 
ENDROOT
BRANCH   5  11
HETATM   11  N   UNL     1      40.824 -13.326   3.708  1.00  0.00    -0.272 NA
HETATM   12  H   UNL     1      40.237 -13.795   3.030  1.00  0.00     0.129 HD
BRANCH  11  13
HETATM   13  C   UNL     1      41.464 -12.112   3.181  1.00  0.00     0.062 C 
HETATM   14  C   UNL     1      42.346 -12.504   1.986  1.00  0.00     0.022 C 
HETATM   15  C   UNL     1      41.543 -13.008   0.787  1.00  0.00     0.027 C 
HETATM   16  C   UNL     1      40.331 -12.151   0.398  1.00  0.00     0.086 C 
HETATM   17  C   UNL     1      39.555 -11.560   1.580  1.00  0.00     0.027 C 
HETATM   18  C   UNL     1      40.413 -11.084   2.751  1.00  0.00     0.022 C 
BRANCH  16  19
HETATM   19  N   UNL     1      40.616 -11.187  -0.664  1.00  0.00    -0.339 N 
HETATM   20  C   UNL     1      40.833 -11.472  -1.985  1.00  0.00     0.317 C 
HETATM   21  N   UNL     1      40.982 -10.305  -2.698  1.00  0.00    -0.335 N 
HETATM   22  O   UNL     1      40.862 -12.591  -2.468  1.00  0.00    -0.247 OA
HETATM   23  H   UNL     1      40.486  -9.532  -2.278  1.00  0.00     0.165 HD
HETATM   24  H   UNL     1      41.049 -10.326  -0.363  1.00  0.00     0.164 HD
BRANCH  21  25
HETATM   25  C   UNL     1      41.112 -10.246  -4.163  1.00  0.00     0.023 C 
HETATM   26  C   UNL     1      42.296 -11.104  -4.640  1.00  0.00     0.037 C 
HETATM   27  C   UNL     1      39.816 -10.815  -4.771  1.00  0.00     0.037 C 
HETATM   28  C   UNL     1      41.275  -8.798  -4.657  1.00  0.00     0.037 C 
ENDBRANCH  21  25
ENDBRANCH  16  19
ENDBRANCH  11  13
ENDBRANCH   5  11
BRANCH   1  29
HETATM   29  C   UNL     1      44.038 -14.258   7.170  1.00  0.00     0.076 C 
HETATM   30  C   UNL     1      45.422 -13.822   6.716  1.00  0.00     0.013 C 
ENDBRANCH   1  29
BRANCH   7  31
HETATM   31  C   UNL     1      43.308 -18.848   4.237  1.00  0.00     0.060 A 
HETATM   32  C   UNL     1      43.885 -19.576   3.192  1.00  0.00     0.032 A 
HETATM   33  C   UNL     1      44.609 -20.745   3.459  1.00  0.00     0.009 A 
HETATM   34  C   UNL     1      44.777 -21.199   4.771  1.00  0.00    -0.062 A 
HETATM   35  C   UNL     1      45.518 -22.471   5.058  1.00  0.00     0.048 C 
HETATM   36  C   UNL     1      44.197 -20.475   5.817  1.00  0.00     0.009 A 
HETATM   37  C   UNL     1      43.473 -19.309   5.554  1.00  0.00     0.032 A 
ENDBRANCH   7  31
TORSDOF 6
ENDMDL
MODEL 8
REMARK VINA RESULT:      -7.7      4.671     10.440
REMARK  6 active torsions:
REMARK  status: ('A' for Active; 'I' for Inactive)
REMARK    1  A    between atoms: C_2  and  C_3 
REMARK    2  A    between atoms: C_7  and  N_8 
REMARK    3  A    between atoms: N_8  and  C_9 
REMARK    4  A    between atoms: C_12  and  N_13 
REMARK       I    between atoms: N_13  and  C_14 
REMARK       I    between atoms: C_14  and  N_15 
REMARK    5  A    between atoms: N_15  and  C_16 
REMARK    6  A    between atoms: N_24  and  C_25 
ROOT
HETATM    1  C   UNL     1      37.435 -11.890   0.145  1.00  0.00     0.130 A 
HETATM    2  N   UNL     1      37.092 -12.105  -1.136  1.00  0.00    -0.213 NA
HETATM    3  C   UNL     1      37.927 -12.950  -1.771  1.00  0.00     0.169 A 
HETATM    4  C   UNL     1      39.032 -13.562  -1.200  1.00  0.00     0.078 A 
HETATM    5  C   UNL     1      39.281 -13.325   0.163  1.00  0.00     0.121 A 
HETATM    6  N   UNL     1      38.460 -12.465   0.807  1.00  0.00    -0.221 NA
HETATM    7  N   UNL     1      37.864 -13.400  -3.089  1.00  0.00    -0.214 N 
HETATM    8  N   UNL     1      38.925 -14.210  -3.386  1.00  0.00    -0.170 NA
HETATM    9  C   UNL     1      39.622 -14.302  -2.251  1.00  0.00     0.069 A 
HETATM   10  C   UNL     1      40.862 -15.118  -2.223  1.00  0.00     0.073 C 
ENDROOT
BRANCH   5  11
HETATM   11  N   UNL     1      40.329 -13.949   0.845  1.00  0.00    -0.272 NA
HETATM   12  H   UNL     1      40.731 -14.683   0.275  1.00  0.00     0.129 HD
BRANCH  11  13
HETATM   13  C   UNL     1      40.078 -14.363   2.233  1.00  0.00     0.062 C 
HETATM   14  C   UNL     1      39.505 -15.788   2.221  1.00  0.00     0.022 C 
HETATM   15  C   UNL     1      40.508 -16.834   1.735  1.00  0.00     0.027 C 
HETATM   16  C   UNL     1      41.910 -16.742   2.355  1.00  0.00     0.086 C 
HETATM   17  C   UNL     1      42.420 -15.315   2.584  1.00  0.00     0.027 C 
HETATM   18  C   UNL     1      41.367 -14.315   3.059  1.00  0.00     0.022 C 
BRANCH  16  19
HETATM   19  N   UNL     1      42.099 -17.628   3.502  1.00  0.00    -0.339 N 
HETATM   20  C   UNL     1      43.272 -18.217   3.891  1.00  0.00     0.317 C 
HETATM   21  N   UNL     1      43.081 -18.911   5.065  1.00  0.00    -0.335 N 
HETATM   22  O   UNL     1      44.336 -18.121   3.305  1.00  0.00    -0.247 OA
HETATM   23  H   UNL     1      42.338 -18.520   5.625  1.00  0.00     0.165 HD
HETATM   24  H   UNL     1      41.278 -18.136   3.798  1.00  0.00     0.164 HD
BRANCH  21  25
HETATM   25  C   UNL     1      44.163 -19.564   5.820  1.00  0.00     0.023 C 
HETATM   26  C   UNL     1      44.825 -20.668   4.979  1.00  0.00     0.037 C 
HETATM   27  C   UNL     1      45.221 -18.491   6.142  1.00  0.00     0.037 C 
HETATM   28  C   UNL     1      43.652 -20.145   7.148  1.00  0.00     0.037 C 
ENDBRANCH  21  25
ENDBRANCH  16  19
ENDBRANCH  11  13
ENDBRANCH   5  11
BRANCH   1  29
HETATM   29  C   UNL     1      36.567 -10.945   0.932  1.00  0.00     0.076 C 
HETATM   30  C   UNL     1      35.105 -11.083   0.540  1.00  0.00     0.013 C 
ENDBRANCH   1  29
BRANCH   7  31
HETATM   31  C   UNL     1      36.874 -13.153  -4.091  1.00  0.00     0.060 A 
HETATM   32  C   UNL     1      36.103 -14.179  -4.647  1.00  0.00     0.032 A 
HETATM   33  C   UNL     1      35.164 -13.897  -5.648  1.00  0.00     0.009 A 
HETATM   34  C   UNL     1      34.974 -12.588  -6.102  1.00  0.00    -0.062 A 
HETATM   35  C   UNL     1      33.998 -12.288  -7.201  1.00  0.00     0.048 C 
HETATM   36  C   UNL     1      35.747 -11.562  -5.553  1.00  0.00     0.009 A 
HETATM   37  C   UNL     1      36.685 -11.840  -4.554  1.00  0.00     0.032 A 
ENDBRANCH   7  31
TORSDOF 6
ENDMDL
MODEL 9
REMARK VINA RESULT:      -7.7      1.770      2.065
REMARK  6 active torsions:
REMARK  status: ('A' for Active; 'I' for Inactive)
REMARK    1  A    between atoms: C_2  and  C_3 
REMARK    2  A    between atoms: C_7  and  N_8 
REMARK    3  A    between atoms: N_8  and  C_9 
REMARK    4  A    between atoms: C_12  and  N_13 
REMARK       I    between atoms: N_13  and  C_14 
REMARK       I    between atoms: C_14  and  N_15 
REMARK    5  A    between atoms: N_15  and  C_16 
REMARK    6  A    between atoms: N_24  and  C_25 
ROOT
HETATM    1  C   UNL     1      43.485 -14.149   4.905  1.00  0.00     0.130 A 
HETATM    2  N   UNL     1      43.565 -15.462   4.632  1.00  0.00    -0.213 NA
HETATM    3  C   UNL     1      43.155 -15.768   3.385  1.00  0.00     0.169 A 
HETATM    4  C   UNL     1      42.697 -14.854   2.447  1.00  0.00     0.078 A 
HETATM    5  C   UNL     1      42.704 -13.493   2.800  1.00  0.00     0.121 A 
HETATM    6  N   UNL     1      43.098 -13.177   4.054  1.00  0.00    -0.221 NA
HETATM    7  N   UNL     1      43.116 -17.018   2.770  1.00  0.00    -0.214 N 
HETATM    8  N   UNL     1      42.583 -16.934   1.513  1.00  0.00    -0.170 NA
HETATM    9  C   UNL     1      42.334 -15.636   1.326  1.00  0.00     0.069 A 
HETATM   10  C   UNL     1      41.737 -15.188   0.043  1.00  0.00     0.073 C 
ENDROOT
BRANCH   5  11
HETATM   11  N   UNL     1      42.327 -12.492   1.901  1.00  0.00    -0.272 NA
HETATM   12  H   UNL     1      43.145 -12.088   1.463  1.00  0.00     0.129 HD
BRANCH  11  13
HETATM   13  C   UNL     1      41.366 -11.487   2.377  1.00  0.00     0.062 C 
HETATM   14  C   UNL     1      41.392 -10.292   1.413  1.00  0.00     0.022 C 
HETATM   15  C   UNL     1      40.862 -10.631   0.021  1.00  0.00     0.027 C 
HETATM   16  C   UNL     1      39.541 -11.413  -0.010  1.00  0.00     0.086 C 
HETATM   17  C   UNL     1      39.395 -12.472   1.089  1.00  0.00     0.027 C 
HETATM   18  C   UNL     1      39.954 -12.077   2.455  1.00  0.00     0.022 C 
BRANCH  16  19
HETATM   19  N   UNL     1      38.364 -10.562  -0.169  1.00  0.00    -0.339 N 
HETATM   20  C   UNL     1      37.146 -10.942  -0.667  1.00  0.00     0.317 C 
HETATM   21  N   UNL     1      36.258  -9.893  -0.584  1.00  0.00    -0.335 N 
HETATM   22  O   UNL     1      36.876 -12.050  -1.095  1.00  0.00    -0.247 OA
HETATM   23  H   UNL     1      36.477  -9.263   0.174  1.00  0.00     0.165 HD
HETATM   24  H   UNL     1      38.553  -9.576  -0.281  1.00  0.00     0.164 HD
BRANCH  21  25
HETATM   25  C   UNL     1      34.829  -9.996  -0.924  1.00  0.00     0.023 C 
HETATM   26  C   UNL     1      34.096 -10.907   0.074  1.00  0.00     0.037 C 
HETATM   27  C   UNL     1      34.226  -8.582  -0.834  1.00  0.00     0.037 C 
HETATM   28  C   UNL     1      34.627 -10.511  -2.359  1.00  0.00     0.037 C 
ENDBRANCH  21  25
ENDBRANCH  16  19
ENDBRANCH  11  13
ENDBRANCH   5  11
BRANCH   1  29
HETATM   29  C   UNL     1      43.909 -13.714   6.282  1.00  0.00     0.076 C 
HETATM   30  C   UNL     1      44.353 -14.900   7.123  1.00  0.00     0.013 C 
ENDBRANCH   1  29
BRANCH   7  31
HETATM   31  C   UNL     1      43.559 -18.288   3.255  1.00  0.00     0.060 A 
HETATM   32  C   UNL     1      43.730 -18.547   4.619  1.00  0.00     0.032 A 
HETATM   33  C   UNL     1      44.193 -19.797   5.050  1.00  0.00     0.009 A 
HETATM   34  C   UNL     1      44.484 -20.809   4.129  1.00  0.00    -0.062 A 
HETATM   35  C   UNL     1      45.019 -22.134   4.584  1.00  0.00     0.048 C 
HETATM   36  C   UNL     1      44.320 -20.551   2.765  1.00  0.00     0.009 A 
HETATM   37  C   UNL     1      43.857 -19.305   2.332  1.00  0.00     0.032 A 
ENDBRANCH   7  31
TORSDOF 6
ENDMDL
MODEL 10
REMARK VINA RESULT:      -7.4      2.572      3.407
REMARK  6 active torsions:
REMARK  status: ('A' for Active; 'I' for Inactive)
REMARK    1  A    between atoms: C_2  and  C_3 
REMARK    2  A    between atoms: C_7  and  N_8 
REMARK    3  A    between atoms: N_8  and  C_9 
REMARK    4  A    between atoms: C_12  and  N_13 
REMARK       I    between atoms: N_13  and  C_14 
REMARK       I    between atoms: C_14  and  N_15 
REMARK    5  A    between atoms: N_15  and  C_16 
REMARK    6  A    between atoms: N_24  and  C_25 
ROOT
HETATM    1  C   UNL     1      40.619 -15.241   4.413  1.00  0.00     0.130 A 
HETATM    2  N   UNL     1      41.354 -16.336   4.157  1.00  0.00    -0.213 NA
HETATM    3  C   UNL     1      41.587 -16.519   2.843  1.00  0.00     0.169 A 
HETATM    4  C   UNL     1      41.141 -15.686   1.828  1.00  0.00     0.078 A 
HETATM    5  C   UNL     1      40.430 -14.531   2.193  1.00  0.00     0.121 A 
HETATM    6  N   UNL     1      40.175 -14.345   3.508  1.00  0.00    -0.221 NA
HETATM    7  N   UNL     1      42.317 -17.535   2.228  1.00  0.00    -0.214 N 
HETATM    8  N   UNL     1      42.283 -17.413   0.866  1.00  0.00    -0.170 NA
HETATM    9  C   UNL     1      41.577 -16.305   0.633  1.00  0.00     0.069 A 
HETATM   10  C   UNL     1      41.340 -15.875  -0.768  1.00  0.00     0.073 C 
ENDROOT
BRANCH   5  11
HETATM   11  N   UNL     1      39.998 -13.595   1.249  1.00  0.00    -0.272 NA
HETATM   12  H   UNL     1      40.691 -12.867   1.135  1.00  0.00     0.129 HD
BRANCH  11  13
HETATM   13  C   UNL     1      38.629 -13.079   1.389  1.00  0.00     0.062 C 
HETATM   14  C   UNL     1      38.634 -11.582   1.045  1.00  0.00     0.022 C 
HETATM   15  C   UNL     1      38.949 -11.306  -0.425  1.00  0.00     0.027 C 
HETATM   16  C   UNL     1      38.178 -12.164  -1.438  1.00  0.00     0.086 C 
HETATM   17  C   UNL     1      37.965 -13.622  -1.014  1.00  0.00     0.027 C 
HETATM   18  C   UNL     1      37.665 -13.833   0.469  1.00  0.00     0.022 C 
BRANCH  16  19
HETATM   19  N   UNL     1      36.974 -11.516  -1.953  1.00  0.00    -0.339 N 
HETATM   20  C   UNL     1      35.920 -11.051  -1.214  1.00  0.00     0.317 C 
HETATM   21  N   UNL     1      35.010 -10.426  -2.036  1.00  0.00    -0.335 N 
HETATM   22  O   UNL     1      35.812 -11.148  -0.004  1.00  0.00    -0.247 OA
HETATM   23  H   UNL     1      35.443 -10.035  -2.860  1.00  0.00     0.165 HD
HETATM   24  H   UNL     1      36.723 -11.759  -2.901  1.00  0.00     0.164 HD
BRANCH  21  25
HETATM   25  C   UNL     1      33.818  -9.711  -1.551  1.00  0.00     0.023 C 
HETATM   26  C   UNL     1      34.218  -8.547  -0.630  1.00  0.00     0.037 C 
HETATM   27  C   UNL     1      33.087  -9.136  -2.780  1.00  0.00     0.037 C 
HETATM   28  C   UNL     1      32.851 -10.657  -0.820  1.00  0.00     0.037 C 
ENDBRANCH  21  25
ENDBRANCH  16  19
ENDBRANCH  11  13
ENDBRANCH   5  11
BRANCH   1  29
HETATM   29  C   UNL     1      40.294 -14.962   5.857  1.00  0.00     0.076 C 
HETATM   30  C   UNL     1      40.079 -13.477   6.097  1.00  0.00     0.013 C 
ENDBRANCH   1  29
BRANCH   7  31
HETATM   31  C   UNL     1      43.066 -18.604   2.813  1.00  0.00     0.060 A 
HETATM   32  C   UNL     1      43.360 -19.778   2.114  1.00  0.00     0.032 A 
HETATM   33  C   UNL     1      44.073 -20.813   2.735  1.00  0.00     0.009 A 
HETATM   34  C   UNL     1      44.510 -20.687   4.057  1.00  0.00    -0.062 A 
HETATM   35  C   UNL     1      45.239 -21.808   4.738  1.00  0.00     0.048 C 
HETATM   36  C   UNL     1      44.213 -19.516   4.760  1.00  0.00     0.009 A 
HETATM   37  C   UNL     1      43.502 -18.482   4.144  1.00  0.00     0.032 A 
ENDBRANCH   7  31
TORSDOF 6
ENDMDL
