MODEL 1
REMARK VINA RESULT:      -8.6      0.000      0.000
REMARK  6 active torsions:
REMARK  status: ('A' for Active; 'I' for Inactive)
REMARK    1  A    between atoms: C_6  and  C_7 
REMARK    2  A    between atoms: N_8  and  N_9 
REMARK       I    between atoms: N_9  and  C_10 
REMARK    3  A    between atoms: C_10  and  C_11 
REMARK    4  A    between atoms: C_14  and  O_15 
REMARK    5  A    between atoms: O_15  and  C_16 
REMARK    6  A    between atoms: C_16  and  C_17 
ROOT
HETATM    1  C   UNL     1      42.304 -17.273   2.313  1.00  0.00     0.217 C 
HETATM    2  N   UNL     1      43.205 -16.692   3.315  1.00  0.00    -0.247 N 
HETATM    3  C   UNL     1      43.867 -17.583   4.170  1.00  0.00     0.272 C 
HETATM    4  O   UNL     1      44.456 -17.280   5.201  1.00  0.00    -0.266 OA
HETATM    5  C   UNL     1      43.901 -18.998   3.725  1.00  0.00     0.054 A 
HETATM    6  C   UNL     1      43.539 -19.272   2.399  1.00  0.00     0.026 A 
HETATM    7  N   UNL     1      43.097 -18.234   1.535  1.00  0.00    -0.265 NA
HETATM    8  C   UNL     1      44.393 -20.006   4.558  1.00  0.00     0.019 A 
HETATM    9  C   UNL     1      44.543 -21.298   4.055  1.00  0.00     0.001 A 
HETATM   10  C   UNL     1      44.227 -21.568   2.722  1.00  0.00     0.002 A 
HETATM   11  C   UNL     1      43.743 -20.554   1.891  1.00  0.00     0.024 A 
HETATM   12  H   UNL     1      43.927 -17.747   1.198  1.00  0.00     0.130 HD
ENDROOT
BRANCH   2  13
HETATM   13  N   UNL     1      43.931 -15.484   2.905  1.00  0.00    -0.163 NA
HETATM   14  C   UNL     1      43.493 -14.278   3.437  1.00  0.00     0.249 C 
HETATM   15  O   UNL     1      42.971 -13.423   2.726  1.00  0.00    -0.272 OA
HETATM   16  H   UNL     1      43.890 -15.381   1.892  1.00  0.00     0.156 HD
BRANCH  14  17
HETATM   17  C   UNL     1      43.791 -13.974   4.848  1.00  0.00     0.028 A 
HETATM   18  C   UNL     1      45.088 -14.133   5.343  1.00  0.00     0.019 A 
HETATM   19  C   UNL     1      45.359 -13.819   6.676  1.00  0.00     0.038 A 
HETATM   20  C   UNL     1      44.343 -13.358   7.519  1.00  0.00     0.069 A 
HETATM   21  C   UNL     1      43.054 -13.171   7.008  1.00  0.00     0.038 A 
HETATM   22  C   UNL     1      42.781 -13.465   5.669  1.00  0.00     0.019 A 
BRANCH  20  23
HETATM   23  O   UNL     1      44.738 -13.105   8.805  1.00  0.00    -0.348 OA
BRANCH  23  24
HETATM   24  C   UNL     1      45.888 -12.276   8.967  1.00  0.00     0.202 C 
BRANCH  24  25
HETATM   25  C   UNL     1      45.470 -11.082   9.775  1.00  0.00    -0.011 C 
HETATM   26  C   UNL     1      44.675 -11.129  10.852  1.00  0.00     0.009 C 
ENDBRANCH  24  25
ENDBRANCH  23  24
ENDBRANCH  20  23
ENDBRANCH  14  17
ENDBRANCH   2  13
BRANCH   1  27
HETATM   27  C   UNL     1      41.533 -16.298   1.421  1.00  0.00    -0.014 A 
HETATM   28  C   UNL     1      40.450 -15.534   1.922  1.00  0.00    -0.052 A 
HETATM   29  C   UNL     1      39.752 -14.665   1.057  1.00  0.00     0.014 A 
HETATM   30  C   UNL     1      40.011 -15.583   3.362  1.00  0.00     0.049 C 
HETATM   31  C   UNL     1      40.077 -14.563  -0.299  1.00  0.00    -0.061 A 
HETATM   32  C   UNL     1      39.267 -13.693  -1.215  1.00  0.00     0.048 C 
HETATM   33  C   UNL     1      41.116 -15.341  -0.800  1.00  0.00     0.007 A 
HETATM   34  C   UNL     1      41.835 -16.187   0.047  1.00  0.00     0.011 A 
ENDBRANCH   1  27
TORSDOF 6
ENDMDL
MODEL 2
REMARK VINA RESULT:      -8.3      2.788      7.028
REMARK  6 active torsions:
REMARK  status: ('A' for Active; 'I' for Inactive)
REMARK    1  A    between atoms: C_6  and  C_7 
REMARK    2  A    between atoms: N_8  and  N_9 
REMARK       I    between atoms: N_9  and  C_10 
REMARK    3  A    between atoms: C_10  and  C_11 
REMARK    4  A    between atoms: C_14  and  O_15 
REMARK    5  A    between atoms: O_15  and  C_16 
REMARK    6  A    between atoms: C_16  and  C_17 
ROOT
HETATM    1  C   UNL     1      40.224 -12.899   2.896  1.00  0.00     0.217 C 
HETATM    2  N   UNL     1      40.714 -14.001   3.732  1.00  0.00    -0.247 N 
HETATM    3  C   UNL     1      41.311 -13.659   4.952  1.00  0.00     0.272 C 
HETATM    4  O   UNL     1      41.981 -14.406   5.655  1.00  0.00    -0.266 OA
HETATM    5  C   UNL     1      41.030 -12.287   5.445  1.00  0.00     0.054 A 
HETATM    6  C   UNL     1      39.997 -11.572   4.823  1.00  0.00     0.026 A 
HETATM    7  N   UNL     1      39.289 -12.123   3.722  1.00  0.00    -0.265 NA
HETATM    8  C   UNL     1      41.686 -11.773   6.566  1.00  0.00     0.019 A 
HETATM    9  C   UNL     1      41.294 -10.538   7.083  1.00  0.00     0.001 A 
HETATM   10  C   UNL     1      40.236  -9.842   6.496  1.00  0.00     0.002 A 
HETATM   11  C   UNL     1      39.576 -10.364   5.381  1.00  0.00     0.024 A 
HETATM   12  H   UNL     1      38.599 -12.773   4.099  1.00  0.00     0.130 HD
ENDROOT
BRANCH   2  13
HETATM   13  N   UNL     1      39.930 -15.241   3.688  1.00  0.00    -0.163 NA
HETATM   14  C   UNL     1      40.393 -16.247   2.850  1.00  0.00     0.249 C 
HETATM   15  O   UNL     1      39.766 -16.577   1.847  1.00  0.00    -0.272 OA
HETATM   16  H   UNL     1      38.976 -15.038   3.391  1.00  0.00     0.156 HD
BRANCH  14  17
HETATM   17  C   UNL     1      41.582 -17.017   3.255  1.00  0.00     0.028 A 
HETATM   18  C   UNL     1      41.569 -17.760   4.439  1.00  0.00     0.019 A 
HETATM   19  C   UNL     1      42.696 -18.503   4.797  1.00  0.00     0.038 A 
HETATM   20  C   UNL     1      43.837 -18.501   3.988  1.00  0.00     0.069 A 
HETATM   21  C   UNL     1      43.831 -17.781   2.789  1.00  0.00     0.038 A 
HETATM   22  C   UNL     1      42.699 -17.050   2.414  1.00  0.00     0.019 A 
BRANCH  20  23
HETATM   23  O   UNL     1      44.876 -19.255   4.463  1.00  0.00    -0.348 OA
BRANCH  23  24
HETATM   24  C   UNL     1      44.788 -20.663   4.256  1.00  0.00     0.202 C 
BRANCH  24  25
HETATM   25  C   UNL     1      44.863 -20.905   2.776  1.00  0.00    -0.011 C 
HETATM   26  C   UNL     1      44.003 -21.659   2.080  1.00  0.00     0.009 C 
ENDBRANCH  24  25
ENDBRANCH  23  24
ENDBRANCH  20  23
ENDBRANCH  14  17
ENDBRANCH   2  13
BRANCH   1  27
HETATM   27  C   UNL     1      39.629 -13.268   1.535  1.00  0.00    -0.014 A 
HETATM   28  C   UNL     1      40.453 -13.509   0.408  1.00  0.00    -0.052 A 
HETATM   29  C   UNL     1      39.860 -13.822  -0.834  1.00  0.00     0.014 A 
HETATM   30  C   UNL     1      41.957 -13.470   0.471  1.00  0.00     0.049 C 
HETATM   31  C   UNL     1      38.472 -13.868  -0.993  1.00  0.00    -0.061 A 
HETATM   32  C   UNL     1      37.866 -14.123  -2.341  1.00  0.00     0.048 C 
HETATM   33  C   UNL     1      37.662 -13.594   0.105  1.00  0.00     0.007 A 
HETATM   34  C   UNL     1      38.231 -13.307   1.347  1.00  0.00     0.011 A 
ENDBRANCH   1  27
TORSDOF 6
ENDMDL
MODEL 3
REMARK VINA RESULT:      -8.3      1.981      7.022
REMARK  6 active torsions:
REMARK  status: ('A' for Active; 'I' for Inactive)
REMARK    1  A    between atoms: C_6  and  C_7 
REMARK    2  A    between atoms: N_8  and  N_9 
REMARK       I    between atoms: N_9  and  C_10 
REMARK    3  A    between atoms: C_10  and  C_11 
REMARK    4  A    between atoms: C_14  and  O_15 
REMARK    5  A    between atoms: O_15  and  C_16 
REMARK    6  A    between atoms: C_16  and  C_17 
ROOT
HETATM    1  C   UNL     1      43.648 -17.043   4.293  1.00  0.00     0.217 C 
HETATM    2  N   UNL     1      42.467 -16.965   3.426  1.00  0.00    -0.247 N 
HETATM    3  C   UNL     1      42.344 -17.939   2.427  1.00  0.00     0.272 C 
HETATM    4  O   UNL     1      41.572 -17.894   1.476  1.00  0.00    -0.266 OA
HETATM    5  C   UNL     1      43.184 -19.150   2.601  1.00  0.00     0.054 A 
HETATM    6  C   UNL     1      43.790 -19.347   3.849  1.00  0.00     0.026 A 
HETATM    7  N   UNL     1      43.651 -18.387   4.887  1.00  0.00    -0.265 NA
HETATM    8  C   UNL     1      43.268 -20.122   1.600  1.00  0.00     0.019 A 
HETATM    9  C   UNL     1      43.950 -21.311   1.856  1.00  0.00     0.001 A 
HETATM   10  C   UNL     1      44.517 -21.533   3.113  1.00  0.00     0.002 A 
HETATM   11  C   UNL     1      44.422 -20.562   4.113  1.00  0.00     0.024 A 
HETATM   12  H   UNL     1      42.738 -18.535   5.317  1.00  0.00     0.130 HD
ENDROOT
BRANCH   2  13
HETATM   13  N   UNL     1      41.232 -16.489   4.060  1.00  0.00    -0.163 NA
HETATM   14  C   UNL     1      40.884 -15.163   3.840  1.00  0.00     0.249 C 
HETATM   15  O   UNL     1      40.904 -14.340   4.752  1.00  0.00    -0.272 OA
HETATM   16  H   UNL     1      41.295 -16.603   5.071  1.00  0.00     0.156 HD
BRANCH  14  17
HETATM   17  C   UNL     1      40.350 -14.779   2.521  1.00  0.00     0.028 A 
HETATM   18  C   UNL     1      39.002 -14.993   2.218  1.00  0.00     0.019 A 
HETATM   19  C   UNL     1      38.507 -14.602   0.973  1.00  0.00     0.038 A 
HETATM   20  C   UNL     1      39.348 -14.010   0.026  1.00  0.00     0.069 A 
HETATM   21  C   UNL     1      40.688 -13.770   0.347  1.00  0.00     0.038 A 
HETATM   22  C   UNL     1      41.187 -14.141   1.600  1.00  0.00     0.019 A 
BRANCH  20  23
HETATM   23  O   UNL     1      38.741 -13.692  -1.160  1.00  0.00    -0.348 OA
BRANCH  23  24
HETATM   24  C   UNL     1      39.592 -13.568  -2.297  1.00  0.00     0.202 C 
BRANCH  24  25
HETATM   25  C   UNL     1      39.536 -14.869  -3.044  1.00  0.00    -0.011 C 
HETATM   26  C   UNL     1      40.499 -15.800  -3.030  1.00  0.00     0.009 C 
ENDBRANCH  24  25
ENDBRANCH  23  24
ENDBRANCH  20  23
ENDBRANCH  14  17
ENDBRANCH   2  13
BRANCH   1  27
HETATM   27  C   UNL     1      43.815 -15.943   5.343  1.00  0.00    -0.014 A 
HETATM   28  C   UNL     1      44.100 -14.605   4.975  1.00  0.00    -0.052 A 
HETATM   29  C   UNL     1      44.271 -13.628   5.979  1.00  0.00     0.014 A 
HETATM   30  C   UNL     1      44.210 -14.156   3.541  1.00  0.00     0.049 C 
HETATM   31  C   UNL     1      44.201 -13.951   7.337  1.00  0.00    -0.061 A 
HETATM   32  C   UNL     1      44.467 -12.911   8.384  1.00  0.00     0.048 C 
HETATM   33  C   UNL     1      43.959 -15.272   7.700  1.00  0.00     0.007 A 
HETATM   34  C   UNL     1      43.762 -16.248   6.720  1.00  0.00     0.011 A 
ENDBRANCH   1  27
TORSDOF 6
ENDMDL
MODEL 4
REMARK VINA RESULT:      -8.1      3.069      6.825
REMARK  6 active torsions:
REMARK  status: ('A' for Active; 'I' for Inactive)
REMARK    1  A    between atoms: C_6  and  C_7 
REMARK    2  A    between atoms: N_8  and  N_9 
REMARK       I    between atoms: N_9  and  C_10 
REMARK    3  A    between atoms: C_10  and  C_11 
REMARK    4  A    between atoms: C_14  and  O_15 
REMARK    5  A    between atoms: O_15  and  C_16 
REMARK    6  A    between atoms: C_16  and  C_17 
ROOT
HETATM    1  C   UNL     1      42.498 -16.436   4.128  1.00  0.00     0.217 C 
HETATM    2  N   UNL     1      42.158 -16.816   2.752  1.00  0.00    -0.247 N 
HETATM    3  C   UNL     1      42.878 -17.878   2.188  1.00  0.00     0.272 C 
HETATM    4  O   UNL     1      42.903 -18.172   0.998  1.00  0.00    -0.266 OA
HETATM    5  C   UNL     1      43.606 -18.745   3.147  1.00  0.00     0.054 A 
HETATM    6  C   UNL     1      43.293 -18.615   4.507  1.00  0.00     0.026 A 
HETATM    7  N   UNL     1      42.356 -17.644   4.951  1.00  0.00    -0.265 NA
HETATM    8  C   UNL     1      44.481 -19.739   2.703  1.00  0.00     0.019 A 
HETATM    9  C   UNL     1      45.036 -20.625   3.625  1.00  0.00     0.001 A 
HETATM   10  C   UNL     1      44.694 -20.531   4.976  1.00  0.00     0.002 A 
HETATM   11  C   UNL     1      43.811 -19.541   5.414  1.00  0.00     0.024 A 
HETATM   12  H   UNL     1      41.425 -18.023   4.782  1.00  0.00     0.130 HD
ENDROOT
BRANCH   2  13
HETATM   13  N   UNL     1      40.745 -16.685   2.378  1.00  0.00    -0.163 NA
HETATM   14  C   UNL     1      40.332 -15.444   1.910  1.00  0.00     0.249 C 
HETATM   15  O   UNL     1      39.557 -14.746   2.558  1.00  0.00    -0.272 OA
HETATM   16  H   UNL     1      40.153 -16.899   3.179  1.00  0.00     0.156 HD
BRANCH  14  17
HETATM   17  C   UNL     1      40.727 -15.031   0.551  1.00  0.00     0.028 A 
HETATM   18  C   UNL     1      41.160 -13.723   0.312  1.00  0.00     0.019 A 
HETATM   19  C   UNL     1      41.552 -13.354  -0.976  1.00  0.00     0.038 A 
HETATM   20  C   UNL     1      41.505 -14.276  -2.026  1.00  0.00     0.069 A 
HETATM   21  C   UNL     1      41.101 -15.591  -1.773  1.00  0.00     0.038 A 
HETATM   22  C   UNL     1      40.725 -15.973  -0.481  1.00  0.00     0.019 A 
BRANCH  20  23
HETATM   23  O   UNL     1      41.899 -13.780  -3.240  1.00  0.00    -0.348 OA
BRANCH  23  24
HETATM   24  C   UNL     1      41.254 -12.586  -3.680  1.00  0.00     0.202 C 
BRANCH  24  25
HETATM   25  C   UNL     1      42.328 -11.615  -4.074  1.00  0.00    -0.011 C 
HETATM   26  C   UNL     1      42.522 -10.418  -3.506  1.00  0.00     0.009 C 
ENDBRANCH  24  25
ENDBRANCH  23  24
ENDBRANCH  20  23
ENDBRANCH  14  17
ENDBRANCH   2  13
BRANCH   1  27
HETATM   27  C   UNL     1      41.757 -15.236   4.722  1.00  0.00    -0.014 A 
HETATM   28  C   UNL     1      42.188 -13.908   4.487  1.00  0.00    -0.052 A 
HETATM   29  C   UNL     1      41.488 -12.834   5.076  1.00  0.00     0.014 A 
HETATM   30  C   UNL     1      43.364 -13.573   3.606  1.00  0.00     0.049 C 
HETATM   31  C   UNL     1      40.394 -13.046   5.919  1.00  0.00    -0.061 A 
HETATM   32  C   UNL     1      39.718 -11.891   6.597  1.00  0.00     0.048 C 
HETATM   33  C   UNL     1      39.993 -14.352   6.181  1.00  0.00     0.007 A 
HETATM   34  C   UNL     1      40.658 -15.427   5.587  1.00  0.00     0.011 A 
ENDBRANCH   1  27
TORSDOF 6
ENDMDL
MODEL 5
REMARK VINA RESULT:      -7.9      2.497      3.228
REMARK  6 active torsions:
REMARK  status: ('A' for Active; 'I' for Inactive)
REMARK    1  A    between atoms: C_6  and  C_7 
REMARK    2  A    between atoms: N_8  and  N_9 
REMARK       I    between atoms: N_9  and  C_10 
REMARK    3  A    between atoms: C_10  and  C_11 
REMARK    4  A    between atoms: C_14  and  O_15 
REMARK    5  A    between atoms: O_15  and  C_16 
REMARK    6  A    between atoms: C_16  and  C_17 
ROOT
HETATM    1  C   UNL     1      41.603 -15.756   1.646  1.00  0.00     0.217 C 
HETATM    2  N   UNL     1      41.933 -15.132   2.932  1.00  0.00    -0.247 N 
HETATM    3  C   UNL     1      42.451 -15.967   3.932  1.00  0.00     0.272 C 
HETATM    4  O   UNL     1      42.555 -15.681   5.119  1.00  0.00    -0.266 OA
HETATM    5  C   UNL     1      42.975 -17.276   3.470  1.00  0.00     0.054 A 
HETATM    6  C   UNL     1      43.172 -17.449   2.093  1.00  0.00     0.026 A 
HETATM    7  N   UNL     1      42.822 -16.426   1.173  1.00  0.00    -0.265 NA
HETATM    8  C   UNL     1      43.375 -18.257   4.382  1.00  0.00     0.019 A 
HETATM    9  C   UNL     1      43.994 -19.416   3.914  1.00  0.00     0.001 A 
HETATM   10  C   UNL     1      44.234 -19.574   2.547  1.00  0.00     0.002 A 
HETATM   11  C   UNL     1      43.841 -18.586   1.641  1.00  0.00     0.024 A 
HETATM   12  H   UNL     1      43.575 -15.737   1.185  1.00  0.00     0.130 HD
ENDROOT
BRANCH   2  13
HETATM   13  N   UNL     1      42.445 -13.758   2.869  1.00  0.00    -0.163 NA
HETATM   14  C   UNL     1      41.511 -12.736   2.971  1.00  0.00     0.249 C 
HETATM   15  O   UNL     1      41.266 -12.001   2.018  1.00  0.00    -0.272 OA
HETATM   16  H   UNL     1      42.934 -13.610   1.987  1.00  0.00     0.156 HD
BRANCH  14  17
HETATM   17  C   UNL     1      40.913 -12.449   4.288  1.00  0.00     0.028 A 
HETATM   18  C   UNL     1      39.554 -12.690   4.511  1.00  0.00     0.019 A 
HETATM   19  C   UNL     1      39.009 -12.435   5.770  1.00  0.00     0.038 A 
HETATM   20  C   UNL     1      39.806 -11.932   6.803  1.00  0.00     0.069 A 
HETATM   21  C   UNL     1      41.171 -11.724   6.582  1.00  0.00     0.038 A 
HETATM   22  C   UNL     1      41.729 -11.995   5.328  1.00  0.00     0.019 A 
BRANCH  20  23
HETATM   23  O   UNL     1      39.143 -11.709   7.980  1.00  0.00    -0.348 OA
BRANCH  23  24
HETATM   24  C   UNL     1      39.374 -10.452   8.613  1.00  0.00     0.202 C 
BRANCH  24  25
HETATM   25  C   UNL     1      39.932 -10.732   9.978  1.00  0.00    -0.011 C 
HETATM   26  C   UNL     1      41.237 -10.816  10.268  1.00  0.00     0.009 C 
ENDBRANCH  24  25
ENDBRANCH  23  24
ENDBRANCH  20  23
ENDBRANCH  14  17
ENDBRANCH   2  13
BRANCH   1  27
HETATM   27  C   UNL     1      40.979 -14.858   0.576  1.00  0.00    -0.014 A 
HETATM   28  C   UNL     1      39.608 -14.507   0.611  1.00  0.00    -0.052 A 
HETATM   29  C   UNL     1      39.070 -13.696  -0.410  1.00  0.00     0.014 A 
HETATM   30  C   UNL     1      38.680 -14.942   1.716  1.00  0.00     0.049 C 
HETATM   31  C   UNL     1      39.849 -13.255  -1.484  1.00  0.00    -0.061 A 
HETATM   32  C   UNL     1      39.234 -12.463  -2.599  1.00  0.00     0.048 C 
HETATM   33  C   UNL     1      41.188 -13.632  -1.540  1.00  0.00     0.007 A 
HETATM   34  C   UNL     1      41.743 -14.412  -0.524  1.00  0.00     0.011 A 
ENDBRANCH   1  27
TORSDOF 6
ENDMDL
MODEL 6
REMARK VINA RESULT:      -7.8      2.718      7.612
REMARK  6 active torsions:
REMARK  status: ('A' for Active; 'I' for Inactive)
REMARK    1  A    between atoms: C_6  and  C_7 
REMARK    2  A    between atoms: N_8  and  N_9 
REMARK       I    between atoms: N_9  and  C_10 
REMARK    3  A    between atoms: C_10  and  C_11 
REMARK    4  A    between atoms: C_14  and  O_15 
REMARK    5  A    between atoms: O_15  and  C_16 
REMARK    6  A    between atoms: C_16  and  C_17 
ROOT
HETATM    1  C   UNL     1      40.201 -12.688   2.454  1.00  0.00     0.217 C 
HETATM    2  N   UNL     1      41.090 -13.695   1.863  1.00  0.00    -0.247 N 
HETATM    3  C   UNL     1      40.686 -14.267   0.649  1.00  0.00     0.272 C 
HETATM    4  O   UNL     1      41.164 -15.274   0.140  1.00  0.00    -0.266 OA
HETATM    5  C   UNL     1      39.637 -13.527  -0.095  1.00  0.00     0.054 A 
HETATM    6  C   UNL     1      39.352 -12.217   0.313  1.00  0.00     0.026 A 
HETATM    7  N   UNL     1      40.004 -11.645   1.438  1.00  0.00    -0.265 NA
HETATM    8  C   UNL     1      39.042 -14.069  -1.237  1.00  0.00     0.019 A 
HETATM    9  C   UNL     1      38.165 -13.288  -1.989  1.00  0.00     0.001 A 
HETATM   10  C   UNL     1      37.912 -11.967  -1.614  1.00  0.00     0.002 A 
HETATM   11  C   UNL     1      38.517 -11.426  -0.477  1.00  0.00     0.024 A 
HETATM   12  H   UNL     1      40.927 -11.339   1.130  1.00  0.00     0.130 HD
ENDROOT
BRANCH   2  13
HETATM   13  N   UNL     1      42.528 -13.483   2.064  1.00  0.00    -0.163 NA
HETATM   14  C   UNL     1      43.099 -14.075   3.182  1.00  0.00     0.249 C 
HETATM   15  O   UNL     1      43.526 -13.397   4.113  1.00  0.00    -0.272 OA
HETATM   16  H   UNL     1      42.724 -12.485   2.138  1.00  0.00     0.156 HD
BRANCH  14  17
HETATM   17  C   UNL     1      43.318 -15.533   3.179  1.00  0.00     0.028 A 
HETATM   18  C   UNL     1      43.757 -16.176   2.018  1.00  0.00     0.019 A 
HETATM   19  C   UNL     1      43.982 -17.553   2.039  1.00  0.00     0.038 A 
HETATM   20  C   UNL     1      43.763 -18.293   3.205  1.00  0.00     0.069 A 
HETATM   21  C   UNL     1      43.354 -17.639   4.371  1.00  0.00     0.038 A 
HETATM   22  C   UNL     1      43.145 -16.256   4.363  1.00  0.00     0.019 A 
BRANCH  20  23
HETATM   23  O   UNL     1      44.003 -19.636   3.084  1.00  0.00    -0.348 OA
BRANCH  23  24
HETATM   24  C   UNL     1      43.729 -20.220   1.812  1.00  0.00     0.202 C 
BRANCH  24  25
HETATM   25  C   UNL     1      43.903 -21.704   1.952  1.00  0.00    -0.011 C 
HETATM   26  C   UNL     1      44.484 -22.310   2.996  1.00  0.00     0.009 C 
ENDBRANCH  24  25
ENDBRANCH  23  24
ENDBRANCH  20  23
ENDBRANCH  14  17
ENDBRANCH   2  13
BRANCH   1  27
HETATM   27  C   UNL     1      40.610 -12.109   3.810  1.00  0.00    -0.014 A 
HETATM   28  C   UNL     1      40.435 -12.841   5.011  1.00  0.00    -0.052 A 
HETATM   29  C   UNL     1      40.803 -12.258   6.242  1.00  0.00     0.014 A 
HETATM   30  C   UNL     1      39.889 -14.245   5.041  1.00  0.00     0.049 C 
HETATM   31  C   UNL     1      41.306 -10.955   6.315  1.00  0.00    -0.061 A 
HETATM   32  C   UNL     1      41.613 -10.329   7.643  1.00  0.00     0.048 C 
HETATM   33  C   UNL     1      41.442 -10.222   5.140  1.00  0.00     0.007 A 
HETATM   34  C   UNL     1      41.107 -10.792   3.910  1.00  0.00     0.011 A 
ENDBRANCH   1  27
TORSDOF 6
ENDMDL
MODEL 7
REMARK VINA RESULT:      -7.6      3.125      7.804
REMARK  6 active torsions:
REMARK  status: ('A' for Active; 'I' for Inactive)
REMARK    1  A    between atoms: C_6  and  C_7 
REMARK    2  A    between atoms: N_8  and  N_9 
REMARK       I    between atoms: N_9  and  C_10 
REMARK    3  A    between atoms: C_10  and  C_11 
REMARK    4  A    between atoms: C_14  and  O_15 
REMARK    5  A    between atoms: O_15  and  C_16 
REMARK    6  A    between atoms: C_16  and  C_17 
ROOT
HETATM    1  C   UNL     1      42.147 -15.625   3.538  1.00  0.00     0.217 C 
HETATM    2  N   UNL     1      41.240 -16.085   2.480  1.00  0.00    -0.247 N 
HETATM    3  C   UNL     1      41.585 -17.268   1.814  1.00  0.00     0.272 C 
HETATM    4  O   UNL     1      41.092 -17.668   0.766  1.00  0.00    -0.266 OA
HETATM    5  C   UNL     1      42.585 -18.125   2.499  1.00  0.00     0.054 A 
HETATM    6  C   UNL     1      42.876 -17.840   3.840  1.00  0.00     0.026 A 
HETATM    7  N   UNL     1      42.277 -16.731   4.496  1.00  0.00    -0.265 NA
HETATM    8  C   UNL     1      43.124 -19.250   1.870  1.00  0.00     0.019 A 
HETATM    9  C   UNL     1      43.951 -20.109   2.594  1.00  0.00     0.001 A 
HETATM   10  C   UNL     1      44.208 -19.856   3.943  1.00  0.00     0.002 A 
HETATM   11  C   UNL     1      43.658 -18.735   4.570  1.00  0.00     0.024 A 
HETATM   12  H   UNL     1      41.336 -17.013   4.770  1.00  0.00     0.130 HD
ENDROOT
BRANCH   2  13
HETATM   13  N   UNL     1      39.812 -15.824   2.697  1.00  0.00    -0.163 NA
HETATM   14  C   UNL     1      39.323 -14.602   2.255  1.00  0.00     0.249 C 
HETATM   15  O   UNL     1      38.938 -13.747   3.049  1.00  0.00    -0.272 OA
HETATM   16  H   UNL     1      39.598 -15.874   3.692  1.00  0.00     0.156 HD
BRANCH  14  17
HETATM   17  C   UNL     1      39.137 -14.392   0.808  1.00  0.00     0.028 A 
HETATM   18  C   UNL     1      37.881 -14.044   0.303  1.00  0.00     0.019 A 
HETATM   19  C   UNL     1      37.727 -13.827  -1.067  1.00  0.00     0.038 A 
HETATM   20  C   UNL     1      38.814 -13.964  -1.936  1.00  0.00     0.069 A 
HETATM   21  C   UNL     1      40.074 -14.282  -1.420  1.00  0.00     0.038 A 
HETATM   22  C   UNL     1      40.240 -14.482  -0.046  1.00  0.00     0.019 A 
BRANCH  20  23
HETATM   23  O   UNL     1      38.523 -13.742  -3.255  1.00  0.00    -0.348 OA
BRANCH  23  24
HETATM   24  C   UNL     1      37.208 -13.272  -3.547  1.00  0.00     0.202 C 
BRANCH  24  25
HETATM   25  C   UNL     1      36.539 -14.310  -4.400  1.00  0.00    -0.011 C 
HETATM   26  C   UNL     1      35.575 -14.058  -5.295  1.00  0.00     0.009 C 
ENDBRANCH  24  25
ENDBRANCH  23  24
ENDBRANCH  20  23
ENDBRANCH  14  17
ENDBRANCH   2  13
BRANCH   1  27
HETATM   27  C   UNL     1      41.804 -14.300   4.221  1.00  0.00    -0.014 A 
HETATM   28  C   UNL     1      42.037 -13.056   3.585  1.00  0.00    -0.052 A 
HETATM   29  C   UNL     1      41.729 -11.858   4.263  1.00  0.00     0.014 A 
HETATM   30  C   UNL     1      42.586 -12.943   2.186  1.00  0.00     0.049 C 
HETATM   31  C   UNL     1      41.229 -11.862   5.569  1.00  0.00    -0.061 A 
HETATM   32  C   UNL     1      40.986 -10.573   6.297  1.00  0.00     0.048 C 
HETATM   33  C   UNL     1      41.036 -13.082   6.209  1.00  0.00     0.007 A 
HETATM   34  C   UNL     1      41.312 -14.279   5.544  1.00  0.00     0.011 A 
ENDBRANCH   1  27
TORSDOF 6
ENDMDL
MODEL 8
REMARK VINA RESULT:      -7.6      2.715      5.876
REMARK  6 active torsions:
REMARK  status: ('A' for Active; 'I' for Inactive)
REMARK    1  A    between atoms: C_6  and  C_7 
REMARK    2  A    between atoms: N_8  and  N_9 
REMARK       I    between atoms: N_9  and  C_10 
REMARK    3  A    between atoms: C_10  and  C_11 
REMARK    4  A    between atoms: C_14  and  O_15 
REMARK    5  A    between atoms: O_15  and  C_16 
REMARK    6  A    between atoms: C_16  and  C_17 
ROOT
HETATM    1  C   UNL     1      41.866 -15.784   0.784  1.00  0.00     0.217 C 
HETATM    2  N   UNL     1      40.969 -14.834   1.451  1.00  0.00    -0.247 N 
HETATM    3  C   UNL     1      40.439 -13.800   0.669  1.00  0.00     0.272 C 
HETATM    4  O   UNL     1      39.880 -12.796   1.094  1.00  0.00    -0.266 OA
HETATM    5  C   UNL     1      40.513 -14.000  -0.800  1.00  0.00     0.054 A 
HETATM    6  C   UNL     1      40.828 -15.284  -1.266  1.00  0.00     0.026 A 
HETATM    7  N   UNL     1      41.126 -16.336  -0.359  1.00  0.00    -0.265 NA
HETATM    8  C   UNL     1      40.161 -12.980  -1.687  1.00  0.00     0.019 A 
HETATM    9  C   UNL     1      40.107 -13.250  -3.055  1.00  0.00     0.001 A 
HETATM   10  C   UNL     1      40.375 -14.539  -3.522  1.00  0.00     0.002 A 
HETATM   11  C   UNL     1      40.717 -15.558  -2.629  1.00  0.00     0.024 A 
HETATM   12  H   UNL     1      40.237 -16.692  -0.006  1.00  0.00     0.130 HD
ENDROOT
BRANCH   2  13
HETATM   13  N   UNL     1      40.113 -15.388   2.507  1.00  0.00    -0.163 NA
HETATM   14  C   UNL     1      40.563 -15.256   3.814  1.00  0.00     0.249 C 
HETATM   15  O   UNL     1      40.904 -16.235   4.471  1.00  0.00    -0.272 OA
HETATM   16  H   UNL     1      39.974 -16.386   2.353  1.00  0.00     0.156 HD
BRANCH  14  17
HETATM   17  C   UNL     1      40.494 -13.931   4.458  1.00  0.00     0.028 A 
HETATM   18  C   UNL     1      39.513 -13.667   5.418  1.00  0.00     0.019 A 
HETATM   19  C   UNL     1      39.475 -12.415   6.036  1.00  0.00     0.038 A 
HETATM   20  C   UNL     1      40.401 -11.425   5.694  1.00  0.00     0.069 A 
HETATM   21  C   UNL     1      41.399 -11.707   4.755  1.00  0.00     0.038 A 
HETATM   22  C   UNL     1      41.455 -12.965   4.147  1.00  0.00     0.019 A 
BRANCH  20  23
HETATM   23  O   UNL     1      40.241 -10.239   6.360  1.00  0.00    -0.348 OA
BRANCH  23  24
HETATM   24  C   UNL     1      41.426  -9.633   6.874  1.00  0.00     0.202 C 
BRANCH  24  25
HETATM   25  C   UNL     1      41.719 -10.275   8.198  1.00  0.00    -0.011 C 
HETATM   26  C   UNL     1      40.840 -10.392   9.202  1.00  0.00     0.009 C 
ENDBRANCH  24  25
ENDBRANCH  23  24
ENDBRANCH  20  23
ENDBRANCH  14  17
ENDBRANCH   2  13
BRANCH   1  27
HETATM   27  C   UNL     1      42.495 -16.876   1.652  1.00  0.00    -0.014 A 
HETATM   28  C   UNL     1      43.490 -16.576   2.614  1.00  0.00    -0.052 A 
HETATM   29  C   UNL     1      44.060 -17.618   3.375  1.00  0.00     0.014 A 
HETATM   30  C   UNL     1      43.965 -15.173   2.890  1.00  0.00     0.049 C 
HETATM   31  C   UNL     1      43.693 -18.953   3.181  1.00  0.00    -0.061 A 
HETATM   32  C   UNL     1      44.373 -20.050   3.946  1.00  0.00     0.048 C 
HETATM   33  C   UNL     1      42.743 -19.253   2.210  1.00  0.00     0.007 A 
HETATM   34  C   UNL     1      42.150 -18.232   1.465  1.00  0.00     0.011 A 
ENDBRANCH   1  27
TORSDOF 6
ENDMDL
MODEL 9
REMARK VINA RESULT:      -7.6      2.760      4.552
REMARK  6 active torsions:
REMARK  status: ('A' for Active; 'I' for Inactive)
REMARK    1  A    between atoms: C_6  and  C_7 
REMARK    2  A    between atoms: N_8  and  N_9 
REMARK       I    between atoms: N_9  and  C_10 
REMARK    3  A    between atoms: C_10  and  C_11 
REMARK    4  A    between atoms: C_14  and  O_15 
REMARK    5  A    between atoms: O_15  and  C_16 
REMARK    6  A    between atoms: C_16  and  C_17 
ROOT
HETATM    1  C   UNL     1      41.469 -14.798  -0.543  1.00  0.00     0.217 C 
HETATM    2  N   UNL     1      40.422 -14.649   0.475  1.00  0.00    -0.247 N 
HETATM    3  C   UNL     1      40.185 -15.747   1.312  1.00  0.00     0.272 C 
HETATM    4  O   UNL     1      39.212 -15.894   2.041  1.00  0.00    -0.266 OA
HETATM    5  C   UNL     1      41.259 -16.771   1.350  1.00  0.00     0.054 A 
HETATM    6  C   UNL     1      42.501 -16.432   0.796  1.00  0.00     0.026 A 
HETATM    7  N   UNL     1      42.699 -15.174   0.166  1.00  0.00    -0.265 NA
HETATM    8  C   UNL     1      41.079 -17.982   2.023  1.00  0.00     0.019 A 
HETATM    9  C   UNL     1      42.157 -18.857   2.159  1.00  0.00     0.001 A 
HETATM   10  C   UNL     1      43.409 -18.505   1.648  1.00  0.00     0.002 A 
HETATM   11  C   UNL     1      43.585 -17.289   0.984  1.00  0.00     0.024 A 
HETATM   12  H   UNL     1      42.852 -14.487   0.904  1.00  0.00     0.130 HD
ENDROOT
BRANCH   2  13
HETATM   13  N   UNL     1      40.278 -13.311   1.061  1.00  0.00    -0.163 NA
HETATM   14  C   UNL     1      40.033 -13.247   2.426  1.00  0.00     0.249 C 
HETATM   15  O   UNL     1      38.956 -12.847   2.861  1.00  0.00    -0.272 OA
HETATM   16  H   UNL     1      39.509 -12.816   0.610  1.00  0.00     0.156 HD
BRANCH  14  17
HETATM   17  C   UNL     1      41.137 -13.533   3.359  1.00  0.00     0.028 A 
HETATM   18  C   UNL     1      40.868 -14.062   4.625  1.00  0.00     0.019 A 
HETATM   19  C   UNL     1      41.927 -14.349   5.489  1.00  0.00     0.038 A 
HETATM   20  C   UNL     1      43.248 -14.103   5.102  1.00  0.00     0.069 A 
HETATM   21  C   UNL     1      43.511 -13.603   3.823  1.00  0.00     0.038 A 
HETATM   22  C   UNL     1      42.456 -13.331   2.945  1.00  0.00     0.019 A 
BRANCH  20  23
HETATM   23  O   UNL     1      44.188 -14.411   6.049  1.00  0.00    -0.348 OA
BRANCH  23  24
HETATM   24  C   UNL     1      43.833 -15.417   6.995  1.00  0.00     0.202 C 
BRANCH  24  25
HETATM   25  C   UNL     1      44.484 -16.696   6.556  1.00  0.00    -0.011 C 
HETATM   26  C   UNL     1      43.988 -17.526   5.628  1.00  0.00     0.009 C 
ENDBRANCH  24  25
ENDBRANCH  23  24
ENDBRANCH  20  23
ENDBRANCH  14  17
ENDBRANCH   2  13
BRANCH   1  27
HETATM   27  C   UNL     1      41.684 -13.622  -1.498  1.00  0.00    -0.014 A 
HETATM   28  C   UNL     1      41.142 -13.622  -2.806  1.00  0.00    -0.052 A 
HETATM   29  C   UNL     1      41.387 -12.527  -3.662  1.00  0.00     0.014 A 
HETATM   30  C   UNL     1      40.282 -14.740  -3.336  1.00  0.00     0.049 C 
HETATM   31  C   UNL     1      42.183 -11.450  -3.264  1.00  0.00    -0.061 A 
HETATM   32  C   UNL     1      42.495 -10.337  -4.220  1.00  0.00     0.048 C 
HETATM   33  C   UNL     1      42.748 -11.466  -1.992  1.00  0.00     0.007 A 
HETATM   34  C   UNL     1      42.495 -12.530  -1.123  1.00  0.00     0.011 A 
ENDBRANCH   1  27
TORSDOF 6
ENDMDL
MODEL 10
REMARK VINA RESULT:      -7.5      4.549      8.261
REMARK  6 active torsions:
REMARK  status: ('A' for Active; 'I' for Inactive)
REMARK    1  A    between atoms: C_6  and  C_7 
REMARK    2  A    between atoms: N_8  and  N_9 
REMARK       I    between atoms: N_9  and  C_10 
REMARK    3  A    between atoms: C_10  and  C_11 
REMARK    4  A    between atoms: C_14  and  O_15 
REMARK    5  A    between atoms: O_15  and  C_16 
REMARK    6  A    between atoms: C_16  and  C_17 
ROOT
HETATM    1  C   UNL     1      40.336 -11.941  -2.295  1.00  0.00     0.217 C 
HETATM    2  N   UNL     1      40.701 -12.336  -0.930  1.00  0.00    -0.247 N 
HETATM    3  C   UNL     1      41.883 -11.798  -0.405  1.00  0.00     0.272 C 
HETATM    4  O   UNL     1      42.463 -12.190   0.601  1.00  0.00    -0.266 OA
HETATM    5  C   UNL     1      42.417 -10.606  -1.110  1.00  0.00     0.054 A 
HETATM    6  C   UNL     1      41.576  -9.962  -2.027  1.00  0.00     0.026 A 
HETATM    7  N   UNL     1      40.282 -10.473  -2.313  1.00  0.00    -0.265 NA
HETATM    8  C   UNL     1      43.665 -10.071  -0.782  1.00  0.00     0.019 A 
HETATM    9  C   UNL     1      44.070  -8.870  -1.364  1.00  0.00     0.001 A 
HETATM   10  C   UNL     1      43.218  -8.199  -2.244  1.00  0.00     0.002 A 
HETATM   11  C   UNL     1      41.967  -8.734  -2.561  1.00  0.00     0.024 A 
HETATM   12  H   UNL     1      39.665 -10.179  -1.556  1.00  0.00     0.130 HD
ENDROOT
BRANCH   2  13
HETATM   13  N   UNL     1      39.584 -12.546   0.001  1.00  0.00    -0.163 NA
HETATM   14  C   UNL     1      39.122 -13.848   0.140  1.00  0.00     0.249 C 
HETATM   15  O   UNL     1      38.006 -14.173  -0.257  1.00  0.00    -0.272 OA
HETATM   16  H   UNL     1      38.782 -11.988  -0.289  1.00  0.00     0.156 HD
BRANCH  14  17
HETATM   17  C   UNL     1      39.935 -14.812   0.903  1.00  0.00     0.028 A 
HETATM   18  C   UNL     1      40.905 -15.582   0.255  1.00  0.00     0.019 A 
HETATM   19  C   UNL     1      41.683 -16.474   0.996  1.00  0.00     0.038 A 
HETATM   20  C   UNL     1      41.492 -16.610   2.374  1.00  0.00     0.069 A 
HETATM   21  C   UNL     1      40.542 -15.813   3.021  1.00  0.00     0.038 A 
HETATM   22  C   UNL     1      39.773 -14.904   2.288  1.00  0.00     0.019 A 
BRANCH  20  23
HETATM   23  O   UNL     1      42.307 -17.531   2.976  1.00  0.00    -0.348 OA
BRANCH  23  24
HETATM   24  C   UNL     1      43.697 -17.450   2.669  1.00  0.00     0.202 C 
BRANCH  24  25
HETATM   25  C   UNL     1      44.129 -18.803   2.185  1.00  0.00    -0.011 C 
HETATM   26  C   UNL     1      43.329 -19.874   2.093  1.00  0.00     0.009 C 
ENDBRANCH  24  25
ENDBRANCH  23  24
ENDBRANCH  20  23
ENDBRANCH  14  17
ENDBRANCH   2  13
BRANCH   1  27
HETATM   27  C   UNL     1      39.078 -12.577  -2.891  1.00  0.00    -0.014 A 
HETATM   28  C   UNL     1      39.088 -13.898  -3.402  1.00  0.00    -0.052 A 
HETATM   29  C   UNL     1      37.911 -14.436  -3.965  1.00  0.00     0.014 A 
HETATM   30  C   UNL     1      40.304 -14.786  -3.354  1.00  0.00     0.049 C 
HETATM   31  C   UNL     1      36.737 -13.684  -4.066  1.00  0.00    -0.061 A 
HETATM   32  C   UNL     1      35.523 -14.250  -4.743  1.00  0.00     0.048 C 
HETATM   33  C   UNL     1      36.737 -12.373  -3.599  1.00  0.00     0.007 A 
HETATM   34  C   UNL     1      37.885 -11.833  -3.015  1.00  0.00     0.011 A 
ENDBRANCH   1  27
TORSDOF 6
ENDMDL
