MODEL 1
REMARK VINA RESULT:      -8.8      0.000      0.000
REMARK  6 active torsions:
REMARK  status: ('A' for Active; 'I' for Inactive)
REMARK    1  A    between atoms: C_2  and  C_3 
REMARK    2  A    between atoms: C_3  and  N_4 
REMARK       I    between atoms: N_4  and  C_5 
REMARK    3  A    between atoms: C_5  and  C_6 
REMARK    4  A    between atoms: C_8  and  C_9 
REMARK    5  A    between atoms: C_9  and  N_10 
REMARK       I    between atoms: N_10  and  C_11 
REMARK    6  A    between atoms: C_11  and  C_12 
ROOT
HETATM    1  C   UNL     1      44.398 -13.361   7.113  1.00  0.00     0.161 C 
ENDROOT
BRANCH   1   2
HETATM    2  C   UNL     1      44.637 -12.395   8.240  1.00  0.00    -0.040 A 
HETATM    3  C   UNL     1      43.553 -11.791   8.891  1.00  0.00     0.026 A 
HETATM    4  C   UNL     1      43.767 -10.979  10.009  1.00  0.00     0.032 A 
HETATM    5  C   UNL     1      45.063 -10.726  10.466  1.00  0.00     0.017 A 
HETATM    6  C   UNL     1      46.149 -11.295   9.800  1.00  0.00     0.002 A 
HETATM    7  C   UNL     1      45.937 -12.129   8.698  1.00  0.00     0.009 A 
BRANCH   4   8
HETATM    8  C   UNL     1      42.583 -10.439  10.714  1.00  0.00     0.252 C 
HETATM    9  N   UNL     1      42.450 -10.863  12.019  1.00  0.00    -0.353 N 
HETATM   10  H   UNL     1      43.101 -11.562  12.355  1.00  0.00     0.163 HD
HETATM   11  O   UNL     1      41.781  -9.742  10.110  1.00  0.00    -0.268 OA
BRANCH   9  12
HETATM   12  C   UNL     1      41.265 -10.619  12.833  1.00  0.00     0.080 C 
HETATM   13  C   UNL     1      40.289 -11.794  12.774  1.00  0.00     0.032 C 
BRANCH  12  14
HETATM   14  C   UNL     1      41.594 -10.243  14.289  1.00  0.00     0.020 C 
HETATM   15  C   UNL     1      42.859  -9.406  14.417  1.00  0.00     0.007 C 
ENDBRANCH  12  14
ENDBRANCH   9  12
ENDBRANCH   4   8
ENDBRANCH   1   2
BRANCH   1  16
HETATM   16  N   UNL     1      44.127 -14.696   7.566  1.00  0.00    -0.351 N 
HETATM   17  C   UNL     1      43.569 -15.607   6.692  1.00  0.00     0.273 C 
HETATM   18  O   UNL     1      43.103 -15.283   5.604  1.00  0.00    -0.266 OA
HETATM   19  H   UNL     1      44.624 -15.093   8.358  1.00  0.00     0.163 HD
BRANCH  17  20
HETATM   20  C   UNL     1      43.621 -17.000   7.162  1.00  0.00     0.157 A 
HETATM   21  N   UNL     1      43.485 -17.319   8.468  1.00  0.00    -0.168 NA
HETATM   22  N   UNL     1      43.603 -18.661   8.482  1.00  0.00    -0.277 N 
HETATM   23  H   UNL     1      43.527 -19.140   9.372  1.00  0.00     0.189 HD
HETATM   24  C   UNL     1      43.831 -19.223   7.256  1.00  0.00     0.063 A 
HETATM   25  C   UNL     1      43.845 -18.161   6.364  1.00  0.00     0.029 A 
HETATM   26  C   UNL     1      44.030 -20.550   6.864  1.00  0.00     0.032 A 
HETATM   27  C   UNL     1      44.070 -18.422   4.998  1.00  0.00     0.023 A 
HETATM   28  C   UNL     1      44.274 -19.745   4.569  1.00  0.00    -0.061 A 
HETATM   29  C   UNL     1      44.257 -20.788   5.501  1.00  0.00     0.009 A 
HETATM   30  C   UNL     1      44.546 -20.011   3.116  1.00  0.00     0.048 C 
ENDBRANCH  17  20
ENDBRANCH   1  16
TORSDOF 6
ENDMDL
MODEL 2
REMARK VINA RESULT:      -8.8      4.758      6.995
REMARK  6 active torsions:
REMARK  status: ('A' for Active; 'I' for Inactive)
REMARK    1  A    between atoms: C_2  and  C_3 
REMARK    2  A    between atoms: C_3  and  N_4 
REMARK       I    between atoms: N_4  and  C_5 
REMARK    3  A    between atoms: C_5  and  C_6 
REMARK    4  A    between atoms: C_8  and  C_9 
REMARK    5  A    between atoms: C_9  and  N_10 
REMARK       I    between atoms: N_10  and  C_11 
REMARK    6  A    between atoms: C_11  and  C_12 
ROOT
HETATM    1  C   UNL     1      44.377 -17.395   7.338  1.00  0.00     0.161 C 
ENDROOT
BRANCH   1   2
HETATM    2  C   UNL     1      44.105 -16.098   6.629  1.00  0.00    -0.040 A 
HETATM    3  C   UNL     1      43.555 -16.102   5.340  1.00  0.00     0.026 A 
HETATM    4  C   UNL     1      43.199 -14.899   4.722  1.00  0.00     0.032 A 
HETATM    5  C   UNL     1      43.424 -13.678   5.363  1.00  0.00     0.017 A 
HETATM    6  C   UNL     1      44.004 -13.665   6.631  1.00  0.00     0.002 A 
HETATM    7  C   UNL     1      44.337 -14.867   7.262  1.00  0.00     0.009 A 
BRANCH   4   8
HETATM    8  C   UNL     1      42.539 -14.965   3.399  1.00  0.00     0.252 C 
HETATM    9  N   UNL     1      41.260 -15.479   3.420  1.00  0.00    -0.353 N 
HETATM   10  H   UNL     1      40.917 -15.848   4.298  1.00  0.00     0.163 HD
HETATM   11  O   UNL     1      43.159 -14.647   2.394  1.00  0.00    -0.268 OA
BRANCH   9  12
HETATM   12  C   UNL     1      40.503 -15.818   2.220  1.00  0.00     0.080 C 
HETATM   13  C   UNL     1      40.273 -17.324   2.105  1.00  0.00     0.032 C 
BRANCH  12  14
HETATM   14  C   UNL     1      39.179 -15.044   2.099  1.00  0.00     0.020 C 
HETATM   15  C   UNL     1      39.358 -13.641   1.533  1.00  0.00     0.007 C 
ENDBRANCH  12  14
ENDBRANCH   9  12
ENDBRANCH   4   8
ENDBRANCH   1   2
BRANCH   1  16
HETATM   16  N   UNL     1      44.716 -18.464   6.442  1.00  0.00    -0.351 N 
HETATM   17  C   UNL     1      44.196 -19.724   6.663  1.00  0.00     0.273 C 
HETATM   18  O   UNL     1      43.620 -20.030   7.703  1.00  0.00    -0.266 OA
HETATM   19  H   UNL     1      45.024 -18.275   5.492  1.00  0.00     0.163 HD
BRANCH  17  20
HETATM   20  C   UNL     1      44.358 -20.648   5.530  1.00  0.00     0.157 A 
HETATM   21  N   UNL     1      44.696 -21.944   5.708  1.00  0.00    -0.168 NA
HETATM   22  N   UNL     1      44.754 -22.432   4.454  1.00  0.00    -0.277 N 
HETATM   23  H   UNL     1      44.989 -23.410   4.330  1.00  0.00     0.189 HD
HETATM   24  C   UNL     1      44.494 -21.513   3.474  1.00  0.00     0.063 A 
HETATM   25  C   UNL     1      44.225 -20.330   4.146  1.00  0.00     0.029 A 
HETATM   26  C   UNL     1      44.480 -21.618   2.081  1.00  0.00     0.032 A 
HETATM   27  C   UNL     1      43.924 -19.175   3.397  1.00  0.00     0.023 A 
HETATM   28  C   UNL     1      43.901 -19.245   1.993  1.00  0.00    -0.061 A 
HETATM   29  C   UNL     1      44.183 -20.457   1.354  1.00  0.00     0.009 A 
HETATM   30  C   UNL     1      43.611 -18.002   1.202  1.00  0.00     0.048 C 
ENDBRANCH  17  20
ENDBRANCH   1  16
TORSDOF 6
ENDMDL
MODEL 3
REMARK VINA RESULT:      -8.6      2.510      9.614
REMARK  6 active torsions:
REMARK  status: ('A' for Active; 'I' for Inactive)
REMARK    1  A    between atoms: C_2  and  C_3 
REMARK    2  A    between atoms: C_3  and  N_4 
REMARK       I    between atoms: N_4  and  C_5 
REMARK    3  A    between atoms: C_5  and  C_6 
REMARK    4  A    between atoms: C_8  and  C_9 
REMARK    5  A    between atoms: C_9  and  N_10 
REMARK       I    between atoms: N_10  and  C_11 
REMARK    6  A    between atoms: C_11  and  C_12 
ROOT
HETATM    1  C   UNL     1      44.598 -14.278   6.857  1.00  0.00     0.161 C 
ENDROOT
BRANCH   1   2
HETATM    2  C   UNL     1      43.846 -15.576   6.754  1.00  0.00    -0.040 A 
HETATM    3  C   UNL     1      43.350 -16.005   5.516  1.00  0.00     0.026 A 
HETATM    4  C   UNL     1      42.747 -17.261   5.396  1.00  0.00     0.032 A 
HETATM    5  C   UNL     1      42.595 -18.085   6.514  1.00  0.00     0.017 A 
HETATM    6  C   UNL     1      43.054 -17.647   7.757  1.00  0.00     0.002 A 
HETATM    7  C   UNL     1      43.680 -16.404   7.875  1.00  0.00     0.009 A 
BRANCH   4   8
HETATM    8  C   UNL     1      42.323 -17.704   4.050  1.00  0.00     0.252 C 
HETATM    9  N   UNL     1      43.164 -18.620   3.455  1.00  0.00    -0.353 N 
HETATM   10  H   UNL     1      44.029 -18.842   3.932  1.00  0.00     0.163 HD
HETATM   11  O   UNL     1      41.338 -17.202   3.527  1.00  0.00    -0.268 OA
BRANCH   9  12
HETATM   12  C   UNL     1      43.051 -19.041   2.063  1.00  0.00     0.080 C 
HETATM   13  C   UNL     1      43.678 -18.021   1.113  1.00  0.00     0.032 C 
BRANCH  12  14
HETATM   14  C   UNL     1      43.607 -20.453   1.807  1.00  0.00     0.020 C 
HETATM   15  C   UNL     1      44.480 -20.965   2.945  1.00  0.00     0.007 C 
ENDBRANCH  12  14
ENDBRANCH   9  12
ENDBRANCH   4   8
ENDBRANCH   1   2
BRANCH   1  16
HETATM   16  N   UNL     1      44.297 -13.549   8.056  1.00  0.00    -0.351 N 
HETATM   17  C   UNL     1      45.187 -12.595   8.510  1.00  0.00     0.273 C 
HETATM   18  O   UNL     1      46.321 -12.477   8.055  1.00  0.00    -0.266 OA
HETATM   19  H   UNL     1      43.341 -13.451   8.386  1.00  0.00     0.163 HD
BRANCH  17  20
HETATM   20  C   UNL     1      44.641 -11.712   9.552  1.00  0.00     0.157 A 
HETATM   21  N   UNL     1      45.223 -11.594  10.765  1.00  0.00    -0.168 NA
HETATM   22  N   UNL     1      44.429 -10.722  11.415  1.00  0.00    -0.277 N 
HETATM   23  H   UNL     1      44.673 -10.467  12.366  1.00  0.00     0.189 HD
HETATM   24  C   UNL     1      43.351 -10.288  10.694  1.00  0.00     0.063 A 
HETATM   25  C   UNL     1      43.461 -10.916   9.461  1.00  0.00     0.029 A 
HETATM   26  C   UNL     1      42.304  -9.420  11.016  1.00  0.00     0.032 A 
HETATM   27  C   UNL     1      42.476 -10.673   8.484  1.00  0.00     0.023 A 
HETATM   28  C   UNL     1      41.409  -9.805   8.774  1.00  0.00    -0.061 A 
HETATM   29  C   UNL     1      41.333  -9.196  10.031  1.00  0.00     0.009 A 
HETATM   30  C   UNL     1      40.346  -9.577   7.738  1.00  0.00     0.048 C 
ENDBRANCH  17  20
ENDBRANCH   1  16
TORSDOF 6
ENDMDL
MODEL 4
REMARK VINA RESULT:      -8.6      4.645      8.796
REMARK  6 active torsions:
REMARK  status: ('A' for Active; 'I' for Inactive)
REMARK    1  A    between atoms: C_2  and  C_3 
REMARK    2  A    between atoms: C_3  and  N_4 
REMARK       I    between atoms: N_4  and  C_5 
REMARK    3  A    between atoms: C_5  and  C_6 
REMARK    4  A    between atoms: C_8  and  C_9 
REMARK    5  A    between atoms: C_9  and  N_10 
REMARK       I    between atoms: N_10  and  C_11 
REMARK    6  A    between atoms: C_11  and  C_12 
ROOT
HETATM    1  C   UNL     1      44.117 -15.108   7.221  1.00  0.00     0.161 C 
ENDROOT
BRANCH   1   2
HETATM    2  C   UNL     1      43.979 -16.602   7.129  1.00  0.00    -0.040 A 
HETATM    3  C   UNL     1      44.228 -17.259   5.916  1.00  0.00     0.026 A 
HETATM    4  C   UNL     1      44.207 -18.655   5.854  1.00  0.00     0.032 A 
HETATM    5  C   UNL     1      43.899 -19.412   6.988  1.00  0.00     0.017 A 
HETATM    6  C   UNL     1      43.614 -18.763   8.189  1.00  0.00     0.002 A 
HETATM    7  C   UNL     1      43.659 -17.368   8.261  1.00  0.00     0.009 A 
BRANCH   4   8
HETATM    8  C   UNL     1      44.567 -19.301   4.572  1.00  0.00     0.252 C 
HETATM    9  N   UNL     1      43.974 -18.741   3.461  1.00  0.00    -0.353 N 
HETATM   10  H   UNL     1      43.288 -18.012   3.612  1.00  0.00     0.163 HD
HETATM   11  O   UNL     1      45.275 -20.298   4.572  1.00  0.00    -0.268 OA
BRANCH   9  12
HETATM   12  C   UNL     1      44.027 -19.333   2.129  1.00  0.00     0.080 C 
HETATM   13  C   UNL     1      43.121 -20.558   2.020  1.00  0.00     0.032 C 
BRANCH  12  14
HETATM   14  C   UNL     1      43.736 -18.324   1.003  1.00  0.00     0.020 C 
HETATM   15  C   UNL     1      44.124 -16.897   1.366  1.00  0.00     0.007 C 
ENDBRANCH  12  14
ENDBRANCH   9  12
ENDBRANCH   4   8
ENDBRANCH   1   2
BRANCH   1  16
HETATM   16  N   UNL     1      43.053 -14.405   6.562  1.00  0.00    -0.351 N 
HETATM   17  C   UNL     1      43.296 -13.788   5.351  1.00  0.00     0.273 C 
HETATM   18  O   UNL     1      44.428 -13.635   4.901  1.00  0.00    -0.266 OA
HETATM   19  H   UNL     1      42.080 -14.622   6.758  1.00  0.00     0.163 HD
BRANCH  17  20
HETATM   20  C   UNL     1      42.081 -13.371   4.634  1.00  0.00     0.157 A 
HETATM   21  N   UNL     1      41.549 -12.139   4.787  1.00  0.00    -0.168 NA
HETATM   22  N   UNL     1      40.464 -12.161   3.990  1.00  0.00    -0.277 N 
HETATM   23  H   UNL     1      39.892 -11.325   3.933  1.00  0.00     0.189 HD
HETATM   24  C   UNL     1      40.254 -13.350   3.347  1.00  0.00     0.063 A 
HETATM   25  C   UNL     1      41.302 -14.169   3.745  1.00  0.00     0.029 A 
HETATM   26  C   UNL     1      39.248 -13.771   2.473  1.00  0.00     0.032 A 
HETATM   27  C   UNL     1      41.362 -15.486   3.250  1.00  0.00     0.023 A 
HETATM   28  C   UNL     1      40.366 -15.943   2.369  1.00  0.00    -0.061 A 
HETATM   29  C   UNL     1      39.324 -15.087   1.996  1.00  0.00     0.009 A 
HETATM   30  C   UNL     1      40.419 -17.358   1.871  1.00  0.00     0.048 C 
ENDBRANCH  17  20
ENDBRANCH   1  16
TORSDOF 6
ENDMDL
MODEL 5
REMARK VINA RESULT:      -8.5      3.374      6.028
REMARK  6 active torsions:
REMARK  status: ('A' for Active; 'I' for Inactive)
REMARK    1  A    between atoms: C_2  and  C_3 
REMARK    2  A    between atoms: C_3  and  N_4 
REMARK       I    between atoms: N_4  and  C_5 
REMARK    3  A    between atoms: C_5  and  C_6 
REMARK    4  A    between atoms: C_8  and  C_9 
REMARK    5  A    between atoms: C_9  and  N_10 
REMARK       I    between atoms: N_10  and  C_11 
REMARK    6  A    between atoms: C_11  and  C_12 
ROOT
HETATM    1  C   UNL     1      41.832 -16.583   1.925  1.00  0.00     0.161 C 
ENDROOT
BRANCH   1   2
HETATM    2  C   UNL     1      41.564 -15.863   3.217  1.00  0.00    -0.040 A 
HETATM    3  C   UNL     1      42.537 -15.840   4.225  1.00  0.00     0.026 A 
HETATM    4  C   UNL     1      42.335 -15.081   5.382  1.00  0.00     0.032 A 
HETATM    5  C   UNL     1      41.146 -14.369   5.566  1.00  0.00     0.017 A 
HETATM    6  C   UNL     1      40.158 -14.418   4.582  1.00  0.00     0.002 A 
HETATM    7  C   UNL     1      40.368 -15.154   3.413  1.00  0.00     0.009 A 
BRANCH   4   8
HETATM    8  C   UNL     1      43.431 -15.018   6.374  1.00  0.00     0.252 C 
HETATM    9  N   UNL     1      43.594 -13.787   6.972  1.00  0.00    -0.353 N 
HETATM   10  H   UNL     1      43.029 -13.020   6.630  1.00  0.00     0.163 HD
HETATM   11  O   UNL     1      44.151 -15.991   6.547  1.00  0.00    -0.268 OA
BRANCH   9  12
HETATM   12  C   UNL     1      44.727 -13.443   7.824  1.00  0.00     0.080 C 
HETATM   13  C   UNL     1      46.006 -13.249   7.011  1.00  0.00     0.032 C 
BRANCH  12  14
HETATM   14  C   UNL     1      44.458 -12.232   8.734  1.00  0.00     0.020 C 
HETATM   15  C   UNL     1      45.525 -12.040   9.804  1.00  0.00     0.007 C 
ENDBRANCH  12  14
ENDBRANCH   9  12
ENDBRANCH   4   8
ENDBRANCH   1   2
BRANCH   1  16
HETATM   16  N   UNL     1      42.265 -17.938   2.117  1.00  0.00    -0.351 N 
HETATM   17  C   UNL     1      43.583 -18.269   1.870  1.00  0.00     0.273 C 
HETATM   18  O   UNL     1      44.361 -17.511   1.298  1.00  0.00    -0.266 OA
HETATM   19  H   UNL     1      41.762 -18.567   2.735  1.00  0.00     0.163 HD
BRANCH  17  20
HETATM   20  C   UNL     1      43.977 -19.588   2.387  1.00  0.00     0.157 A 
HETATM   21  N   UNL     1      44.260 -20.622   1.565  1.00  0.00    -0.168 NA
HETATM   22  N   UNL     1      44.557 -21.628   2.410  1.00  0.00    -0.277 N 
HETATM   23  H   UNL     1      44.813 -22.527   2.016  1.00  0.00     0.189 HD
HETATM   24  C   UNL     1      44.458 -21.304   3.735  1.00  0.00     0.063 A 
HETATM   25  C   UNL     1      44.083 -19.969   3.757  1.00  0.00     0.029 A 
HETATM   26  C   UNL     1      44.656 -22.059   4.895  1.00  0.00     0.032 A 
HETATM   27  C   UNL     1      43.890 -19.336   5.001  1.00  0.00     0.023 A 
HETATM   28  C   UNL     1      44.080 -20.066   6.188  1.00  0.00    -0.061 A 
HETATM   29  C   UNL     1      44.454 -21.412   6.122  1.00  0.00     0.009 A 
HETATM   30  C   UNL     1      43.840 -19.394   7.509  1.00  0.00     0.048 C 
ENDBRANCH  17  20
ENDBRANCH   1  16
TORSDOF 6
ENDMDL
MODEL 6
REMARK VINA RESULT:      -8.5      1.899      2.573
REMARK  6 active torsions:
REMARK  status: ('A' for Active; 'I' for Inactive)
REMARK    1  A    between atoms: C_2  and  C_3 
REMARK    2  A    between atoms: C_3  and  N_4 
REMARK       I    between atoms: N_4  and  C_5 
REMARK    3  A    between atoms: C_5  and  C_6 
REMARK    4  A    between atoms: C_8  and  C_9 
REMARK    5  A    between atoms: C_9  and  N_10 
REMARK       I    between atoms: N_10  and  C_11 
REMARK    6  A    between atoms: C_11  and  C_12 
ROOT
HETATM    1  C   UNL     1      43.233 -14.399   6.386  1.00  0.00     0.161 C 
ENDROOT
BRANCH   1   2
HETATM    2  C   UNL     1      44.217 -13.530   7.119  1.00  0.00    -0.040 A 
HETATM    3  C   UNL     1      43.787 -12.718   8.177  1.00  0.00     0.026 A 
HETATM    4  C   UNL     1      44.716 -11.993   8.931  1.00  0.00     0.032 A 
HETATM    5  C   UNL     1      46.076 -12.037   8.613  1.00  0.00     0.017 A 
HETATM    6  C   UNL     1      46.506 -12.814   7.538  1.00  0.00     0.002 A 
HETATM    7  C   UNL     1      45.583 -13.560   6.799  1.00  0.00     0.009 A 
BRANCH   4   8
HETATM    8  C   UNL     1      44.221 -11.224  10.094  1.00  0.00     0.252 C 
HETATM    9  N   UNL     1      42.997 -11.637  10.576  1.00  0.00    -0.353 N 
HETATM   10  H   UNL     1      42.504 -12.351  10.056  1.00  0.00     0.163 HD
HETATM   11  O   UNL     1      44.855 -10.261  10.500  1.00  0.00    -0.268 OA
BRANCH   9  12
HETATM   12  C   UNL     1      42.233 -10.904  11.580  1.00  0.00     0.080 C 
HETATM   13  C   UNL     1      40.729 -11.110  11.404  1.00  0.00     0.032 C 
BRANCH  12  14
HETATM   14  C   UNL     1      42.671 -11.214  13.023  1.00  0.00     0.020 C 
HETATM   15  C   UNL     1      42.737  -9.974  13.905  1.00  0.00     0.007 C 
ENDBRANCH  12  14
ENDBRANCH   9  12
ENDBRANCH   4   8
ENDBRANCH   1   2
BRANCH   1  16
HETATM   16  N   UNL     1      43.831 -15.579   5.831  1.00  0.00    -0.351 N 
HETATM   17  C   UNL     1      43.635 -16.795   6.455  1.00  0.00     0.273 C 
HETATM   18  O   UNL     1      43.143 -16.894   7.576  1.00  0.00    -0.266 OA
HETATM   19  H   UNL     1      44.091 -15.625   4.850  1.00  0.00     0.163 HD
BRANCH  17  20
HETATM   20  C   UNL     1      44.028 -17.957   5.643  1.00  0.00     0.157 A 
HETATM   21  N   UNL     1      44.941 -18.855   6.075  1.00  0.00    -0.168 NA
HETATM   22  N   UNL     1      45.027 -19.735   5.059  1.00  0.00    -0.277 N 
HETATM   23  H   UNL     1      45.660 -20.521   5.157  1.00  0.00     0.189 HD
HETATM   24  C   UNL     1      44.234 -19.441   3.984  1.00  0.00     0.063 A 
HETATM   25  C   UNL     1      43.560 -18.280   4.335  1.00  0.00     0.029 A 
HETATM   26  C   UNL     1      44.060 -20.079   2.753  1.00  0.00     0.032 A 
HETATM   27  C   UNL     1      42.657 -17.712   3.414  1.00  0.00     0.023 A 
HETATM   28  C   UNL     1      42.459 -18.328   2.166  1.00  0.00    -0.061 A 
HETATM   29  C   UNL     1      43.162 -19.495   1.849  1.00  0.00     0.009 A 
HETATM   30  C   UNL     1      41.521 -17.698   1.178  1.00  0.00     0.048 C 
ENDBRANCH  17  20
ENDBRANCH   1  16
TORSDOF 6
ENDMDL
MODEL 7
REMARK VINA RESULT:      -8.5      2.606      3.971
REMARK  6 active torsions:
REMARK  status: ('A' for Active; 'I' for Inactive)
REMARK    1  A    between atoms: C_2  and  C_3 
REMARK    2  A    between atoms: C_3  and  N_4 
REMARK       I    between atoms: N_4  and  C_5 
REMARK    3  A    between atoms: C_5  and  C_6 
REMARK    4  A    between atoms: C_8  and  C_9 
REMARK    5  A    between atoms: C_9  and  N_10 
REMARK       I    between atoms: N_10  and  C_11 
REMARK    6  A    between atoms: C_11  and  C_12 
ROOT
HETATM    1  C   UNL     1      42.275 -14.492   4.086  1.00  0.00     0.161 C 
ENDROOT
BRANCH   1   2
HETATM    2  C   UNL     1      41.467 -13.650   5.034  1.00  0.00    -0.040 A 
HETATM    3  C   UNL     1      42.108 -12.764   5.910  1.00  0.00     0.026 A 
HETATM    4  C   UNL     1      41.357 -11.901   6.714  1.00  0.00     0.032 A 
HETATM    5  C   UNL     1      39.961 -11.939   6.684  1.00  0.00     0.017 A 
HETATM    6  C   UNL     1      39.316 -12.845   5.841  1.00  0.00     0.002 A 
HETATM    7  C   UNL     1      40.064 -13.690   5.018  1.00  0.00     0.009 A 
BRANCH   4   8
HETATM    8  C   UNL     1      42.083 -10.922   7.553  1.00  0.00     0.252 C 
HETATM    9  N   UNL     1      42.773 -11.473   8.611  1.00  0.00    -0.353 N 
HETATM   10  H   UNL     1      42.658 -12.464   8.782  1.00  0.00     0.163 HD
HETATM   11  O   UNL     1      41.976  -9.726   7.322  1.00  0.00    -0.268 OA
BRANCH   9  12
HETATM   12  C   UNL     1      43.389 -10.687   9.674  1.00  0.00     0.080 C 
HETATM   13  C   UNL     1      42.724 -10.946  11.025  1.00  0.00     0.032 C 
BRANCH  12  14
HETATM   14  C   UNL     1      44.915 -10.873   9.762  1.00  0.00     0.020 C 
HETATM   15  C   UNL     1      45.326 -11.980  10.723  1.00  0.00     0.007 C 
ENDBRANCH  12  14
ENDBRANCH   9  12
ENDBRANCH   4   8
ENDBRANCH   1   2
BRANCH   1  16
HETATM   16  N   UNL     1      42.573 -15.795   4.608  1.00  0.00    -0.351 N 
HETATM   17  C   UNL     1      43.358 -16.658   3.869  1.00  0.00     0.273 C 
HETATM   18  O   UNL     1      43.649 -16.448   2.695  1.00  0.00    -0.266 OA
HETATM   19  H   UNL     1      42.532 -15.983   5.606  1.00  0.00     0.163 HD
BRANCH  17  20
HETATM   20  C   UNL     1      43.844 -17.823   4.623  1.00  0.00     0.157 A 
HETATM   21  N   UNL     1      44.198 -17.736   5.924  1.00  0.00    -0.168 NA
HETATM   22  N   UNL     1      44.590 -18.987   6.232  1.00  0.00    -0.277 N 
HETATM   23  H   UNL     1      44.902 -19.173   7.179  1.00  0.00     0.189 HD
HETATM   24  C   UNL     1      44.531 -19.873   5.192  1.00  0.00     0.063 A 
HETATM   25  C   UNL     1      44.040 -19.143   4.118  1.00  0.00     0.029 A 
HETATM   26  C   UNL     1      44.866 -21.227   5.102  1.00  0.00     0.032 A 
HETATM   27  C   UNL     1      43.870 -19.788   2.878  1.00  0.00     0.023 A 
HETATM   28  C   UNL     1      44.199 -21.149   2.752  1.00  0.00    -0.061 A 
HETATM   29  C   UNL     1      44.694 -21.848   3.858  1.00  0.00     0.009 A 
HETATM   30  C   UNL     1      44.045 -21.820   1.418  1.00  0.00     0.048 C 
ENDBRANCH  17  20
ENDBRANCH   1  16
TORSDOF 6
ENDMDL
MODEL 8
REMARK VINA RESULT:      -8.5      5.602      9.492
REMARK  6 active torsions:
REMARK  status: ('A' for Active; 'I' for Inactive)
REMARK    1  A    between atoms: C_2  and  C_3 
REMARK    2  A    between atoms: C_3  and  N_4 
REMARK       I    between atoms: N_4  and  C_5 
REMARK    3  A    between atoms: C_5  and  C_6 
REMARK    4  A    between atoms: C_8  and  C_9 
REMARK    5  A    between atoms: C_9  and  N_10 
REMARK       I    between atoms: N_10  and  C_11 
REMARK    6  A    between atoms: C_11  and  C_12 
ROOT
HETATM    1  C   UNL     1      42.101 -13.511   4.343  1.00  0.00     0.161 C 
ENDROOT
BRANCH   1   2
HETATM    2  C   UNL     1      42.855 -14.512   5.174  1.00  0.00    -0.040 A 
HETATM    3  C   UNL     1      42.794 -15.876   4.860  1.00  0.00     0.026 A 
HETATM    4  C   UNL     1      43.579 -16.796   5.562  1.00  0.00     0.032 A 
HETATM    5  C   UNL     1      44.402 -16.374   6.609  1.00  0.00     0.017 A 
HETATM    6  C   UNL     1      44.439 -15.022   6.951  1.00  0.00     0.002 A 
HETATM    7  C   UNL     1      43.676 -14.097   6.234  1.00  0.00     0.009 A 
BRANCH   4   8
HETATM    8  C   UNL     1      43.546 -18.211   5.130  1.00  0.00     0.252 C 
HETATM    9  N   UNL     1      43.733 -18.404   3.778  1.00  0.00    -0.353 N 
HETATM   10  H   UNL     1      43.784 -17.583   3.190  1.00  0.00     0.163 HD
HETATM   11  O   UNL     1      43.291 -19.089   5.943  1.00  0.00    -0.268 OA
BRANCH   9  12
HETATM   12  C   UNL     1      43.543 -19.686   3.109  1.00  0.00     0.080 C 
HETATM   13  C   UNL     1      42.852 -19.519   1.756  1.00  0.00     0.032 C 
BRANCH  12  14
HETATM   14  C   UNL     1      44.844 -20.498   2.972  1.00  0.00     0.020 C 
HETATM   15  C   UNL     1      44.664 -21.781   2.171  1.00  0.00     0.007 C 
ENDBRANCH  12  14
ENDBRANCH   9  12
ENDBRANCH   4   8
ENDBRANCH   1   2
BRANCH   1  16
HETATM   16  N   UNL     1      41.523 -14.085   3.161  1.00  0.00    -0.351 N 
HETATM   17  C   UNL     1      41.997 -13.704   1.921  1.00  0.00     0.273 C 
HETATM   18  O   UNL     1      42.750 -12.747   1.765  1.00  0.00    -0.266 OA
HETATM   19  H   UNL     1      41.044 -14.981   3.192  1.00  0.00     0.163 HD
BRANCH  17  20
HETATM   20  C   UNL     1      41.554 -14.569   0.817  1.00  0.00     0.157 A 
HETATM   21  N   UNL     1      41.088 -15.819   1.030  1.00  0.00    -0.168 NA
HETATM   22  N   UNL     1      40.807 -16.269  -0.207  1.00  0.00    -0.277 N 
HETATM   23  H   UNL     1      40.430 -17.205  -0.304  1.00  0.00     0.189 HD
HETATM   24  C   UNL     1      41.089 -15.384  -1.212  1.00  0.00     0.063 A 
HETATM   25  C   UNL     1      41.578 -14.253  -0.574  1.00  0.00     0.029 A 
HETATM   26  C   UNL     1      40.966 -15.482  -2.600  1.00  0.00     0.032 A 
HETATM   27  C   UNL     1      41.971 -13.148  -1.354  1.00  0.00     0.023 A 
HETATM   28  C   UNL     1      41.861 -13.213  -2.755  1.00  0.00    -0.061 A 
HETATM   29  C   UNL     1      41.367 -14.374  -3.359  1.00  0.00     0.009 A 
HETATM   30  C   UNL     1      42.312 -12.043  -3.581  1.00  0.00     0.048 C 
ENDBRANCH  17  20
ENDBRANCH   1  16
TORSDOF 6
ENDMDL
MODEL 9
REMARK VINA RESULT:      -8.4      2.297     10.032
REMARK  6 active torsions:
REMARK  status: ('A' for Active; 'I' for Inactive)
REMARK    1  A    between atoms: C_2  and  C_3 
REMARK    2  A    between atoms: C_3  and  N_4 
REMARK       I    between atoms: N_4  and  C_5 
REMARK    3  A    between atoms: C_5  and  C_6 
REMARK    4  A    between atoms: C_8  and  C_9 
REMARK    5  A    between atoms: C_9  and  N_10 
REMARK       I    between atoms: N_10  and  C_11 
REMARK    6  A    between atoms: C_11  and  C_12 
ROOT
HETATM    1  C   UNL     1      44.745 -13.798   7.694  1.00  0.00     0.161 C 
ENDROOT
BRANCH   1   2
HETATM    2  C   UNL     1      44.246 -14.511   6.468  1.00  0.00    -0.040 A 
HETATM    3  C   UNL     1      44.300 -15.909   6.396  1.00  0.00     0.026 A 
HETATM    4  C   UNL     1      43.737 -16.581   5.307  1.00  0.00     0.032 A 
HETATM    5  C   UNL     1      43.151 -15.867   4.259  1.00  0.00     0.017 A 
HETATM    6  C   UNL     1      43.126 -14.473   4.307  1.00  0.00     0.002 A 
HETATM    7  C   UNL     1      43.664 -13.800   5.407  1.00  0.00     0.009 A 
BRANCH   4   8
HETATM    8  C   UNL     1      43.740 -18.061   5.324  1.00  0.00     0.252 C 
HETATM    9  N   UNL     1      44.226 -18.647   4.175  1.00  0.00    -0.353 N 
HETATM   10  H   UNL     1      44.449 -18.040   3.396  1.00  0.00     0.163 HD
HETATM   11  O   UNL     1      43.263 -18.659   6.278  1.00  0.00    -0.268 OA
BRANCH   9  12
HETATM   12  C   UNL     1      44.138 -20.076   3.894  1.00  0.00     0.080 C 
HETATM   13  C   UNL     1      44.066 -20.352   2.393  1.00  0.00     0.032 C 
BRANCH  12  14
HETATM   14  C   UNL     1      45.259 -20.896   4.557  1.00  0.00     0.020 C 
HETATM   15  C   UNL     1      44.781 -22.242   5.084  1.00  0.00     0.007 C 
ENDBRANCH  12  14
ENDBRANCH   9  12
ENDBRANCH   4   8
ENDBRANCH   1   2
BRANCH   1  16
HETATM   16  N   UNL     1      43.784 -12.883   8.241  1.00  0.00    -0.351 N 
HETATM   17  C   UNL     1      44.223 -11.722   8.846  1.00  0.00     0.273 C 
HETATM   18  O   UNL     1      45.402 -11.524   9.124  1.00  0.00    -0.266 OA
HETATM   19  H   UNL     1      42.823 -12.871   7.912  1.00  0.00     0.163 HD
BRANCH  17  20
HETATM   20  C   UNL     1      43.161 -10.733   9.089  1.00  0.00     0.157 A 
HETATM   21  N   UNL     1      42.347 -10.302   8.101  1.00  0.00    -0.168 NA
HETATM   22  N   UNL     1      41.543  -9.414   8.717  1.00  0.00    -0.277 N 
HETATM   23  H   UNL     1      40.828  -8.951   8.167  1.00  0.00     0.189 HD
HETATM   24  C   UNL     1      41.810  -9.231  10.046  1.00  0.00     0.063 A 
HETATM   25  C   UNL     1      42.867 -10.086  10.326  1.00  0.00     0.029 A 
HETATM   26  C   UNL     1      41.230  -8.399  11.006  1.00  0.00     0.032 A 
HETATM   27  C   UNL     1      43.384 -10.123  11.636  1.00  0.00     0.023 A 
HETATM   28  C   UNL     1      42.824  -9.297  12.626  1.00  0.00    -0.061 A 
HETATM   29  C   UNL     1      41.763  -8.446  12.302  1.00  0.00     0.009 A 
HETATM   30  C   UNL     1      43.403  -9.317  14.011  1.00  0.00     0.048 C 
ENDBRANCH  17  20
ENDBRANCH   1  16
TORSDOF 6
ENDMDL
MODEL 10
REMARK VINA RESULT:      -8.3      5.759      9.423
REMARK  6 active torsions:
REMARK  status: ('A' for Active; 'I' for Inactive)
REMARK    1  A    between atoms: C_2  and  C_3 
REMARK    2  A    between atoms: C_3  and  N_4 
REMARK       I    between atoms: N_4  and  C_5 
REMARK    3  A    between atoms: C_5  and  C_6 
REMARK    4  A    between atoms: C_8  and  C_9 
REMARK    5  A    between atoms: C_9  and  N_10 
REMARK       I    between atoms: N_10  and  C_11 
REMARK    6  A    between atoms: C_11  and  C_12 
ROOT
HETATM    1  C   UNL     1      41.933 -14.373   3.916  1.00  0.00     0.161 C 
ENDROOT
BRANCH   1   2
HETATM    2  C   UNL     1      41.679 -14.925   2.542  1.00  0.00    -0.040 A 
HETATM    3  C   UNL     1      40.653 -14.395   1.748  1.00  0.00     0.026 A 
HETATM    4  C   UNL     1      40.485 -14.830   0.430  1.00  0.00     0.032 A 
HETATM    5  C   UNL     1      41.310 -15.827  -0.099  1.00  0.00     0.017 A 
HETATM    6  C   UNL     1      42.310 -16.385   0.698  1.00  0.00     0.002 A 
HETATM    7  C   UNL     1      42.497 -15.934   2.007  1.00  0.00     0.009 A 
BRANCH   4   8
HETATM    8  C   UNL     1      39.447 -14.173  -0.394  1.00  0.00     0.252 C 
HETATM    9  N   UNL     1      39.325 -14.674  -1.672  1.00  0.00    -0.353 N 
HETATM   10  H   UNL     1      39.998 -15.369  -1.969  1.00  0.00     0.163 HD
HETATM   11  O   UNL     1      38.833 -13.215   0.054  1.00  0.00    -0.268 OA
BRANCH   9  12
HETATM   12  C   UNL     1      38.512 -14.054  -2.712  1.00  0.00     0.080 C 
HETATM   13  C   UNL     1      39.266 -12.928  -3.420  1.00  0.00     0.032 C 
BRANCH  12  14
HETATM   14  C   UNL     1      37.945 -15.065  -3.725  1.00  0.00     0.020 C 
HETATM   15  C   UNL     1      38.953 -16.134  -4.128  1.00  0.00     0.007 C 
ENDBRANCH  12  14
ENDBRANCH   9  12
ENDBRANCH   4   8
ENDBRANCH   1   2
BRANCH   1  16
HETATM   16  N   UNL     1      42.548 -15.324   4.798  1.00  0.00    -0.351 N 
HETATM   17  C   UNL     1      41.756 -16.074   5.644  1.00  0.00     0.273 C 
HETATM   18  O   UNL     1      40.567 -15.830   5.830  1.00  0.00    -0.266 OA
HETATM   19  H   UNL     1      43.466 -15.711   4.596  1.00  0.00     0.163 HD
BRANCH  17  20
HETATM   20  C   UNL     1      42.451 -17.211   6.267  1.00  0.00     0.157 A 
HETATM   21  N   UNL     1      42.553 -17.339   7.608  1.00  0.00    -0.168 NA
HETATM   22  N   UNL     1      43.256 -18.477   7.766  1.00  0.00    -0.277 N 
HETATM   23  H   UNL     1      43.458 -18.790   8.709  1.00  0.00     0.189 HD
HETATM   24  C   UNL     1      43.632 -19.080   6.597  1.00  0.00     0.063 A 
HETATM   25  C   UNL     1      43.116 -18.277   5.590  1.00  0.00     0.029 A 
HETATM   26  C   UNL     1      44.374 -20.236   6.343  1.00  0.00     0.032 A 
HETATM   27  C   UNL     1      43.346 -18.636   4.248  1.00  0.00     0.023 A 
HETATM   28  C   UNL     1      44.090 -19.793   3.956  1.00  0.00    -0.061 A 
HETATM   29  C   UNL     1      44.597 -20.573   5.001  1.00  0.00     0.009 A 
HETATM   30  C   UNL     1      44.359 -20.151   2.523  1.00  0.00     0.048 C 
ENDBRANCH  17  20
ENDBRANCH   1  16
TORSDOF 6
ENDMDL
