MODEL 1
REMARK VINA RESULT:      -8.6      0.000      0.000
REMARK  2 active torsions:
REMARK  status: ('A' for Active; 'I' for Inactive)
REMARK    1  A    between atoms: C_2  and  C_3 
REMARK    2  A    between atoms: C_6  and  C_7 
ROOT
HETATM    1  C   UNL     1      41.132 -16.831   2.602  1.00  0.00     0.197 C 
HETATM    2  N   UNL     1      41.868 -16.177   3.707  1.00  0.00    -0.345 N 
HETATM    3  C   UNL     1      42.904 -16.799   4.268  1.00  0.00     0.113 C 
HETATM    4  N   UNL     1      43.586 -16.236   5.256  1.00  0.00    -0.376 N 
HETATM    5  H   UNL     1      44.404 -16.721   5.604  1.00  0.00     0.161 HD
HETATM    6  C   UNL     1      43.309 -18.128   3.778  1.00  0.00     0.029 A 
HETATM    7  C   UNL     1      42.881 -18.463   2.488  1.00  0.00     0.025 A 
HETATM    8  N   UNL     1      42.109 -17.531   1.786  1.00  0.00    -0.267 NA
HETATM    9  C   UNL     1      44.091 -19.041   4.502  1.00  0.00     0.019 A 
HETATM   10  C   UNL     1      44.491 -20.244   3.915  1.00  0.00     0.025 A 
HETATM   11  C   UNL     1      44.122 -20.531   2.603  1.00  0.00     0.035 A 
HETATM   12 CL   UNL     1      44.641 -21.996   1.870  1.00  0.00    -0.084 Cl
HETATM   13  C   UNL     1      43.330 -19.639   1.883  1.00  0.00     0.048 A 
HETATM   14  C   UNL     1      41.400 -14.874   4.217  1.00  0.00     0.128 C 
HETATM   15  C   UNL     1      41.776 -14.702   5.672  1.00  0.00     0.039 C 
HETATM   16  C   UNL     1      43.262 -14.919   5.794  1.00  0.00     0.123 C 
HETATM   17  H   UNL     1      41.670 -17.935   0.959  1.00  0.00     0.130 HD
ENDROOT
BRANCH   1  18
HETATM   18  C   UNL     1      40.394 -15.843   1.719  1.00  0.00    -0.021 A 
HETATM   19  C   UNL     1      40.982 -15.320   0.553  1.00  0.00     0.011 A 
HETATM   20  C   UNL     1      40.295 -14.403  -0.245  1.00  0.00     0.007 A 
HETATM   21  C   UNL     1      39.004 -13.989   0.101  1.00  0.00    -0.059 A 
HETATM   22  C   UNL     1      38.408 -14.514   1.254  1.00  0.00     0.007 A 
HETATM   23  C   UNL     1      39.094 -15.429   2.056  1.00  0.00     0.011 A 
BRANCH  21  24
HETATM   24  C   UNL     1      38.251 -13.019  -0.777  1.00  0.00     0.034 C 
HETATM   25  C   UNL     1      37.982 -13.598  -2.157  1.00  0.00     0.010 C 
ENDBRANCH  21  24
ENDBRANCH   1  18
TORSDOF 2
ENDMDL
MODEL 2
REMARK VINA RESULT:      -8.3      0.594      1.166
REMARK  2 active torsions:
REMARK  status: ('A' for Active; 'I' for Inactive)
REMARK    1  A    between atoms: C_2  and  C_3 
REMARK    2  A    between atoms: C_6  and  C_7 
ROOT
HETATM    1  C   UNL     1      40.898 -16.318   2.525  1.00  0.00     0.197 C 
HETATM    2  N   UNL     1      41.668 -15.599   3.563  1.00  0.00    -0.345 N 
HETATM    3  C   UNL     1      42.719 -16.189   4.131  1.00  0.00     0.113 C 
HETATM    4  N   UNL     1      43.433 -15.568   5.060  1.00  0.00    -0.376 N 
HETATM    5  H   UNL     1      44.260 -16.034   5.413  1.00  0.00     0.161 HD
HETATM    6  C   UNL     1      43.105 -17.549   3.716  1.00  0.00     0.029 A 
HETATM    7  C   UNL     1      42.636 -17.964   2.464  1.00  0.00     0.025 A 
HETATM    8  N   UNL     1      41.846 -17.075   1.727  1.00  0.00    -0.267 NA
HETATM    9  C   UNL     1      43.905 -18.418   4.474  1.00  0.00     0.019 A 
HETATM   10  C   UNL     1      44.283 -19.659   3.953  1.00  0.00     0.025 A 
HETATM   11  C   UNL     1      43.872 -20.027   2.674  1.00  0.00     0.035 A 
HETATM   12 CL   UNL     1      44.364 -21.539   2.022  1.00  0.00    -0.084 Cl
HETATM   13  C   UNL     1      43.062 -19.179   1.922  1.00  0.00     0.048 A 
HETATM   14  C   UNL     1      41.221 -14.264   4.002  1.00  0.00     0.128 C 
HETATM   15  C   UNL     1      41.642 -14.000   5.431  1.00  0.00     0.039 C 
HETATM   16  C   UNL     1      43.130 -14.217   5.521  1.00  0.00     0.123 C 
HETATM   17  H   UNL     1      41.381 -17.528   0.941  1.00  0.00     0.130 HD
ENDROOT
BRANCH   1  18
HETATM   18  C   UNL     1      40.136 -15.385   1.603  1.00  0.00    -0.021 A 
HETATM   19  C   UNL     1      38.781 -15.079   1.828  1.00  0.00     0.011 A 
HETATM   20  C   UNL     1      38.089 -14.226   0.965  1.00  0.00     0.007 A 
HETATM   21  C   UNL     1      38.734 -13.658  -0.139  1.00  0.00    -0.059 A 
HETATM   22  C   UNL     1      40.084 -13.949  -0.362  1.00  0.00     0.007 A 
HETATM   23  C   UNL     1      40.779 -14.803   0.498  1.00  0.00     0.011 A 
BRANCH  21  24
HETATM   24  C   UNL     1      37.992 -12.714  -1.054  1.00  0.00     0.034 C 
HETATM   25  C   UNL     1      38.007 -13.197  -2.497  1.00  0.00     0.010 C 
ENDBRANCH  21  24
ENDBRANCH   1  18
TORSDOF 2
ENDMDL
MODEL 3
REMARK VINA RESULT:      -8.0      2.531      6.681
REMARK  2 active torsions:
REMARK  status: ('A' for Active; 'I' for Inactive)
REMARK    1  A    between atoms: C_2  and  C_3 
REMARK    2  A    between atoms: C_6  and  C_7 
ROOT
HETATM    1  C   UNL     1      42.798 -17.123   2.270  1.00  0.00     0.197 C 
HETATM    2  N   UNL     1      41.947 -16.571   3.347  1.00  0.00    -0.345 N 
HETATM    3  C   UNL     1      41.067 -15.611   3.065  1.00  0.00     0.113 C 
HETATM    4  N   UNL     1      40.287 -15.100   4.008  1.00  0.00    -0.376 N 
HETATM    5  H   UNL     1      39.589 -14.420   3.729  1.00  0.00     0.161 HD
HETATM    6  C   UNL     1      40.947 -15.114   1.683  1.00  0.00     0.029 A 
HETATM    7  C   UNL     1      41.430 -15.965   0.682  1.00  0.00     0.025 A 
HETATM    8  N   UNL     1      41.987 -17.190   1.067  1.00  0.00    -0.267 NA
HETATM    9  C   UNL     1      40.377 -13.883   1.324  1.00  0.00     0.019 A 
HETATM   10  C   UNL     1      40.237 -13.540  -0.023  1.00  0.00     0.025 A 
HETATM   11  C   UNL     1      40.652 -14.430  -1.011  1.00  0.00     0.035 A 
HETATM   12 CL   UNL     1      40.448 -14.021  -2.668  1.00  0.00    -0.084 Cl
HETATM   13  C   UNL     1      41.235 -15.646  -0.664  1.00  0.00     0.048 A 
HETATM   14  C   UNL     1      42.133 -17.044   4.731  1.00  0.00     0.128 C 
HETATM   15  C   UNL     1      41.735 -15.972   5.723  1.00  0.00     0.039 C 
HETATM   16  C   UNL     1      40.329 -15.542   5.397  1.00  0.00     0.123 C 
HETATM   17  H   UNL     1      42.496 -17.640   0.309  1.00  0.00     0.130 HD
ENDROOT
BRANCH   1  18
HETATM   18  C   UNL     1      43.309 -18.518   2.579  1.00  0.00    -0.021 A 
HETATM   19  C   UNL     1      44.119 -18.769   3.701  1.00  0.00     0.011 A 
HETATM   20  C   UNL     1      44.591 -20.056   3.968  1.00  0.00     0.007 A 
HETATM   21  C   UNL     1      44.263 -21.121   3.122  1.00  0.00    -0.059 A 
HETATM   22  C   UNL     1      43.447 -20.881   2.010  1.00  0.00     0.007 A 
HETATM   23  C   UNL     1      42.976 -19.594   1.739  1.00  0.00     0.011 A 
BRANCH  21  24
HETATM   24  C   UNL     1      44.751 -22.517   3.427  1.00  0.00     0.034 C 
HETATM   25  C   UNL     1      45.063 -22.696   4.905  1.00  0.00     0.010 C 
ENDBRANCH  21  24
ENDBRANCH   1  18
TORSDOF 2
ENDMDL
MODEL 4
REMARK VINA RESULT:      -8.0      3.212      6.968
REMARK  2 active torsions:
REMARK  status: ('A' for Active; 'I' for Inactive)
REMARK    1  A    between atoms: C_2  and  C_3 
REMARK    2  A    between atoms: C_6  and  C_7 
ROOT
HETATM    1  C   UNL     1      41.205 -16.276   3.110  1.00  0.00     0.197 C 
HETATM    2  N   UNL     1      41.342 -15.330   1.980  1.00  0.00    -0.345 N 
HETATM    3  C   UNL     1      40.958 -14.063   2.132  1.00  0.00     0.113 C 
HETATM    4  N   UNL     1      41.072 -13.190   1.140  1.00  0.00    -0.376 N 
HETATM    5  H   UNL     1      40.827 -12.225   1.327  1.00  0.00     0.161 HD
HETATM    6  C   UNL     1      40.407 -13.617   3.424  1.00  0.00     0.029 A 
HETATM    7  C   UNL     1      40.725 -14.411   4.533  1.00  0.00     0.025 A 
HETATM    8  N   UNL     1      41.516 -15.547   4.326  1.00  0.00    -0.267 NA
HETATM    9  C   UNL     1      39.621 -12.468   3.603  1.00  0.00     0.019 A 
HETATM   10  C   UNL     1      39.216 -12.087   4.885  1.00  0.00     0.025 A 
HETATM   11  C   UNL     1      39.604 -12.844   5.988  1.00  0.00     0.035 A 
HETATM   12 CL   UNL     1      39.133 -12.356   7.566  1.00  0.00    -0.084 Cl
HETATM   13  C   UNL     1      40.368 -13.996   5.818  1.00  0.00     0.048 A 
HETATM   14  C   UNL     1      41.838 -15.820   0.681  1.00  0.00     0.128 C 
HETATM   15  C   UNL     1      41.288 -14.984  -0.453  1.00  0.00     0.039 C 
HETATM   16  C   UNL     1      41.618 -13.542  -0.166  1.00  0.00     0.123 C 
HETATM   17  H   UNL     1      41.519 -16.169   5.134  1.00  0.00     0.130 HD
ENDROOT
BRANCH   1  18
HETATM   18  C   UNL     1      42.152 -17.457   3.007  1.00  0.00    -0.021 A 
HETATM   19  C   UNL     1      42.040 -18.396   1.964  1.00  0.00     0.011 A 
HETATM   20  C   UNL     1      42.912 -19.485   1.888  1.00  0.00     0.007 A 
HETATM   21  C   UNL     1      43.915 -19.659   2.847  1.00  0.00    -0.059 A 
HETATM   22  C   UNL     1      44.039 -18.723   3.880  1.00  0.00     0.007 A 
HETATM   23  C   UNL     1      43.167 -17.634   3.961  1.00  0.00     0.011 A 
BRANCH  21  24
HETATM   24  C   UNL     1      44.874 -20.821   2.747  1.00  0.00     0.034 C 
HETATM   25  C   UNL     1      44.334 -21.924   1.851  1.00  0.00     0.010 C 
ENDBRANCH  21  24
ENDBRANCH   1  18
TORSDOF 2
ENDMDL
MODEL 5
REMARK VINA RESULT:      -7.8      2.038      4.584
REMARK  2 active torsions:
REMARK  status: ('A' for Active; 'I' for Inactive)
REMARK    1  A    between atoms: C_2  and  C_3 
REMARK    2  A    between atoms: C_6  and  C_7 
ROOT
HETATM    1  C   UNL     1      42.667 -15.473   3.861  1.00  0.00     0.197 C 
HETATM    2  N   UNL     1      42.212 -15.650   2.464  1.00  0.00    -0.345 N 
HETATM    3  C   UNL     1      42.449 -16.800   1.834  1.00  0.00     0.113 C 
HETATM    4  N   UNL     1      42.049 -16.990   0.584  1.00  0.00    -0.376 N 
HETATM    5  H   UNL     1      42.196 -17.904   0.173  1.00  0.00     0.161 HD
HETATM    6  C   UNL     1      43.158 -17.884   2.536  1.00  0.00     0.029 A 
HETATM    7  C   UNL     1      43.146 -17.818   3.935  1.00  0.00     0.025 A 
HETATM    8  N   UNL     1      42.485 -16.743   4.540  1.00  0.00    -0.267 NA
HETATM    9  C   UNL     1      43.807 -18.955   1.903  1.00  0.00     0.019 A 
HETATM   10  C   UNL     1      44.379 -19.978   2.664  1.00  0.00     0.025 A 
HETATM   11  C   UNL     1      44.293 -19.939   4.053  1.00  0.00     0.035 A 
HETATM   12 CL   UNL     1      44.969 -21.214   4.986  1.00  0.00    -0.084 Cl
HETATM   13  C   UNL     1      43.667 -18.871   4.691  1.00  0.00     0.048 A 
HETATM   14  C   UNL     1      41.562 -14.525   1.766  1.00  0.00     0.128 C 
HETATM   15  C   UNL     1      41.790 -14.616   0.273  1.00  0.00     0.039 C 
HETATM   16  C   UNL     1      41.331 -15.977  -0.181  1.00  0.00     0.123 C 
HETATM   17  H   UNL     1      42.705 -16.661   5.532  1.00  0.00     0.130 HD
ENDROOT
BRANCH   1  18
HETATM   18  C   UNL     1      41.879 -14.415   4.608  1.00  0.00    -0.021 A 
HETATM   19  C   UNL     1      42.434 -13.154   4.894  1.00  0.00     0.011 A 
HETATM   20  C   UNL     1      41.701 -12.192   5.592  1.00  0.00     0.007 A 
HETATM   21  C   UNL     1      40.396 -12.466   6.018  1.00  0.00    -0.059 A 
HETATM   22  C   UNL     1      39.834 -13.714   5.727  1.00  0.00     0.007 A 
HETATM   23  C   UNL     1      40.566 -14.679   5.031  1.00  0.00     0.011 A 
BRANCH  21  24
HETATM   24  C   UNL     1      39.595 -11.416   6.748  1.00  0.00     0.034 C 
HETATM   25  C   UNL     1      39.374 -11.786   8.207  1.00  0.00     0.010 C 
ENDBRANCH  21  24
ENDBRANCH   1  18
TORSDOF 2
ENDMDL
MODEL 6
REMARK VINA RESULT:      -7.8      3.055      6.598
REMARK  2 active torsions:
REMARK  status: ('A' for Active; 'I' for Inactive)
REMARK    1  A    between atoms: C_2  and  C_3 
REMARK    2  A    between atoms: C_6  and  C_7 
ROOT
HETATM    1  C   UNL     1      42.045 -15.510   2.525  1.00  0.00     0.197 C 
HETATM    2  N   UNL     1      42.247 -14.729   3.765  1.00  0.00    -0.345 N 
HETATM    3  C   UNL     1      41.427 -13.717   4.047  1.00  0.00     0.113 C 
HETATM    4  N   UNL     1      41.579 -13.002   5.154  1.00  0.00    -0.376 N 
HETATM    5  H   UNL     1      40.890 -12.287   5.354  1.00  0.00     0.161 HD
HETATM    6  C   UNL     1      40.326 -13.391   3.124  1.00  0.00     0.029 A 
HETATM    7  C   UNL     1      39.934 -14.414   2.252  1.00  0.00     0.025 A 
HETATM    8  N   UNL     1      40.613 -15.635   2.319  1.00  0.00    -0.267 NA
HETATM    9  C   UNL     1      39.657 -12.158   3.084  1.00  0.00     0.019 A 
HETATM   10  C   UNL     1      38.569 -11.977   2.226  1.00  0.00     0.025 A 
HETATM   11  C   UNL     1      38.141 -13.028   1.418  1.00  0.00     0.035 A 
HETATM   12 CL   UNL     1      36.783 -12.814   0.387  1.00  0.00    -0.084 Cl
HETATM   13  C   UNL     1      38.810 -14.249   1.438  1.00  0.00     0.048 A 
HETATM   14  C   UNL     1      43.394 -15.039   4.638  1.00  0.00     0.128 C 
HETATM   15  C   UNL     1      43.834 -13.810   5.403  1.00  0.00     0.039 C 
HETATM   16  C   UNL     1      42.632 -13.264   6.128  1.00  0.00     0.123 C 
HETATM   17  H   UNL     1      40.411 -16.236   1.521  1.00  0.00     0.130 HD
ENDROOT
BRANCH   1  18
HETATM   18  C   UNL     1      42.640 -16.903   2.602  1.00  0.00    -0.021 A 
HETATM   19  C   UNL     1      42.438 -17.724   3.727  1.00  0.00     0.011 A 
HETATM   20  C   UNL     1      43.000 -19.001   3.790  1.00  0.00     0.007 A 
HETATM   21  C   UNL     1      43.773 -19.489   2.731  1.00  0.00    -0.059 A 
HETATM   22  C   UNL     1      43.968 -18.682   1.603  1.00  0.00     0.007 A 
HETATM   23  C   UNL     1      43.410 -17.403   1.539  1.00  0.00     0.011 A 
BRANCH  21  24
HETATM   24  C   UNL     1      44.357 -20.879   2.788  1.00  0.00     0.034 C 
HETATM   25  C   UNL     1      43.969 -21.706   1.571  1.00  0.00     0.010 C 
ENDBRANCH  21  24
ENDBRANCH   1  18
TORSDOF 2
ENDMDL
MODEL 7
REMARK VINA RESULT:      -7.6      2.608      3.424
REMARK  2 active torsions:
REMARK  status: ('A' for Active; 'I' for Inactive)
REMARK    1  A    between atoms: C_2  and  C_3 
REMARK    2  A    between atoms: C_6  and  C_7 
ROOT
HETATM    1  C   UNL     1      41.968 -17.485   4.644  1.00  0.00     0.197 C 
HETATM    2  N   UNL     1      42.911 -17.572   5.781  1.00  0.00    -0.345 N 
HETATM    3  C   UNL     1      43.836 -18.531   5.798  1.00  0.00     0.113 C 
HETATM    4  N   UNL     1      44.698 -18.632   6.800  1.00  0.00    -0.376 N 
HETATM    5  H   UNL     1      45.422 -19.337   6.734  1.00  0.00     0.161 HD
HETATM    6  C   UNL     1      43.912 -19.491   4.682  1.00  0.00     0.029 A 
HETATM    7  C   UNL     1      43.320 -19.083   3.481  1.00  0.00     0.025 A 
HETATM    8  N   UNL     1      42.706 -17.826   3.441  1.00  0.00    -0.267 NA
HETATM    9  C   UNL     1      44.542 -20.744   4.749  1.00  0.00     0.019 A 
HETATM   10  C   UNL     1      44.631 -21.546   3.609  1.00  0.00     0.025 A 
HETATM   11  C   UNL     1      44.105 -21.095   2.401  1.00  0.00     0.035 A 
HETATM   12 CL   UNL     1      44.245 -22.068   0.992  1.00  0.00    -0.084 Cl
HETATM   13  C   UNL     1      43.462 -19.861   2.329  1.00  0.00     0.048 A 
HETATM   14  C   UNL     1      42.770 -16.637   6.912  1.00  0.00     0.128 C 
HETATM   15  C   UNL     1      43.290 -17.257   8.189  1.00  0.00     0.039 C 
HETATM   16  C   UNL     1      44.702 -17.718   7.937  1.00  0.00     0.123 C 
HETATM   17  H   UNL     1      42.127 -17.704   2.611  1.00  0.00     0.130 HD
ENDROOT
BRANCH   1  18
HETATM   18  C   UNL     1      41.384 -16.096   4.467  1.00  0.00    -0.021 A 
HETATM   19  C   UNL     1      40.399 -15.600   5.341  1.00  0.00     0.011 A 
HETATM   20  C   UNL     1      39.862 -14.323   5.161  1.00  0.00     0.007 A 
HETATM   21  C   UNL     1      40.298 -13.513   4.107  1.00  0.00    -0.059 A 
HETATM   22  C   UNL     1      41.286 -13.996   3.241  1.00  0.00     0.007 A 
HETATM   23  C   UNL     1      41.823 -15.273   3.417  1.00  0.00     0.011 A 
BRANCH  21  24
HETATM   24  C   UNL     1      39.737 -12.123   3.930  1.00  0.00     0.034 C 
HETATM   25  C   UNL     1      39.034 -11.632   5.187  1.00  0.00     0.010 C 
ENDBRANCH  21  24
ENDBRANCH   1  18
TORSDOF 2
ENDMDL
MODEL 8
REMARK VINA RESULT:      -7.4      3.111      6.622
REMARK  2 active torsions:
REMARK  status: ('A' for Active; 'I' for Inactive)
REMARK    1  A    between atoms: C_2  and  C_3 
REMARK    2  A    between atoms: C_6  and  C_7 
ROOT
HETATM    1  C   UNL     1      42.714 -15.594   2.354  1.00  0.00     0.197 C 
HETATM    2  N   UNL     1      41.680 -15.195   3.334  1.00  0.00    -0.345 N 
HETATM    3  C   UNL     1      40.877 -14.166   3.062  1.00  0.00     0.113 C 
HETATM    4  N   UNL     1      39.938 -13.787   3.917  1.00  0.00    -0.376 N 
HETATM    5  H   UNL     1      39.311 -13.042   3.635  1.00  0.00     0.161 HD
HETATM    6  C   UNL     1      41.025 -13.442   1.787  1.00  0.00     0.029 A 
HETATM    7  C   UNL     1      41.681 -14.134   0.762  1.00  0.00     0.025 A 
HETATM    8  N   UNL     1      42.144 -15.427   1.029  1.00  0.00    -0.267 NA
HETATM    9  C   UNL     1      40.544 -12.146   1.545  1.00  0.00     0.019 A 
HETATM   10  C   UNL     1      40.663 -11.579   0.273  1.00  0.00     0.025 A 
HETATM   11  C   UNL     1      41.250 -12.309  -0.758  1.00  0.00     0.035 A 
HETATM   12 CL   UNL     1      41.366 -11.623  -2.330  1.00  0.00    -0.084 Cl
HETATM   13  C   UNL     1      41.747 -13.589  -0.522  1.00  0.00     0.048 A 
HETATM   14  C   UNL     1      41.597 -15.897   4.628  1.00  0.00     0.128 C 
HETATM   15  C   UNL     1      41.029 -14.990   5.696  1.00  0.00     0.039 C 
HETATM   16  C   UNL     1      39.713 -14.454   5.195  1.00  0.00     0.123 C 
HETATM   17  H   UNL     1      42.784 -15.766   0.312  1.00  0.00     0.130 HD
ENDROOT
BRANCH   1  18
HETATM   18  C   UNL     1      43.145 -17.040   2.510  1.00  0.00    -0.021 A 
HETATM   19  C   UNL     1      43.866 -17.472   3.639  1.00  0.00     0.011 A 
HETATM   20  C   UNL     1      44.265 -18.805   3.764  1.00  0.00     0.007 A 
HETATM   21  C   UNL     1      43.953 -19.736   2.767  1.00  0.00    -0.059 A 
HETATM   22  C   UNL     1      43.227 -19.315   1.647  1.00  0.00     0.007 A 
HETATM   23  C   UNL     1      42.828 -17.983   1.518  1.00  0.00     0.011 A 
BRANCH  21  24
HETATM   24  C   UNL     1      44.362 -21.181   2.917  1.00  0.00     0.034 C 
HETATM   25  C   UNL     1      44.228 -21.945   1.608  1.00  0.00     0.010 C 
ENDBRANCH  21  24
ENDBRANCH   1  18
TORSDOF 2
ENDMDL
MODEL 9
REMARK VINA RESULT:      -7.4      3.542      7.090
REMARK  2 active torsions:
REMARK  status: ('A' for Active; 'I' for Inactive)
REMARK    1  A    between atoms: C_2  and  C_3 
REMARK    2  A    between atoms: C_6  and  C_7 
ROOT
HETATM    1  C   UNL     1      41.312 -15.308   4.419  1.00  0.00     0.197 C 
HETATM    2  N   UNL     1      40.448 -14.712   3.376  1.00  0.00    -0.345 N 
HETATM    3  C   UNL     1      40.019 -13.457   3.513  1.00  0.00     0.113 C 
HETATM    4  N   UNL     1      39.248 -12.894   2.594  1.00  0.00    -0.376 N 
HETATM    5  H   UNL     1      39.004 -11.918   2.712  1.00  0.00     0.161 HD
HETATM    6  C   UNL     1      40.415 -12.676   4.698  1.00  0.00     0.029 A 
HETATM    7  C   UNL     1      41.555 -13.126   5.376  1.00  0.00     0.025 A 
HETATM    8  N   UNL     1      42.206 -14.265   4.889  1.00  0.00    -0.267 NA
HETATM    9  C   UNL     1      39.746 -11.532   5.160  1.00  0.00     0.019 A 
HETATM   10  C   UNL     1      40.252 -10.814   6.247  1.00  0.00     0.025 A 
HETATM   11  C   UNL     1      41.429 -11.230   6.865  1.00  0.00     0.035 A 
HETATM   12 CL   UNL     1      42.067 -10.327   8.180  1.00  0.00    -0.084 Cl
HETATM   13  C   UNL     1      42.090 -12.374   6.425  1.00  0.00     0.048 A 
HETATM   14  C   UNL     1      40.017 -15.538   2.234  1.00  0.00     0.128 C 
HETATM   15  C   UNL     1      38.687 -15.057   1.695  1.00  0.00     0.039 C 
HETATM   16  C   UNL     1      38.819 -13.589   1.385  1.00  0.00     0.123 C 
HETATM   17  H   UNL     1      42.884 -14.638   5.553  1.00  0.00     0.130 HD
ENDROOT
BRANCH   1  18
HETATM   18  C   UNL     1      42.152 -16.459   3.901  1.00  0.00    -0.021 A 
HETATM   19  C   UNL     1      43.142 -16.260   2.921  1.00  0.00     0.011 A 
HETATM   20  C   UNL     1      43.902 -17.332   2.446  1.00  0.00     0.007 A 
HETATM   21  C   UNL     1      43.692 -18.624   2.938  1.00  0.00    -0.059 A 
HETATM   22  C   UNL     1      42.717 -18.827   3.922  1.00  0.00     0.007 A 
HETATM   23  C   UNL     1      41.954 -17.758   4.398  1.00  0.00     0.011 A 
BRANCH  21  24
HETATM   24  C   UNL     1      44.532 -19.776   2.444  1.00  0.00     0.034 C 
HETATM   25  C   UNL     1      43.675 -20.912   1.906  1.00  0.00     0.010 C 
ENDBRANCH  21  24
ENDBRANCH   1  18
TORSDOF 2
ENDMDL
MODEL 10
REMARK VINA RESULT:      -7.2      3.726      7.475
REMARK  2 active torsions:
REMARK  status: ('A' for Active; 'I' for Inactive)
REMARK    1  A    between atoms: C_2  and  C_3 
REMARK    2  A    between atoms: C_6  and  C_7 
ROOT
HETATM    1  C   UNL     1      41.664 -14.402   0.367  1.00  0.00     0.197 C 
HETATM    2  N   UNL     1      40.191 -14.305   0.458  1.00  0.00    -0.345 N 
HETATM    3  C   UNL     1      39.521 -13.584  -0.440  1.00  0.00     0.113 C 
HETATM    4  N   UNL     1      38.200 -13.482  -0.388  1.00  0.00    -0.376 N 
HETATM    5  H   UNL     1      37.734 -12.976  -1.132  1.00  0.00     0.161 HD
HETATM    6  C   UNL     1      40.255 -12.896  -1.517  1.00  0.00     0.029 A 
HETATM    7  C   UNL     1      41.535 -13.389  -1.798  1.00  0.00     0.025 A 
HETATM    8  N   UNL     1      42.008 -14.467  -1.042  1.00  0.00    -0.267 NA
HETATM    9  C   UNL     1      39.752 -11.820  -2.265  1.00  0.00     0.019 A 
HETATM   10  C   UNL     1      40.497 -11.291  -3.322  1.00  0.00     0.025 A 
HETATM   11  C   UNL     1      41.736 -11.841  -3.640  1.00  0.00     0.035 A 
HETATM   12 CL   UNL     1      42.636 -11.210  -4.961  1.00  0.00    -0.084 Cl
HETATM   13  C   UNL     1      42.252 -12.896  -2.891  1.00  0.00     0.048 A 
HETATM   14  C   UNL     1      39.490 -14.953   1.583  1.00  0.00     0.128 C 
HETATM   15  C   UNL     1      38.202 -14.226   1.903  1.00  0.00     0.039 C 
HETATM   16  C   UNL     1      37.394 -14.139   0.635  1.00  0.00     0.123 C 
HETATM   17  H   UNL     1      43.008 -14.618  -1.166  1.00  0.00     0.130 HD
ENDROOT
BRANCH   1  18
HETATM   18  C   UNL     1      42.216 -15.639   1.050  1.00  0.00    -0.021 A 
HETATM   19  C   UNL     1      41.951 -16.929   0.555  1.00  0.00     0.011 A 
HETATM   20  C   UNL     1      42.458 -18.060   1.200  1.00  0.00     0.007 A 
HETATM   21  C   UNL     1      43.242 -17.929   2.351  1.00  0.00    -0.059 A 
HETATM   22  C   UNL     1      43.519 -16.648   2.843  1.00  0.00     0.007 A 
HETATM   23  C   UNL     1      43.012 -15.515   2.201  1.00  0.00     0.011 A 
BRANCH  21  24
HETATM   24  C   UNL     1      43.811 -19.150   3.031  1.00  0.00     0.034 C 
HETATM   25  C   UNL     1      43.775 -20.370   2.124  1.00  0.00     0.010 C 
ENDBRANCH  21  24
ENDBRANCH   1  18
TORSDOF 2
ENDMDL
