MODEL 1
REMARK VINA RESULT:      -9.2      0.000      0.000
REMARK  7 active torsions:
REMARK  status: ('A' for Active; 'I' for Inactive)
REMARK    1  A    between atoms: O_2  and  C_3 
REMARK    2  A    between atoms: C_6  and  C_7 
REMARK    3  A    between atoms: N_8  and  N_9 
REMARK       I    between atoms: N_9  and  C_10 
REMARK    4  A    between atoms: C_10  and  C_11 
REMARK       I    between atoms: C_11  and  N_12 
REMARK    5  A    between atoms: N_12  and  C_13 
REMARK    6  A    between atoms: C_14  and  C_15 
REMARK       I    between atoms: C_15  and  N_16 
REMARK    7  A    between atoms: N_16  and  C_17 
ROOT
HETATM    1  C   UNL     1      45.025 -11.767   9.110  1.00  0.00     0.315 C 
HETATM    2  N   UNL     1      43.854 -12.147   9.736  1.00  0.00    -0.318 N 
HETATM    3  O   UNL     1      45.669 -10.737   9.234  1.00  0.00    -0.262 OA
HETATM    4  H   UNL     1      43.391 -12.922   9.260  1.00  0.00     0.169 HD
ENDROOT
BRANCH   2   5
HETATM    5  C   UNL     1      43.088 -11.372  10.628  1.00  0.00     0.051 A 
HETATM    6  C   UNL     1      41.919 -10.652  10.324  1.00  0.00     0.058 A 
HETATM    7  C   UNL     1      41.209 -10.014  11.360  1.00  0.00     0.019 A 
HETATM    8  C   UNL     1      41.672 -10.042  12.675  1.00  0.00     0.001 A 
HETATM    9  C   UNL     1      42.862 -10.697  12.967  1.00  0.00     0.002 A 
HETATM   10  C   UNL     1      43.565 -11.350  11.952  1.00  0.00     0.030 A 
BRANCH   6  11
HETATM   11  C   UNL     1      41.435 -10.313   8.957  1.00  0.00     0.254 C 
HETATM   12  N   UNL     1      41.246 -11.385   8.104  1.00  0.00    -0.352 N 
HETATM   13  H   UNL     1      41.452 -12.310   8.456  1.00  0.00     0.163 HD
HETATM   14  O   UNL     1      41.380  -9.141   8.600  1.00  0.00    -0.268 OA
BRANCH  12  15
HETATM   15  C   UNL     1      41.150 -11.191   6.660  1.00  0.00     0.084 C 
HETATM   16  C   UNL     1      41.954 -12.265   5.913  1.00  0.00     0.025 C 
HETATM   17  C   UNL     1      41.268 -13.630   5.919  1.00  0.00     0.002 C 
HETATM   18  C   UNL     1      39.845 -13.540   5.380  1.00  0.00     0.000 C 
HETATM   19  C   UNL     1      39.023 -12.514   6.152  1.00  0.00     0.002 C 
HETATM   20  C   UNL     1      39.697 -11.143   6.163  1.00  0.00     0.025 C 
ENDBRANCH  12  15
ENDBRANCH   6  11
ENDBRANCH   2   5
BRANCH   1  21
HETATM   21  C   UNL     1      45.460 -12.801   8.059  1.00  0.00     0.329 C 
HETATM   22  N   UNL     1      44.482 -13.738   7.792  1.00  0.00    -0.239 N 
HETATM   23  H   UNL     1      43.602 -13.678   8.300  1.00  0.00     0.192 HD
HETATM   24  O   UNL     1      46.589 -12.719   7.588  1.00  0.00    -0.261 OA
BRANCH  22  25
HETATM   25  N   UNL     1      44.729 -14.755   6.921  1.00  0.00    -0.183 NA
HETATM   26  C   UNL     1      43.932 -15.772   7.005  1.00  0.00     0.150 C 
BRANCH  26  27
HETATM   27  C   UNL     1      44.093 -16.955   6.133  1.00  0.00    -0.017 A 
HETATM   28  C   UNL     1      44.980 -17.980   6.472  1.00  0.00     0.016 A 
HETATM   29  C   UNL     1      45.102 -19.093   5.636  1.00  0.00     0.037 A 
HETATM   30  C   UNL     1      44.338 -19.196   4.471  1.00  0.00     0.068 A 
HETATM   31  C   UNL     1      43.463 -18.162   4.130  1.00  0.00     0.037 A 
HETATM   32  C   UNL     1      43.339 -17.042   4.961  1.00  0.00     0.016 A 
BRANCH  30  33
HETATM   33  O   UNL     1      44.547 -20.338   3.746  1.00  0.00    -0.356 OA
HETATM   34  C   UNL     1      43.987 -20.374   2.439  1.00  0.00     0.210 C 
ENDBRANCH  30  33
ENDBRANCH  26  27
ENDBRANCH  22  25
ENDBRANCH   1  21
TORSDOF 7
ENDMDL
MODEL 2
REMARK VINA RESULT:      -8.9      2.782      8.492
REMARK  7 active torsions:
REMARK  status: ('A' for Active; 'I' for Inactive)
REMARK    1  A    between atoms: O_2  and  C_3 
REMARK    2  A    between atoms: C_6  and  C_7 
REMARK    3  A    between atoms: N_8  and  N_9 
REMARK       I    between atoms: N_9  and  C_10 
REMARK    4  A    between atoms: C_10  and  C_11 
REMARK       I    between atoms: C_11  and  N_12 
REMARK    5  A    between atoms: N_12  and  C_13 
REMARK    6  A    between atoms: C_14  and  C_15 
REMARK       I    between atoms: C_15  and  N_16 
REMARK    7  A    between atoms: N_16  and  C_17 
ROOT
HETATM    1  C   UNL     1      44.945 -13.643   7.376  1.00  0.00     0.315 C 
HETATM    2  N   UNL     1      44.067 -14.704   7.473  1.00  0.00    -0.318 N 
HETATM    3  O   UNL     1      45.750 -13.384   6.496  1.00  0.00    -0.262 OA
HETATM    4  H   UNL     1      43.706 -14.826   8.421  1.00  0.00     0.169 HD
ENDROOT
BRANCH   2   5
HETATM    5  C   UNL     1      43.959 -15.791   6.584  1.00  0.00     0.051 A 
HETATM    6  C   UNL     1      43.234 -15.822   5.380  1.00  0.00     0.058 A 
HETATM    7  C   UNL     1      43.319 -16.957   4.549  1.00  0.00     0.019 A 
HETATM    8  C   UNL     1      44.071 -18.069   4.924  1.00  0.00     0.001 A 
HETATM    9  C   UNL     1      44.736 -18.067   6.143  1.00  0.00     0.002 A 
HETATM   10  C   UNL     1      44.675 -16.940   6.968  1.00  0.00     0.030 A 
BRANCH   6  11
HETATM   11  C   UNL     1      42.197 -14.839   4.961  1.00  0.00     0.254 C 
HETATM   12  N   UNL     1      41.890 -14.828   3.613  1.00  0.00    -0.352 N 
HETATM   13  H   UNL     1      42.387 -15.472   3.011  1.00  0.00     0.163 HD
HETATM   14  O   UNL     1      41.789 -14.002   5.759  1.00  0.00    -0.268 OA
BRANCH  12  15
HETATM   15  C   UNL     1      41.199 -13.695   3.006  1.00  0.00     0.084 C 
HETATM   16  C   UNL     1      41.823 -13.342   1.648  1.00  0.00     0.025 C 
HETATM   17  C   UNL     1      41.452 -14.338   0.550  1.00  0.00     0.002 C 
HETATM   18  C   UNL     1      39.941 -14.499   0.432  1.00  0.00     0.000 C 
HETATM   19  C   UNL     1      39.320 -14.903   1.764  1.00  0.00     0.002 C 
HETATM   20  C   UNL     1      39.685 -13.922   2.877  1.00  0.00     0.025 C 
ENDBRANCH  12  15
ENDBRANCH   6  11
ENDBRANCH   2   5
BRANCH   1  21
HETATM   21  C   UNL     1      44.902 -12.762   8.636  1.00  0.00     0.329 C 
HETATM   22  N   UNL     1      43.701 -12.099   8.786  1.00  0.00    -0.239 N 
HETATM   23  H   UNL     1      42.983 -12.230   8.076  1.00  0.00     0.192 HD
HETATM   24  O   UNL     1      45.898 -12.714   9.350  1.00  0.00    -0.261 OA
BRANCH  22  25
HETATM   25  N   UNL     1      43.521 -11.238   9.825  1.00  0.00    -0.183 NA
HETATM   26  C   UNL     1      43.124 -11.771  10.936  1.00  0.00     0.150 C 
BRANCH  26  27
HETATM   27  C   UNL     1      42.872 -10.954  12.141  1.00  0.00    -0.017 A 
HETATM   28  C   UNL     1      41.736 -11.165  12.926  1.00  0.00     0.016 A 
HETATM   29  C   UNL     1      41.528 -10.386  14.067  1.00  0.00     0.037 A 
HETATM   30  C   UNL     1      42.452  -9.406  14.438  1.00  0.00     0.068 A 
HETATM   31  C   UNL     1      43.580  -9.189  13.642  1.00  0.00     0.037 A 
HETATM   32  C   UNL     1      43.791  -9.964  12.494  1.00  0.00     0.016 A 
BRANCH  30  33
HETATM   33  O   UNL     1      42.136  -8.720  15.578  1.00  0.00    -0.356 OA
HETATM   34  C   UNL     1      40.760  -8.417  15.778  1.00  0.00     0.210 C 
ENDBRANCH  30  33
ENDBRANCH  26  27
ENDBRANCH  22  25
ENDBRANCH   1  21
TORSDOF 7
ENDMDL
MODEL 3
REMARK VINA RESULT:      -8.6      1.812      4.460
REMARK  7 active torsions:
REMARK  status: ('A' for Active; 'I' for Inactive)
REMARK    1  A    between atoms: O_2  and  C_3 
REMARK    2  A    between atoms: C_6  and  C_7 
REMARK    3  A    between atoms: N_8  and  N_9 
REMARK       I    between atoms: N_9  and  C_10 
REMARK    4  A    between atoms: C_10  and  C_11 
REMARK       I    between atoms: C_11  and  N_12 
REMARK    5  A    between atoms: N_12  and  C_13 
REMARK    6  A    between atoms: C_14  and  C_15 
REMARK       I    between atoms: C_15  and  N_16 
REMARK    7  A    between atoms: N_16  and  C_17 
ROOT
HETATM    1  C   UNL     1      43.640 -11.549   8.487  1.00  0.00     0.315 C 
HETATM    2  N   UNL     1      42.466 -11.414   7.773  1.00  0.00    -0.318 N 
HETATM    3  O   UNL     1      44.155 -10.776   9.279  1.00  0.00    -0.262 OA
HETATM    4  H   UNL     1      42.406 -12.071   6.993  1.00  0.00     0.169 HD
ENDROOT
BRANCH   2   5
HETATM    5  C   UNL     1      41.621 -10.287   7.748  1.00  0.00     0.051 A 
HETATM    6  C   UNL     1      40.930  -9.732   8.839  1.00  0.00     0.058 A 
HETATM    7  C   UNL     1      40.210  -8.533   8.666  1.00  0.00     0.019 A 
HETATM    8  C   UNL     1      40.129  -7.915   7.419  1.00  0.00     0.001 A 
HETATM    9  C   UNL     1      40.757  -8.497   6.325  1.00  0.00     0.002 A 
HETATM   10  C   UNL     1      41.490  -9.675   6.487  1.00  0.00     0.030 A 
BRANCH   6  11
HETATM   11  C   UNL     1      40.705 -10.391  10.155  1.00  0.00     0.254 C 
HETATM   12  N   UNL     1      41.585 -10.038  11.162  1.00  0.00    -0.352 N 
HETATM   13  H   UNL     1      42.314  -9.373  10.939  1.00  0.00     0.163 HD
HETATM   14  O   UNL     1      39.889 -11.302  10.253  1.00  0.00    -0.268 OA
BRANCH  12  15
HETATM   15  C   UNL     1      41.730 -10.860  12.359  1.00  0.00     0.084 C 
HETATM   16  C   UNL     1      43.172 -10.806  12.885  1.00  0.00     0.025 C 
HETATM   17  C   UNL     1      43.499  -9.485  13.580  1.00  0.00     0.002 C 
HETATM   18  C   UNL     1      42.500  -9.178  14.690  1.00  0.00     0.000 C 
HETATM   19  C   UNL     1      41.069  -9.176  14.165  1.00  0.00     0.002 C 
HETATM   20  C   UNL     1      40.726 -10.487  13.461  1.00  0.00     0.025 C 
ENDBRANCH  12  15
ENDBRANCH   6  11
ENDBRANCH   2   5
BRANCH   1  21
HETATM   21  C   UNL     1      44.384 -12.839   8.105  1.00  0.00     0.329 C 
HETATM   22  N   UNL     1      43.727 -13.569   7.135  1.00  0.00    -0.239 N 
HETATM   23  H   UNL     1      42.839 -13.218   6.782  1.00  0.00     0.192 HD
HETATM   24  O   UNL     1      45.434 -13.101   8.681  1.00  0.00    -0.261 OA
BRANCH  22  25
HETATM   25  N   UNL     1      44.230 -14.765   6.723  1.00  0.00    -0.183 NA
HETATM   26  C   UNL     1      43.393 -15.549   6.122  1.00  0.00     0.150 C 
BRANCH  26  27
HETATM   27  C   UNL     1      43.796 -16.886   5.636  1.00  0.00    -0.017 A 
HETATM   28  C   UNL     1      44.752 -17.640   6.320  1.00  0.00     0.016 A 
HETATM   29  C   UNL     1      45.105 -18.905   5.845  1.00  0.00     0.037 A 
HETATM   30  C   UNL     1      44.502 -19.429   4.698  1.00  0.00     0.068 A 
HETATM   31  C   UNL     1      43.557 -18.666   4.010  1.00  0.00     0.037 A 
HETATM   32  C   UNL     1      43.202 -17.394   4.478  1.00  0.00     0.016 A 
BRANCH  30  33
HETATM   33  O   UNL     1      44.930 -20.679   4.345  1.00  0.00    -0.356 OA
HETATM   34  C   UNL     1      44.749 -21.711   5.308  1.00  0.00     0.210 C 
ENDBRANCH  30  33
ENDBRANCH  26  27
ENDBRANCH  22  25
ENDBRANCH   1  21
TORSDOF 7
ENDMDL
MODEL 4
REMARK VINA RESULT:      -8.3      2.104      4.872
REMARK  7 active torsions:
REMARK  status: ('A' for Active; 'I' for Inactive)
REMARK    1  A    between atoms: O_2  and  C_3 
REMARK    2  A    between atoms: C_6  and  C_7 
REMARK    3  A    between atoms: N_8  and  N_9 
REMARK       I    between atoms: N_9  and  C_10 
REMARK    4  A    between atoms: C_10  and  C_11 
REMARK       I    between atoms: C_11  and  N_12 
REMARK    5  A    between atoms: N_12  and  C_13 
REMARK    6  A    between atoms: C_14  and  C_15 
REMARK       I    between atoms: C_15  and  N_16 
REMARK    7  A    between atoms: N_16  and  C_17 
ROOT
HETATM    1  C   UNL     1      40.743 -12.448   6.130  1.00  0.00     0.315 C 
HETATM    2  N   UNL     1      41.337 -11.216   6.320  1.00  0.00    -0.318 N 
HETATM    3  O   UNL     1      39.685 -12.872   6.567  1.00  0.00    -0.262 OA
HETATM    4  H   UNL     1      42.327 -11.218   6.072  1.00  0.00     0.169 HD
ENDROOT
BRANCH   2   5
HETATM    5  C   UNL     1      40.868 -10.175   7.145  1.00  0.00     0.051 A 
HETATM    6  C   UNL     1      41.398  -9.786   8.388  1.00  0.00     0.058 A 
HETATM    7  C   UNL     1      40.877  -8.648   9.037  1.00  0.00     0.019 A 
HETATM    8  C   UNL     1      39.813  -7.932   8.493  1.00  0.00     0.001 A 
HETATM    9  C   UNL     1      39.244  -8.354   7.297  1.00  0.00     0.002 A 
HETATM   10  C   UNL     1      39.763  -9.468   6.634  1.00  0.00     0.030 A 
BRANCH   6  11
HETATM   11  C   UNL     1      42.348 -10.577   9.218  1.00  0.00     0.254 C 
HETATM   12  N   UNL     1      41.989 -10.748  10.542  1.00  0.00    -0.352 N 
HETATM   13  H   UNL     1      41.125 -10.326  10.855  1.00  0.00     0.163 HD
HETATM   14  O   UNL     1      43.441 -10.895   8.762  1.00  0.00    -0.268 OA
BRANCH  12  15
HETATM   15  C   UNL     1      42.971 -11.155  11.542  1.00  0.00     0.084 C 
HETATM   16  C   UNL     1      43.932 -10.000  11.861  1.00  0.00     0.025 C 
HETATM   17  C   UNL     1      43.290  -8.917  12.726  1.00  0.00     0.002 C 
HETATM   18  C   UNL     1      42.697  -9.503  14.003  1.00  0.00     0.000 C 
HETATM   19  C   UNL     1      41.700 -10.614  13.693  1.00  0.00     0.002 C 
HETATM   20  C   UNL     1      42.323 -11.704  12.822  1.00  0.00     0.025 C 
ENDBRANCH  12  15
ENDBRANCH   6  11
ENDBRANCH   2   5
BRANCH   1  21
HETATM   21  C   UNL     1      41.650 -13.389   5.319  1.00  0.00     0.329 C 
HETATM   22  N   UNL     1      41.747 -14.649   5.873  1.00  0.00    -0.239 N 
HETATM   23  H   UNL     1      41.246 -14.838   6.739  1.00  0.00     0.192 HD
HETATM   24  O   UNL     1      42.196 -12.951   4.312  1.00  0.00    -0.261 OA
BRANCH  22  25
HETATM   25  N   UNL     1      42.554 -15.586   5.303  1.00  0.00    -0.183 NA
HETATM   26  C   UNL     1      41.964 -16.663   4.894  1.00  0.00     0.150 C 
BRANCH  26  27
HETATM   27  C   UNL     1      42.719 -17.771   4.271  1.00  0.00    -0.017 A 
HETATM   28  C   UNL     1      43.628 -18.527   5.015  1.00  0.00     0.016 A 
HETATM   29  C   UNL     1      44.318 -19.576   4.404  1.00  0.00     0.037 A 
HETATM   30  C   UNL     1      44.100 -19.885   3.059  1.00  0.00     0.068 A 
HETATM   31  C   UNL     1      43.201 -19.117   2.316  1.00  0.00     0.037 A 
HETATM   32  C   UNL     1      42.508 -18.061   2.921  1.00  0.00     0.016 A 
BRANCH  30  33
HETATM   33  O   UNL     1      44.833 -20.939   2.586  1.00  0.00    -0.356 OA
HETATM   34  C   UNL     1      44.167 -21.829   1.699  1.00  0.00     0.210 C 
ENDBRANCH  30  33
ENDBRANCH  26  27
ENDBRANCH  22  25
ENDBRANCH   1  21
TORSDOF 7
ENDMDL
MODEL 5
REMARK VINA RESULT:      -8.1      2.908      9.210
REMARK  7 active torsions:
REMARK  status: ('A' for Active; 'I' for Inactive)
REMARK    1  A    between atoms: O_2  and  C_3 
REMARK    2  A    between atoms: C_6  and  C_7 
REMARK    3  A    between atoms: N_8  and  N_9 
REMARK       I    between atoms: N_9  and  C_10 
REMARK    4  A    between atoms: C_10  and  C_11 
REMARK       I    between atoms: C_11  and  N_12 
REMARK    5  A    between atoms: N_12  and  C_13 
REMARK    6  A    between atoms: C_14  and  C_15 
REMARK       I    between atoms: C_15  and  N_16 
REMARK    7  A    between atoms: N_16  and  C_17 
ROOT
HETATM    1  C   UNL     1      39.557 -11.610   6.423  1.00  0.00     0.315 C 
HETATM    2  N   UNL     1      40.785 -12.196   6.189  1.00  0.00    -0.318 N 
HETATM    3  O   UNL     1      38.592 -11.516   5.681  1.00  0.00    -0.262 OA
HETATM    4  H   UNL     1      41.493 -11.902   6.864  1.00  0.00     0.169 HD
ENDROOT
BRANCH   2   5
HETATM    5  C   UNL     1      41.229 -12.766   4.979  1.00  0.00     0.051 A 
HETATM    6  C   UNL     1      41.387 -14.136   4.705  1.00  0.00     0.058 A 
HETATM    7  C   UNL     1      41.737 -14.546   3.403  1.00  0.00     0.019 A 
HETATM    8  C   UNL     1      41.978 -13.614   2.395  1.00  0.00     0.001 A 
HETATM    9  C   UNL     1      41.886 -12.258   2.680  1.00  0.00     0.002 A 
HETATM   10  C   UNL     1      41.521 -11.838   3.962  1.00  0.00     0.030 A 
BRANCH   6  11
HETATM   11  C   UNL     1      41.418 -15.229   5.715  1.00  0.00     0.254 C 
HETATM   12  N   UNL     1      42.560 -16.010   5.720  1.00  0.00    -0.352 N 
HETATM   13  H   UNL     1      43.281 -15.793   5.045  1.00  0.00     0.163 HD
HETATM   14  O   UNL     1      40.412 -15.491   6.366  1.00  0.00    -0.268 OA
BRANCH  12  15
HETATM   15  C   UNL     1      42.576 -17.318   6.367  1.00  0.00     0.084 C 
HETATM   16  C   UNL     1      42.463 -18.441   5.326  1.00  0.00     0.025 C 
HETATM   17  C   UNL     1      43.758 -18.654   4.543  1.00  0.00     0.002 C 
HETATM   18  C   UNL     1      44.940 -18.891   5.476  1.00  0.00     0.000 C 
HETATM   19  C   UNL     1      45.092 -17.753   6.479  1.00  0.00     0.002 C 
HETATM   20  C   UNL     1      43.805 -17.520   7.267  1.00  0.00     0.025 C 
ENDBRANCH  12  15
ENDBRANCH   6  11
ENDBRANCH   2   5
BRANCH   1  21
HETATM   21  C   UNL     1      39.516 -10.924   7.798  1.00  0.00     0.329 C 
HETATM   22  N   UNL     1      40.523 -11.350   8.640  1.00  0.00    -0.239 N 
HETATM   23  H   UNL     1      41.169 -12.060   8.301  1.00  0.00     0.192 HD
HETATM   24  O   UNL     1      38.624 -10.114   8.022  1.00  0.00    -0.261 OA
BRANCH  22  25
HETATM   25  N   UNL     1      40.595 -10.877   9.915  1.00  0.00    -0.183 NA
HETATM   26  C   UNL     1      41.762 -10.939  10.473  1.00  0.00     0.150 C 
BRANCH  26  27
HETATM   27  C   UNL     1      41.983 -10.478  11.859  1.00  0.00    -0.017 A 
HETATM   28  C   UNL     1      40.993 -10.631  12.832  1.00  0.00     0.016 A 
HETATM   29  C   UNL     1      41.234 -10.196  14.138  1.00  0.00     0.037 A 
HETATM   30  C   UNL     1      42.459  -9.621  14.483  1.00  0.00     0.068 A 
HETATM   31  C   UNL     1      43.440  -9.457  13.503  1.00  0.00     0.037 A 
HETATM   32  C   UNL     1      43.204  -9.886  12.191  1.00  0.00     0.016 A 
BRANCH  30  33
HETATM   33  O   UNL     1      42.569  -9.246  15.794  1.00  0.00    -0.356 OA
HETATM   34  C   UNL     1      41.681  -8.229  16.242  1.00  0.00     0.210 C 
ENDBRANCH  30  33
ENDBRANCH  26  27
ENDBRANCH  22  25
ENDBRANCH   1  21
TORSDOF 7
ENDMDL
MODEL 6
REMARK VINA RESULT:      -8.0      5.686     10.247
REMARK  7 active torsions:
REMARK  status: ('A' for Active; 'I' for Inactive)
REMARK    1  A    between atoms: O_2  and  C_3 
REMARK    2  A    between atoms: C_6  and  C_7 
REMARK    3  A    between atoms: N_8  and  N_9 
REMARK       I    between atoms: N_9  and  C_10 
REMARK    4  A    between atoms: C_10  and  C_11 
REMARK       I    between atoms: C_11  and  N_12 
REMARK    5  A    between atoms: N_12  and  C_13 
REMARK    6  A    between atoms: C_14  and  C_15 
REMARK       I    between atoms: C_15  and  N_16 
REMARK    7  A    between atoms: N_16  and  C_17 
ROOT
HETATM    1  C   UNL     1      43.174 -17.850   1.329  1.00  0.00     0.315 C 
HETATM    2  N   UNL     1      42.717 -19.001   1.941  1.00  0.00    -0.318 N 
HETATM    3  O   UNL     1      44.321 -17.462   1.171  1.00  0.00    -0.262 OA
HETATM    4  H   UNL     1      41.724 -18.950   2.173  1.00  0.00     0.169 HD
ENDROOT
BRANCH   2   5
HETATM    5  C   UNL     1      43.498 -19.970   2.600  1.00  0.00     0.051 A 
HETATM    6  C   UNL     1      43.999 -19.894   3.911  1.00  0.00     0.058 A 
HETATM    7  C   UNL     1      44.673 -21.003   4.461  1.00  0.00     0.019 A 
HETATM    8  C   UNL     1      44.896 -22.155   3.709  1.00  0.00     0.001 A 
HETATM    9  C   UNL     1      44.460 -22.207   2.392  1.00  0.00     0.002 A 
HETATM   10  C   UNL     1      43.773 -21.123   1.841  1.00  0.00     0.030 A 
BRANCH   6  11
HETATM   11  C   UNL     1      44.071 -18.664   4.748  1.00  0.00     0.254 C 
HETATM   12  N   UNL     1      43.000 -17.795   4.632  1.00  0.00    -0.352 N 
HETATM   13  H   UNL     1      42.257 -18.046   3.993  1.00  0.00     0.163 HD
HETATM   14  O   UNL     1      45.101 -18.396   5.356  1.00  0.00    -0.268 OA
BRANCH  12  15
HETATM   15  C   UNL     1      43.103 -16.409   5.077  1.00  0.00     0.084 C 
HETATM   16  C   UNL     1      42.431 -15.464   4.070  1.00  0.00     0.025 C 
HETATM   17  C   UNL     1      40.906 -15.520   4.132  1.00  0.00     0.002 C 
HETATM   18  C   UNL     1      40.396 -15.264   5.546  1.00  0.00     0.000 C 
HETATM   19  C   UNL     1      41.017 -16.235   6.544  1.00  0.00     0.002 C 
HETATM   20  C   UNL     1      42.543 -16.198   6.492  1.00  0.00     0.025 C 
ENDBRANCH  12  15
ENDBRANCH   6  11
ENDBRANCH   2   5
BRANCH   1  21
HETATM   21  C   UNL     1      42.010 -16.945   0.895  1.00  0.00     0.329 C 
HETATM   22  N   UNL     1      42.431 -15.813   0.226  1.00  0.00    -0.239 N 
HETATM   23  H   UNL     1      43.430 -15.672   0.096  1.00  0.00     0.192 HD
HETATM   24  O   UNL     1      40.867 -17.281   1.185  1.00  0.00    -0.261 OA
BRANCH  22  25
HETATM   25  N   UNL     1      41.524 -14.882  -0.179  1.00  0.00    -0.183 NA
HETATM   26  C   UNL     1      41.077 -15.020  -1.386  1.00  0.00     0.150 C 
BRANCH  26  27
HETATM   27  C   UNL     1      40.101 -14.073  -1.964  1.00  0.00    -0.017 A 
HETATM   28  C   UNL     1      38.809 -13.967  -1.443  1.00  0.00     0.016 A 
HETATM   29  C   UNL     1      37.911 -13.054  -2.002  1.00  0.00     0.037 A 
HETATM   30  C   UNL     1      38.296 -12.236  -3.067  1.00  0.00     0.068 A 
HETATM   31  C   UNL     1      39.585 -12.356  -3.593  1.00  0.00     0.037 A 
HETATM   32  C   UNL     1      40.489 -13.273  -3.041  1.00  0.00     0.016 A 
BRANCH  30  33
HETATM   33  O   UNL     1      37.327 -11.382  -3.515  1.00  0.00    -0.356 OA
HETATM   34  C   UNL     1      36.330 -11.938  -4.364  1.00  0.00     0.210 C 
ENDBRANCH  30  33
ENDBRANCH  26  27
ENDBRANCH  22  25
ENDBRANCH   1  21
TORSDOF 7
ENDMDL
MODEL 7
REMARK VINA RESULT:      -7.9      7.573     10.140
REMARK  7 active torsions:
REMARK  status: ('A' for Active; 'I' for Inactive)
REMARK    1  A    between atoms: O_2  and  C_3 
REMARK    2  A    between atoms: C_6  and  C_7 
REMARK    3  A    between atoms: N_8  and  N_9 
REMARK       I    between atoms: N_9  and  C_10 
REMARK    4  A    between atoms: C_10  and  C_11 
REMARK       I    between atoms: C_11  and  N_12 
REMARK    5  A    between atoms: N_12  and  C_13 
REMARK    6  A    between atoms: C_14  and  C_15 
REMARK       I    between atoms: C_15  and  N_16 
REMARK    7  A    between atoms: N_16  and  C_17 
ROOT
HETATM    1  C   UNL     1      40.443 -14.606  -1.208  1.00  0.00     0.315 C 
HETATM    2  N   UNL     1      39.088 -14.342  -1.187  1.00  0.00    -0.318 N 
HETATM    3  O   UNL     1      41.241 -14.483  -2.125  1.00  0.00    -0.262 OA
HETATM    4  H   UNL     1      38.618 -14.780  -0.394  1.00  0.00     0.169 HD
ENDROOT
BRANCH   2   5
HETATM    5  C   UNL     1      38.294 -13.930  -2.275  1.00  0.00     0.051 A 
HETATM    6  C   UNL     1      38.159 -12.620  -2.767  1.00  0.00     0.058 A 
HETATM    7  C   UNL     1      37.407 -12.394  -3.937  1.00  0.00     0.019 A 
HETATM    8  C   UNL     1      36.754 -13.440  -4.588  1.00  0.00     0.001 A 
HETATM    9  C   UNL     1      36.832 -14.725  -4.066  1.00  0.00     0.002 A 
HETATM   10  C   UNL     1      37.590 -14.966  -2.918  1.00  0.00     0.030 A 
BRANCH   6  11
HETATM   11  C   UNL     1      38.571 -11.376  -2.060  1.00  0.00     0.254 C 
HETATM   12  N   UNL     1      39.888 -10.992  -2.239  1.00  0.00    -0.352 N 
HETATM   13  H   UNL     1      40.473 -11.575  -2.823  1.00  0.00     0.163 HD
HETATM   14  O   UNL     1      37.813 -10.851  -1.252  1.00  0.00    -0.268 OA
BRANCH  12  15
HETATM   15  C   UNL     1      40.526 -10.043  -1.333  1.00  0.00     0.084 C 
HETATM   16  C   UNL     1      41.286 -10.781  -0.221  1.00  0.00     0.025 C 
HETATM   17  C   UNL     1      42.590 -11.408  -0.711  1.00  0.00     0.002 C 
HETATM   18  C   UNL     1      43.483 -10.377  -1.391  1.00  0.00     0.000 C 
HETATM   19  C   UNL     1      42.753  -9.678  -2.533  1.00  0.00     0.002 C 
HETATM   20  C   UNL     1      41.442  -9.049  -2.063  1.00  0.00     0.025 C 
ENDBRANCH  12  15
ENDBRANCH   6  11
ENDBRANCH   2   5
BRANCH   1  21
HETATM   21  C   UNL     1      40.916 -15.223   0.119  1.00  0.00     0.329 C 
HETATM   22  N   UNL     1      42.162 -15.809   0.024  1.00  0.00    -0.239 N 
HETATM   23  H   UNL     1      42.634 -15.798  -0.877  1.00  0.00     0.192 HD
HETATM   24  O   UNL     1      40.172 -15.159   1.091  1.00  0.00    -0.261 OA
BRANCH  22  25
HETATM   25  N   UNL     1      42.701 -16.447   1.099  1.00  0.00    -0.183 NA
HETATM   26  C   UNL     1      42.913 -17.715   0.952  1.00  0.00     0.150 C 
BRANCH  26  27
HETATM   27  C   UNL     1      43.478 -18.538   2.042  1.00  0.00    -0.017 A 
HETATM   28  C   UNL     1      43.828 -19.873   1.826  1.00  0.00     0.016 A 
HETATM   29  C   UNL     1      44.371 -20.623   2.872  1.00  0.00     0.037 A 
HETATM   30  C   UNL     1      44.580 -20.049   4.128  1.00  0.00     0.068 A 
HETATM   31  C   UNL     1      44.215 -18.718   4.343  1.00  0.00     0.037 A 
HETATM   32  C   UNL     1      43.665 -17.960   3.300  1.00  0.00     0.016 A 
BRANCH  30  33
HETATM   33  O   UNL     1      45.125 -20.888   5.060  1.00  0.00    -0.356 OA
HETATM   34  C   UNL     1      44.807 -22.269   4.937  1.00  0.00     0.210 C 
ENDBRANCH  30  33
ENDBRANCH  26  27
ENDBRANCH  22  25
ENDBRANCH   1  21
TORSDOF 7
ENDMDL
MODEL 8
REMARK VINA RESULT:      -7.8      8.255     10.776
REMARK  7 active torsions:
REMARK  status: ('A' for Active; 'I' for Inactive)
REMARK    1  A    between atoms: O_2  and  C_3 
REMARK    2  A    between atoms: C_6  and  C_7 
REMARK    3  A    between atoms: N_8  and  N_9 
REMARK       I    between atoms: N_9  and  C_10 
REMARK    4  A    between atoms: C_10  and  C_11 
REMARK       I    between atoms: C_11  and  N_12 
REMARK    5  A    between atoms: N_12  and  C_13 
REMARK    6  A    between atoms: C_14  and  C_15 
REMARK       I    between atoms: C_15  and  N_16 
REMARK    7  A    between atoms: N_16  and  C_17 
ROOT
HETATM    1  C   UNL     1      40.984 -13.858  -0.205  1.00  0.00     0.315 C 
HETATM    2  N   UNL     1      40.870 -14.117  -1.556  1.00  0.00    -0.318 N 
HETATM    3  O   UNL     1      41.056 -12.785   0.374  1.00  0.00    -0.262 OA
HETATM    4  H   UNL     1      41.099 -15.084  -1.790  1.00  0.00     0.169 HD
ENDROOT
BRANCH   2   5
HETATM    5  C   UNL     1      40.884 -13.168  -2.598  1.00  0.00     0.051 A 
HETATM    6  C   UNL     1      39.765 -12.581  -3.213  1.00  0.00     0.058 A 
HETATM    7  C   UNL     1      39.955 -11.563  -4.170  1.00  0.00     0.019 A 
HETATM    8  C   UNL     1      41.235 -11.165  -4.554  1.00  0.00     0.001 A 
HETATM    9  C   UNL     1      42.342 -11.791  -3.995  1.00  0.00     0.002 A 
HETATM   10  C   UNL     1      42.168 -12.787  -3.031  1.00  0.00     0.030 A 
BRANCH   6  11
HETATM   11  C   UNL     1      38.359 -13.060  -3.109  1.00  0.00     0.254 C 
HETATM   12  N   UNL     1      37.568 -12.850  -4.224  1.00  0.00    -0.352 N 
HETATM   13  H   UNL     1      37.988 -12.387  -5.019  1.00  0.00     0.163 HD
HETATM   14  O   UNL     1      37.926 -13.458  -2.032  1.00  0.00    -0.268 OA
BRANCH  12  15
HETATM   15  C   UNL     1      36.113 -12.911  -4.138  1.00  0.00     0.084 C 
HETATM   16  C   UNL     1      35.487 -11.574  -4.558  1.00  0.00     0.025 C 
HETATM   17  C   UNL     1      35.530 -11.350  -6.069  1.00  0.00     0.002 C 
HETATM   18  C   UNL     1      34.894 -12.512  -6.823  1.00  0.00     0.000 C 
HETATM   19  C   UNL     1      35.546 -13.838  -6.451  1.00  0.00     0.002 C 
HETATM   20  C   UNL     1      35.519 -14.077  -4.943  1.00  0.00     0.025 C 
ENDBRANCH  12  15
ENDBRANCH   6  11
ENDBRANCH   2   5
BRANCH   1  21
HETATM   21  C   UNL     1      41.128 -15.158   0.604  1.00  0.00     0.329 C 
HETATM   22  N   UNL     1      42.362 -15.755   0.446  1.00  0.00    -0.239 N 
HETATM   23  H   UNL     1      43.036 -15.314  -0.177  1.00  0.00     0.192 HD
HETATM   24  O   UNL     1      40.173 -15.540   1.271  1.00  0.00    -0.261 OA
BRANCH  22  25
HETATM   25  N   UNL     1      42.630 -16.942   1.055  1.00  0.00    -0.183 NA
HETATM   26  C   UNL     1      43.469 -16.892   2.039  1.00  0.00     0.150 C 
BRANCH  26  27
HETATM   27  C   UNL     1      43.866 -18.107   2.782  1.00  0.00    -0.017 A 
HETATM   28  C   UNL     1      44.163 -19.294   2.108  1.00  0.00     0.016 A 
HETATM   29  C   UNL     1      44.547 -20.424   2.834  1.00  0.00     0.037 A 
HETATM   30  C   UNL     1      44.650 -20.375   4.227  1.00  0.00     0.068 A 
HETATM   31  C   UNL     1      44.339 -19.190   4.896  1.00  0.00     0.037 A 
HETATM   32  C   UNL     1      43.948 -18.054   4.175  1.00  0.00     0.016 A 
BRANCH  30  33
HETATM   33  O   UNL     1      45.043 -21.546   4.815  1.00  0.00    -0.356 OA
HETATM   34  C   UNL     1      44.645 -22.749   4.168  1.00  0.00     0.210 C 
ENDBRANCH  30  33
ENDBRANCH  26  27
ENDBRANCH  22  25
ENDBRANCH   1  21
TORSDOF 7
ENDMDL
MODEL 9
REMARK VINA RESULT:      -7.7      2.690      9.141
REMARK  7 active torsions:
REMARK  status: ('A' for Active; 'I' for Inactive)
REMARK    1  A    between atoms: O_2  and  C_3 
REMARK    2  A    between atoms: C_6  and  C_7 
REMARK    3  A    between atoms: N_8  and  N_9 
REMARK       I    between atoms: N_9  and  C_10 
REMARK    4  A    between atoms: C_10  and  C_11 
REMARK       I    between atoms: C_11  and  N_12 
REMARK    5  A    between atoms: N_12  and  C_13 
REMARK    6  A    between atoms: C_14  and  C_15 
REMARK       I    between atoms: C_15  and  N_16 
REMARK    7  A    between atoms: N_16  and  C_17 
ROOT
HETATM    1  C   UNL     1      40.644 -12.305   4.823  1.00  0.00     0.315 C 
HETATM    2  N   UNL     1      40.302 -13.642   4.871  1.00  0.00    -0.318 N 
HETATM    3  O   UNL     1      41.159 -11.671   3.915  1.00  0.00    -0.262 OA
HETATM    4  H   UNL     1      40.142 -13.969   5.825  1.00  0.00     0.169 HD
ENDROOT
BRANCH   2   5
HETATM    5  C   UNL     1      40.549 -14.609   3.877  1.00  0.00     0.051 A 
HETATM    6  C   UNL     1      41.663 -15.461   3.793  1.00  0.00     0.058 A 
HETATM    7  C   UNL     1      41.704 -16.453   2.792  1.00  0.00     0.019 A 
HETATM    8  C   UNL     1      40.681 -16.570   1.852  1.00  0.00     0.001 A 
HETATM    9  C   UNL     1      39.610 -15.686   1.893  1.00  0.00     0.002 A 
HETATM   10  C   UNL     1      39.548 -14.711   2.892  1.00  0.00     0.030 A 
BRANCH   6  11
HETATM   11  C   UNL     1      42.939 -15.306   4.546  1.00  0.00     0.254 C 
HETATM   12  N   UNL     1      43.421 -16.451   5.153  1.00  0.00    -0.352 N 
HETATM   13  H   UNL     1      42.881 -17.301   5.053  1.00  0.00     0.163 HD
HETATM   14  O   UNL     1      43.409 -14.189   4.730  1.00  0.00    -0.268 OA
BRANCH  12  15
HETATM   15  C   UNL     1      44.420 -16.379   6.214  1.00  0.00     0.084 C 
HETATM   16  C   UNL     1      43.753 -16.115   7.572  1.00  0.00     0.025 C 
HETATM   17  C   UNL     1      43.042 -17.346   8.131  1.00  0.00     0.002 C 
HETATM   18  C   UNL     1      43.982 -18.544   8.207  1.00  0.00     0.000 C 
HETATM   19  C   UNL     1      44.607 -18.847   6.851  1.00  0.00     0.002 C 
HETATM   20  C   UNL     1      45.317 -17.624   6.272  1.00  0.00     0.025 C 
ENDBRANCH  12  15
ENDBRANCH   6  11
ENDBRANCH   2   5
BRANCH   1  21
HETATM   21  C   UNL     1      40.393 -11.613   6.173  1.00  0.00     0.329 C 
HETATM   22  N   UNL     1      41.538 -11.486   6.932  1.00  0.00    -0.239 N 
HETATM   23  H   UNL     1      42.410 -11.857   6.559  1.00  0.00     0.192 HD
HETATM   24  O   UNL     1      39.249 -11.269   6.450  1.00  0.00    -0.261 OA
BRANCH  22  25
HETATM   25  N   UNL     1      41.476 -10.941   8.178  1.00  0.00    -0.183 NA
HETATM   26  C   UNL     1      42.612 -10.784   8.780  1.00  0.00     0.150 C 
BRANCH  26  27
HETATM   27  C   UNL     1      42.693 -10.219  10.143  1.00  0.00    -0.017 A 
HETATM   28  C   UNL     1      41.765  -9.274  10.585  1.00  0.00     0.016 A 
HETATM   29  C   UNL     1      41.859  -8.767  11.883  1.00  0.00     0.037 A 
HETATM   30  C   UNL     1      42.866  -9.204  12.748  1.00  0.00     0.068 A 
HETATM   31  C   UNL     1      43.800 -10.138  12.297  1.00  0.00     0.037 A 
HETATM   32  C   UNL     1      43.715 -10.648  10.995  1.00  0.00     0.016 A 
BRANCH  30  33
HETATM   33  O   UNL     1      42.841  -8.635  13.992  1.00  0.00    -0.356 OA
HETATM   34  C   UNL     1      42.468  -9.482  15.072  1.00  0.00     0.210 C 
ENDBRANCH  30  33
ENDBRANCH  26  27
ENDBRANCH  22  25
ENDBRANCH   1  21
TORSDOF 7
ENDMDL
MODEL 10
REMARK VINA RESULT:      -7.7      6.385      9.772
REMARK  7 active torsions:
REMARK  status: ('A' for Active; 'I' for Inactive)
REMARK    1  A    between atoms: O_2  and  C_3 
REMARK    2  A    between atoms: C_6  and  C_7 
REMARK    3  A    between atoms: N_8  and  N_9 
REMARK       I    between atoms: N_9  and  C_10 
REMARK    4  A    between atoms: C_10  and  C_11 
REMARK       I    between atoms: C_11  and  N_12 
REMARK    5  A    between atoms: N_12  and  C_13 
REMARK    6  A    between atoms: C_14  and  C_15 
REMARK       I    between atoms: C_15  and  N_16 
REMARK    7  A    between atoms: N_16  and  C_17 
ROOT
HETATM    1  C   UNL     1      41.086 -16.264   1.517  1.00  0.00     0.315 C 
HETATM    2  N   UNL     1      42.441 -16.451   1.705  1.00  0.00    -0.318 N 
HETATM    3  O   UNL     1      40.146 -16.851   2.029  1.00  0.00    -0.262 OA
HETATM    4  H   UNL     1      43.000 -16.022   0.967  1.00  0.00     0.169 HD
ENDROOT
BRANCH   2   5
HETATM    5  C   UNL     1      43.051 -17.441   2.500  1.00  0.00     0.051 A 
HETATM    6  C   UNL     1      43.171 -17.437   3.901  1.00  0.00     0.058 A 
HETATM    7  C   UNL     1      43.714 -18.562   4.553  1.00  0.00     0.019 A 
HETATM    8  C   UNL     1      44.181 -19.659   3.829  1.00  0.00     0.001 A 
HETATM    9  C   UNL     1      44.123 -19.637   2.442  1.00  0.00     0.002 A 
HETATM   10  C   UNL     1      43.569 -18.536   1.784  1.00  0.00     0.030 A 
BRANCH   6  11
HETATM   11  C   UNL     1      42.962 -16.262   4.791  1.00  0.00     0.254 C 
HETATM   12  N   UNL     1      41.853 -15.485   4.509  1.00  0.00    -0.352 N 
HETATM   13  H   UNL     1      41.273 -15.758   3.727  1.00  0.00     0.163 HD
HETATM   14  O   UNL     1      43.827 -15.945   5.600  1.00  0.00    -0.268 OA
BRANCH  12  15
HETATM   15  C   UNL     1      41.732 -14.126   5.029  1.00  0.00     0.084 C 
HETATM   16  C   UNL     1      42.666 -13.170   4.273  1.00  0.00     0.025 C 
HETATM   17  C   UNL     1      42.157 -12.831   2.872  1.00  0.00     0.002 C 
HETATM   18  C   UNL     1      40.734 -12.286   2.914  1.00  0.00     0.000 C 
HETATM   19  C   UNL     1      39.789 -13.255   3.615  1.00  0.00     0.002 C 
HETATM   20  C   UNL     1      40.285 -13.612   5.016  1.00  0.00     0.025 C 
ENDBRANCH  12  15
ENDBRANCH   6  11
ENDBRANCH   2   5
BRANCH   1  21
HETATM   21  C   UNL     1      40.811 -15.214   0.428  1.00  0.00     0.329 C 
HETATM   22  N   UNL     1      41.883 -15.029  -0.422  1.00  0.00    -0.239 N 
HETATM   23  H   UNL     1      42.731 -15.567  -0.255  1.00  0.00     0.192 HD
HETATM   24  O   UNL     1      39.724 -14.647   0.422  1.00  0.00    -0.261 OA
BRANCH  22  25
HETATM   25  N   UNL     1      41.819 -14.095  -1.410  1.00  0.00    -0.183 NA
HETATM   26  C   UNL     1      42.440 -12.984  -1.174  1.00  0.00     0.150 C 
BRANCH  26  27
HETATM   27  C   UNL     1      42.441 -11.875  -2.151  1.00  0.00    -0.017 A 
HETATM   28  C   UNL     1      42.628 -10.554  -1.735  1.00  0.00     0.016 A 
HETATM   29  C   UNL     1      42.636  -9.526  -2.682  1.00  0.00     0.037 A 
HETATM   30  C   UNL     1      42.473  -9.807  -4.041  1.00  0.00     0.068 A 
HETATM   31  C   UNL     1      42.273 -11.128  -4.449  1.00  0.00     0.037 A 
HETATM   32  C   UNL     1      42.258 -12.163  -3.505  1.00  0.00     0.016 A 
BRANCH  30  33
HETATM   33  O   UNL     1      42.509  -8.714  -4.862  1.00  0.00    -0.356 OA
HETATM   34  C   UNL     1      42.454  -7.441  -4.230  1.00  0.00     0.210 C 
ENDBRANCH  30  33
ENDBRANCH  26  27
ENDBRANCH  22  25
ENDBRANCH   1  21
TORSDOF 7
ENDMDL
