MODEL 1
REMARK VINA RESULT:      -9.0      0.000      0.000
REMARK  6 active torsions:
REMARK  status: ('A' for Active; 'I' for Inactive)
REMARK    1  A    between atoms: C_4  and  O_5 
REMARK    2  A    between atoms: O_5  and  C_6 
REMARK    3  A    between atoms: C_6  and  C_7 
REMARK       I    between atoms: C_7  and  N_8 
REMARK    4  A    between atoms: N_8  and  C_9 
REMARK    5  A    between atoms: C_16  and  C_17 
REMARK       I    between atoms: C_17  and  N_18 
REMARK    6  A    between atoms: C_23  and  C_24 
ROOT
HETATM    1  C   UNL     1      41.418 -16.289   3.308  1.00  0.00     0.246 C 
HETATM    2  N   UNL     1      40.566 -16.481   2.233  1.00  0.00    -0.325 N 
HETATM    3  O   UNL     1      41.824 -15.213   3.736  1.00  0.00    -0.271 OA
HETATM    4  H   UNL     1      40.227 -17.430   2.111  1.00  0.00     0.169 HD
ENDROOT
BRANCH   2   5
HETATM    5  C   UNL     1      40.114 -15.508   1.315  1.00  0.00     0.035 A 
HETATM    6  C   UNL     1      40.721 -15.278   0.071  1.00  0.00     0.046 A 
HETATM    7  C   UNL     1      40.174 -14.323  -0.813  1.00  0.00     0.030 A 
HETATM    8  C   UNL     1      39.039 -13.623  -0.423  1.00  0.00     0.063 A 
HETATM    9  C   UNL     1      40.482 -13.834  -2.119  1.00  0.00     0.156 A 
HETATM   10  N   UNL     1      38.751 -12.791  -1.469  1.00  0.00    -0.277 N 
HETATM   11  C   UNL     1      38.410 -13.819   0.809  1.00  0.00     0.034 A 
HETATM   12  H   UNL     1      37.984 -12.132  -1.536  1.00  0.00     0.189 HD
HETATM   13  N   UNL     1      39.597 -12.888  -2.509  1.00  0.00    -0.168 NA
HETATM   14  C   UNL     1      38.971 -14.777   1.666  1.00  0.00     0.032 A 
BRANCH   9  15
HETATM   15  C   UNL     1      41.589 -14.252  -2.992  1.00  0.00     0.270 C 
HETATM   16  N   UNL     1      42.664 -13.404  -2.975  1.00  0.00    -0.365 N 
HETATM   17  H   UNL     1      42.624 -12.580  -2.387  1.00  0.00     0.159 HD
HETATM   18  H   UNL     1      43.469 -13.610  -3.546  1.00  0.00     0.159 HD
HETATM   19  O   UNL     1      41.589 -15.258  -3.692  1.00  0.00    -0.266 OA
ENDBRANCH   9  15
ENDBRANCH   2   5
BRANCH   1  20
HETATM   20  C   UNL     1      41.945 -17.599   3.891  1.00  0.00     0.278 C 
BRANCH  20  21
HETATM   21  O   UNL     1      43.368 -17.694   3.817  1.00  0.00    -0.342 OA
BRANCH  21  22
HETATM   22  C   UNL     1      43.808 -18.997   3.865  1.00  0.00     0.076 A 
HETATM   23  C   UNL     1      43.840 -19.789   2.707  1.00  0.00     0.044 A 
HETATM   24  C   UNL     1      44.303 -21.108   2.746  1.00  0.00    -0.059 A 
HETATM   25  C   UNL     1      44.365 -21.943   1.502  1.00  0.00     0.048 C 
HETATM   26  C   UNL     1      44.700 -21.646   3.970  1.00  0.00     0.007 A 
HETATM   27  C   UNL     1      44.634 -20.876   5.133  1.00  0.00     0.011 A 
HETATM   28  C   UNL     1      44.183 -19.541   5.106  1.00  0.00    -0.021 A 
BRANCH  28  29
HETATM   29  C   UNL     1      44.165 -18.772   6.419  1.00  0.00     0.013 C 
HETATM   30  C   UNL     1      43.814 -19.668   7.608  1.00  0.00     0.015 C 
HETATM   31  C   UNL     1      45.455 -17.987   6.666  1.00  0.00     0.015 C 
ENDBRANCH  28  29
ENDBRANCH  21  22
ENDBRANCH  20  21
ENDBRANCH   1  20
TORSDOF 6
ENDMDL
MODEL 2
REMARK VINA RESULT:      -8.9      1.613      2.086
REMARK  6 active torsions:
REMARK  status: ('A' for Active; 'I' for Inactive)
REMARK    1  A    between atoms: C_4  and  O_5 
REMARK    2  A    between atoms: O_5  and  C_6 
REMARK    3  A    between atoms: C_6  and  C_7 
REMARK       I    between atoms: C_7  and  N_8 
REMARK    4  A    between atoms: N_8  and  C_9 
REMARK    5  A    between atoms: C_16  and  C_17 
REMARK       I    between atoms: C_17  and  N_18 
REMARK    6  A    between atoms: C_23  and  C_24 
ROOT
HETATM    1  C   UNL     1      40.916 -16.619   2.085  1.00  0.00     0.246 C 
HETATM    2  N   UNL     1      41.798 -16.089   1.157  1.00  0.00    -0.325 N 
HETATM    3  O   UNL     1      39.697 -16.481   2.095  1.00  0.00    -0.271 OA
HETATM    4  H   UNL     1      42.754 -16.424   1.227  1.00  0.00     0.169 HD
ENDROOT
BRANCH   2   5
HETATM    5  C   UNL     1      41.508 -15.163   0.132  1.00  0.00     0.035 A 
HETATM    6  C   UNL     1      40.696 -15.463  -0.972  1.00  0.00     0.046 A 
HETATM    7  C   UNL     1      40.410 -14.463  -1.927  1.00  0.00     0.030 A 
HETATM    8  C   UNL     1      40.950 -13.195  -1.751  1.00  0.00     0.063 A 
HETATM    9  C   UNL     1      39.646 -14.378  -3.130  1.00  0.00     0.156 A 
HETATM   10  N   UNL     1      40.501 -12.461  -2.812  1.00  0.00    -0.277 N 
HETATM   11  C   UNL     1      41.767 -12.860  -0.668  1.00  0.00     0.034 A 
HETATM   12  H   UNL     1      40.695 -11.485  -3.010  1.00  0.00     0.189 HD
HETATM   13  N   UNL     1      39.713 -13.137  -3.666  1.00  0.00    -0.168 NA
HETATM   14  C   UNL     1      42.031 -13.871   0.268  1.00  0.00     0.032 A 
BRANCH   9  15
HETATM   15  C   UNL     1      38.858 -15.443  -3.767  1.00  0.00     0.270 C 
HETATM   16  N   UNL     1      37.598 -15.591  -3.251  1.00  0.00    -0.365 N 
HETATM   17  H   UNL     1      37.308 -14.982  -2.494  1.00  0.00     0.159 HD
HETATM   18  H   UNL     1      36.986 -16.299  -3.626  1.00  0.00     0.159 HD
HETATM   19  O   UNL     1      39.255 -16.160  -4.679  1.00  0.00    -0.266 OA
ENDBRANCH   9  15
ENDBRANCH   2   5
BRANCH   1  20
HETATM   20  C   UNL     1      41.621 -17.336   3.235  1.00  0.00     0.278 C 
BRANCH  20  21
HETATM   21  O   UNL     1      43.042 -17.336   3.087  1.00  0.00    -0.342 OA
BRANCH  21  22
HETATM   22  C   UNL     1      43.590 -18.578   3.316  1.00  0.00     0.076 A 
HETATM   23  C   UNL     1      43.564 -19.570   2.324  1.00  0.00     0.044 A 
HETATM   24  C   UNL     1      44.136 -20.827   2.545  1.00  0.00    -0.059 A 
HETATM   25  C   UNL     1      44.134 -21.876   1.472  1.00  0.00     0.048 C 
HETATM   26  C   UNL     1      44.703 -21.100   3.789  1.00  0.00     0.007 A 
HETATM   27  C   UNL     1      44.698 -20.130   4.794  1.00  0.00     0.011 A 
HETATM   28  C   UNL     1      44.137 -18.854   4.581  1.00  0.00    -0.021 A 
BRANCH  28  29
HETATM   29  C   UNL     1      44.196 -17.854   5.726  1.00  0.00     0.013 C 
HETATM   30  C   UNL     1      42.947 -17.913   6.607  1.00  0.00     0.015 C 
HETATM   31  C   UNL     1      45.476 -17.971   6.554  1.00  0.00     0.015 C 
ENDBRANCH  28  29
ENDBRANCH  21  22
ENDBRANCH  20  21
ENDBRANCH   1  20
TORSDOF 6
ENDMDL
MODEL 3
REMARK VINA RESULT:      -8.8      1.141      2.871
REMARK  6 active torsions:
REMARK  status: ('A' for Active; 'I' for Inactive)
REMARK    1  A    between atoms: C_4  and  O_5 
REMARK    2  A    between atoms: O_5  and  C_6 
REMARK    3  A    between atoms: C_6  and  C_7 
REMARK       I    between atoms: C_7  and  N_8 
REMARK    4  A    between atoms: N_8  and  C_9 
REMARK    5  A    between atoms: C_16  and  C_17 
REMARK       I    between atoms: C_17  and  N_18 
REMARK    6  A    between atoms: C_23  and  C_24 
ROOT
HETATM    1  C   UNL     1      40.656 -14.992   3.529  1.00  0.00     0.246 C 
HETATM    2  N   UNL     1      39.847 -15.506   2.529  1.00  0.00    -0.325 N 
HETATM    3  O   UNL     1      41.054 -13.835   3.624  1.00  0.00    -0.271 OA
HETATM    4  H   UNL     1      39.504 -16.448   2.689  1.00  0.00     0.169 HD
ENDROOT
BRANCH   2   5
HETATM    5  C   UNL     1      39.443 -14.862   1.339  1.00  0.00     0.035 A 
HETATM    6  C   UNL     1      40.215 -14.847   0.168  1.00  0.00     0.046 A 
HETATM    7  C   UNL     1      39.715 -14.226  -0.997  1.00  0.00     0.030 A 
HETATM    8  C   UNL     1      38.459 -13.634  -0.953  1.00  0.00     0.063 A 
HETATM    9  C   UNL     1      40.175 -14.023  -2.333  1.00  0.00     0.156 A 
HETATM   10  N   UNL     1      38.252 -13.132  -2.207  1.00  0.00    -0.277 N 
HETATM   11  C   UNL     1      37.663 -13.624   0.196  1.00  0.00     0.034 A 
HETATM   12  H   UNL     1      37.436 -12.633  -2.542  1.00  0.00     0.189 HD
HETATM   13  N   UNL     1      39.263 -13.344  -3.067  1.00  0.00    -0.168 NA
HETATM   14  C   UNL     1      38.182 -14.252   1.337  1.00  0.00     0.032 A 
BRANCH   9  15
HETATM   15  C   UNL     1      41.450 -14.464  -2.917  1.00  0.00     0.270 C 
HETATM   16  N   UNL     1      42.479 -13.578  -2.744  1.00  0.00    -0.365 N 
HETATM   17  H   UNL     1      42.298 -12.713  -2.248  1.00  0.00     0.159 HD
HETATM   18  H   UNL     1      43.391 -13.796  -3.114  1.00  0.00     0.159 HD
HETATM   19  O   UNL     1      41.620 -15.520  -3.516  1.00  0.00    -0.266 OA
ENDBRANCH   9  15
ENDBRANCH   2   5
BRANCH   1  20
HETATM   20  C   UNL     1      41.145 -16.059   4.507  1.00  0.00     0.278 C 
BRANCH  20  21
HETATM   21  O   UNL     1      41.461 -17.290   3.855  1.00  0.00    -0.342 OA
BRANCH  21  22
HETATM   22  C   UNL     1      42.481 -17.966   4.484  1.00  0.00     0.076 A 
HETATM   23  C   UNL     1      42.725 -17.787   5.855  1.00  0.00     0.044 A 
HETATM   24  C   UNL     1      43.748 -18.486   6.504  1.00  0.00    -0.059 A 
HETATM   25  C   UNL     1      43.988 -18.317   7.975  1.00  0.00     0.048 C 
HETATM   26  C   UNL     1      44.557 -19.342   5.757  1.00  0.00     0.007 A 
HETATM   27  C   UNL     1      44.344 -19.496   4.385  1.00  0.00     0.011 A 
HETATM   28  C   UNL     1      43.309 -18.808   3.721  1.00  0.00    -0.021 A 
BRANCH  28  29
HETATM   29  C   UNL     1      43.138 -19.054   2.229  1.00  0.00     0.013 C 
HETATM   30  C   UNL     1      43.873 -18.011   1.386  1.00  0.00     0.015 C 
HETATM   31  C   UNL     1      43.510 -20.478   1.814  1.00  0.00     0.015 C 
ENDBRANCH  28  29
ENDBRANCH  21  22
ENDBRANCH  20  21
ENDBRANCH   1  20
TORSDOF 6
ENDMDL
MODEL 4
REMARK VINA RESULT:      -8.7      2.138      3.066
REMARK  6 active torsions:
REMARK  status: ('A' for Active; 'I' for Inactive)
REMARK    1  A    between atoms: C_4  and  O_5 
REMARK    2  A    between atoms: O_5  and  C_6 
REMARK    3  A    between atoms: C_6  and  C_7 
REMARK       I    between atoms: C_7  and  N_8 
REMARK    4  A    between atoms: N_8  and  C_9 
REMARK    5  A    between atoms: C_16  and  C_17 
REMARK       I    between atoms: C_17  and  N_18 
REMARK    6  A    between atoms: C_23  and  C_24 
ROOT
HETATM    1  C   UNL     1      41.873 -16.794   0.619  1.00  0.00     0.246 C 
HETATM    2  N   UNL     1      42.024 -15.909  -0.436  1.00  0.00    -0.325 N 
HETATM    3  O   UNL     1      40.835 -17.350   0.964  1.00  0.00    -0.271 OA
HETATM    4  H   UNL     1      42.982 -15.658  -0.659  1.00  0.00     0.169 HD
ENDROOT
BRANCH   2   5
HETATM    5  C   UNL     1      41.003 -15.345  -1.232  1.00  0.00     0.035 A 
HETATM    6  C   UNL     1      40.053 -14.438  -0.740  1.00  0.00     0.046 A 
HETATM    7  C   UNL     1      39.097 -13.877  -1.614  1.00  0.00     0.030 A 
HETATM    8  C   UNL     1      39.118 -14.244  -2.954  1.00  0.00     0.063 A 
HETATM    9  C   UNL     1      38.020 -12.947  -1.501  1.00  0.00     0.156 A 
HETATM   10  N   UNL     1      38.097 -13.547  -3.536  1.00  0.00    -0.277 N 
HETATM   11  C   UNL     1      40.046 -15.147  -3.480  1.00  0.00     0.034 A 
HETATM   12  H   UNL     1      37.818 -13.565  -4.511  1.00  0.00     0.189 HD
HETATM   13  N   UNL     1      37.411 -12.755  -2.695  1.00  0.00    -0.168 NA
HETATM   14  C   UNL     1      40.987 -15.686  -2.591  1.00  0.00     0.032 A 
BRANCH   9  15
HETATM   15  C   UNL     1      37.569 -12.242  -0.292  1.00  0.00     0.270 C 
HETATM   16  N   UNL     1      36.990 -13.056   0.645  1.00  0.00    -0.365 N 
HETATM   17  H   UNL     1      36.913 -14.047   0.448  1.00  0.00     0.159 HD
HETATM   18  H   UNL     1      36.649 -12.659   1.507  1.00  0.00     0.159 HD
HETATM   19  O   UNL     1      37.679 -11.037  -0.100  1.00  0.00    -0.266 OA
ENDBRANCH   9  15
ENDBRANCH   2   5
BRANCH   1  20
HETATM   20  C   UNL     1      43.145 -16.950   1.451  1.00  0.00     0.278 C 
BRANCH  20  21
HETATM   21  O   UNL     1      42.872 -17.370   2.789  1.00  0.00    -0.342 OA
BRANCH  21  22
HETATM   22  C   UNL     1      43.463 -18.576   3.087  1.00  0.00     0.076 A 
HETATM   23  C   UNL     1      43.490 -19.617   2.146  1.00  0.00     0.044 A 
HETATM   24  C   UNL     1      44.106 -20.839   2.437  1.00  0.00    -0.059 A 
HETATM   25  C   UNL     1      44.161 -21.939   1.419  1.00  0.00     0.048 C 
HETATM   26  C   UNL     1      44.664 -21.027   3.701  1.00  0.00     0.007 A 
HETATM   27  C   UNL     1      44.607 -20.009   4.656  1.00  0.00     0.011 A 
HETATM   28  C   UNL     1      44.001 -18.768   4.371  1.00  0.00    -0.021 A 
BRANCH  28  29
HETATM   29  C   UNL     1      44.004 -17.711   5.466  1.00  0.00     0.013 C 
HETATM   30  C   UNL     1      42.649 -17.603   6.166  1.00  0.00     0.015 C 
HETATM   31  C   UNL     1      45.144 -17.895   6.469  1.00  0.00     0.015 C 
ENDBRANCH  28  29
ENDBRANCH  21  22
ENDBRANCH  20  21
ENDBRANCH   1  20
TORSDOF 6
ENDMDL
MODEL 5
REMARK VINA RESULT:      -8.5      2.089      2.615
REMARK  6 active torsions:
REMARK  status: ('A' for Active; 'I' for Inactive)
REMARK    1  A    between atoms: C_4  and  O_5 
REMARK    2  A    between atoms: O_5  and  C_6 
REMARK    3  A    between atoms: C_6  and  C_7 
REMARK       I    between atoms: C_7  and  N_8 
REMARK    4  A    between atoms: N_8  and  C_9 
REMARK    5  A    between atoms: C_16  and  C_17 
REMARK       I    between atoms: C_17  and  N_18 
REMARK    6  A    between atoms: C_23  and  C_24 
ROOT
HETATM    1  C   UNL     1      40.809 -16.500   1.746  1.00  0.00     0.246 C 
HETATM    2  N   UNL     1      41.625 -16.378   0.633  1.00  0.00    -0.325 N 
HETATM    3  O   UNL     1      39.752 -15.909   1.945  1.00  0.00    -0.271 OA
HETATM    4  H   UNL     1      42.386 -17.047   0.577  1.00  0.00     0.169 HD
ENDROOT
BRANCH   2   5
HETATM    5  C   UNL     1      41.499 -15.449  -0.423  1.00  0.00     0.035 A 
HETATM    6  C   UNL     1      41.914 -14.112  -0.329  1.00  0.00     0.046 A 
HETATM    7  C   UNL     1      41.803 -13.260  -1.449  1.00  0.00     0.030 A 
HETATM    8  C   UNL     1      41.275 -13.771  -2.629  1.00  0.00     0.063 A 
HETATM    9  C   UNL     1      42.116 -11.899  -1.742  1.00  0.00     0.156 A 
HETATM   10  N   UNL     1      41.299 -12.732  -3.515  1.00  0.00    -0.277 N 
HETATM   11  C   UNL     1      40.846 -15.095  -2.759  1.00  0.00     0.034 A 
HETATM   12  H   UNL     1      40.990 -12.740  -4.481  1.00  0.00     0.189 HD
HETATM   13  N   UNL     1      41.797 -11.586  -3.019  1.00  0.00    -0.168 NA
HETATM   14  C   UNL     1      40.972 -15.920  -1.632  1.00  0.00     0.032 A 
BRANCH   9  15
HETATM   15  C   UNL     1      42.712 -10.903  -0.838  1.00  0.00     0.270 C 
HETATM   16  N   UNL     1      41.840 -10.400   0.090  1.00  0.00    -0.365 N 
HETATM   17  H   UNL     1      40.883 -10.732   0.089  1.00  0.00     0.159 HD
HETATM   18  H   UNL     1      42.161  -9.709   0.751  1.00  0.00     0.159 HD
HETATM   19  O   UNL     1      43.877 -10.527  -0.879  1.00  0.00    -0.266 OA
ENDBRANCH   9  15
ENDBRANCH   2   5
BRANCH   1  20
HETATM   20  C   UNL     1      41.413 -17.388   2.832  1.00  0.00     0.278 C 
BRANCH  20  21
HETATM   21  O   UNL     1      42.838 -17.305   2.872  1.00  0.00    -0.342 OA
BRANCH  21  22
HETATM   22  C   UNL     1      43.424 -18.523   3.133  1.00  0.00     0.076 A 
HETATM   23  C   UNL     1      43.429 -19.540   2.165  1.00  0.00     0.044 A 
HETATM   24  C   UNL     1      44.040 -20.773   2.417  1.00  0.00    -0.059 A 
HETATM   25  C   UNL     1      44.071 -21.848   1.372  1.00  0.00     0.048 C 
HETATM   26  C   UNL     1      44.615 -20.997   3.668  1.00  0.00     0.007 A 
HETATM   27  C   UNL     1      44.579 -20.003   4.648  1.00  0.00     0.011 A 
HETATM   28  C   UNL     1      43.980 -18.751   4.404  1.00  0.00    -0.021 A 
BRANCH  28  29
HETATM   29  C   UNL     1      44.007 -17.721   5.523  1.00  0.00     0.013 C 
HETATM   30  C   UNL     1      42.719 -17.732   6.348  1.00  0.00     0.015 C 
HETATM   31  C   UNL     1      45.246 -17.840   6.412  1.00  0.00     0.015 C 
ENDBRANCH  28  29
ENDBRANCH  21  22
ENDBRANCH  20  21
ENDBRANCH   1  20
TORSDOF 6
ENDMDL
MODEL 6
REMARK VINA RESULT:      -8.4      3.746      5.463
REMARK  6 active torsions:
REMARK  status: ('A' for Active; 'I' for Inactive)
REMARK    1  A    between atoms: C_4  and  O_5 
REMARK    2  A    between atoms: O_5  and  C_6 
REMARK    3  A    between atoms: C_6  and  C_7 
REMARK       I    between atoms: C_7  and  N_8 
REMARK    4  A    between atoms: N_8  and  C_9 
REMARK    5  A    between atoms: C_16  and  C_17 
REMARK       I    between atoms: C_17  and  N_18 
REMARK    6  A    between atoms: C_23  and  C_24 
ROOT
HETATM    1  C   UNL     1      41.272 -16.141   4.424  1.00  0.00     0.246 C 
HETATM    2  N   UNL     1      40.261 -15.438   3.790  1.00  0.00    -0.325 N 
HETATM    3  O   UNL     1      41.898 -15.783   5.418  1.00  0.00    -0.271 OA
HETATM    4  H   UNL     1      39.763 -15.950   3.069  1.00  0.00     0.169 HD
ENDROOT
BRANCH   2   5
HETATM    5  C   UNL     1      39.847 -14.114   4.048  1.00  0.00     0.035 A 
HETATM    6  C   UNL     1      39.848 -13.540   5.329  1.00  0.00     0.046 A 
HETATM    7  C   UNL     1      39.469 -12.190   5.495  1.00  0.00     0.030 A 
HETATM    8  C   UNL     1      39.096 -11.457   4.376  1.00  0.00     0.063 A 
HETATM    9  C   UNL     1      39.359 -11.280   6.590  1.00  0.00     0.156 A 
HETATM   10  N   UNL     1      38.795 -10.209   4.846  1.00  0.00    -0.277 N 
HETATM   11  C   UNL     1      39.077 -11.994   3.086  1.00  0.00     0.034 A 
HETATM   12  H   UNL     1      38.485  -9.408   4.307  1.00  0.00     0.189 HD
HETATM   13  N   UNL     1      38.939 -10.062   6.174  1.00  0.00    -0.168 NA
HETATM   14  C   UNL     1      39.462 -13.336   2.949  1.00  0.00     0.032 A 
BRANCH   9  15
HETATM   15  C   UNL     1      39.648 -11.545   8.007  1.00  0.00     0.270 C 
HETATM   16  N   UNL     1      38.882 -12.537   8.557  1.00  0.00    -0.365 N 
HETATM   17  H   UNL     1      38.195 -13.001   7.974  1.00  0.00     0.159 HD
HETATM   18  H   UNL     1      39.010 -12.787   9.525  1.00  0.00     0.159 HD
HETATM   19  O   UNL     1      40.488 -10.953   8.674  1.00  0.00    -0.266 OA
ENDBRANCH   9  15
ENDBRANCH   2   5
BRANCH   1  20
HETATM   20  C   UNL     1      41.661 -17.422   3.688  1.00  0.00     0.278 C 
BRANCH  20  21
HETATM   21  O   UNL     1      43.048 -17.457   3.353  1.00  0.00    -0.342 OA
BRANCH  21  22
HETATM   22  C   UNL     1      43.586 -18.716   3.489  1.00  0.00     0.076 A 
HETATM   23  C   UNL     1      43.542 -19.636   2.429  1.00  0.00     0.044 A 
HETATM   24  C   UNL     1      44.103 -20.911   2.554  1.00  0.00    -0.059 A 
HETATM   25  C   UNL     1      44.082 -21.881   1.411  1.00  0.00     0.048 C 
HETATM   26  C   UNL     1      44.678 -21.276   3.771  1.00  0.00     0.007 A 
HETATM   27  C   UNL     1      44.692 -20.379   4.842  1.00  0.00     0.011 A 
HETATM   28  C   UNL     1      44.142 -19.087   4.725  1.00  0.00    -0.021 A 
BRANCH  28  29
HETATM   29  C   UNL     1      44.221 -18.171   5.938  1.00  0.00     0.013 C 
HETATM   30  C   UNL     1      43.273 -18.611   7.055  1.00  0.00     0.015 C 
HETATM   31  C   UNL     1      45.649 -17.984   6.451  1.00  0.00     0.015 C 
ENDBRANCH  28  29
ENDBRANCH  21  22
ENDBRANCH  20  21
ENDBRANCH   1  20
TORSDOF 6
ENDMDL
MODEL 7
REMARK VINA RESULT:      -8.3      1.797      3.414
REMARK  6 active torsions:
REMARK  status: ('A' for Active; 'I' for Inactive)
REMARK    1  A    between atoms: C_4  and  O_5 
REMARK    2  A    between atoms: O_5  and  C_6 
REMARK    3  A    between atoms: C_6  and  C_7 
REMARK       I    between atoms: C_7  and  N_8 
REMARK    4  A    between atoms: N_8  and  C_9 
REMARK    5  A    between atoms: C_16  and  C_17 
REMARK       I    between atoms: C_17  and  N_18 
REMARK    6  A    between atoms: C_23  and  C_24 
ROOT
HETATM    1  C   UNL     1      40.576 -15.257   2.945  1.00  0.00     0.246 C 
HETATM    2  N   UNL     1      41.212 -15.586   1.759  1.00  0.00    -0.325 N 
HETATM    3  O   UNL     1      39.760 -14.355   3.110  1.00  0.00    -0.271 OA
HETATM    4  H   UNL     1      41.747 -16.448   1.778  1.00  0.00     0.169 HD
ENDROOT
BRANCH   2   5
HETATM    5  C   UNL     1      41.179 -14.870   0.543  1.00  0.00     0.035 A 
HETATM    6  C   UNL     1      40.485 -15.310  -0.594  1.00  0.00     0.046 A 
HETATM    7  C   UNL     1      40.457 -14.508  -1.756  1.00  0.00     0.030 A 
HETATM    8  C   UNL     1      41.128 -13.292  -1.746  1.00  0.00     0.063 A 
HETATM    9  C   UNL     1      39.872 -14.600  -3.055  1.00  0.00     0.156 A 
HETATM   10  N   UNL     1      40.918 -12.753  -2.984  1.00  0.00    -0.277 N 
HETATM   11  C   UNL     1      41.833 -12.822  -0.635  1.00  0.00     0.034 A 
HETATM   12  H   UNL     1      41.260 -11.865  -3.334  1.00  0.00     0.189 HD
HETATM   13  N   UNL     1      40.168 -13.511  -3.803  1.00  0.00    -0.168 NA
HETATM   14  C   UNL     1      41.841 -13.636   0.507  1.00  0.00     0.032 A 
BRANCH   9  15
HETATM   15  C   UNL     1      39.043 -15.690  -3.589  1.00  0.00     0.270 C 
HETATM   16  N   UNL     1      39.607 -16.932  -3.466  1.00  0.00    -0.365 N 
HETATM   17  H   UNL     1      40.520 -17.011  -3.035  1.00  0.00     0.159 HD
HETATM   18  H   UNL     1      39.110 -17.740  -3.806  1.00  0.00     0.159 HD
HETATM   19  O   UNL     1      37.942 -15.545  -4.109  1.00  0.00    -0.266 OA
ENDBRANCH   9  15
ENDBRANCH   2   5
BRANCH   1  20
HETATM   20  C   UNL     1      41.079 -16.070   4.136  1.00  0.00     0.278 C 
BRANCH  20  21
HETATM   21  O   UNL     1      41.265 -17.449   3.814  1.00  0.00    -0.342 OA
BRANCH  21  22
HETATM   22  C   UNL     1      42.348 -17.995   4.463  1.00  0.00     0.076 A 
HETATM   23  C   UNL     1      42.550 -17.776   5.835  1.00  0.00     0.044 A 
HETATM   24  C   UNL     1      43.639 -18.344   6.504  1.00  0.00    -0.059 A 
HETATM   25  C   UNL     1      43.837 -18.134   7.976  1.00  0.00     0.048 C 
HETATM   26  C   UNL     1      44.553 -19.107   5.777  1.00  0.00     0.007 A 
HETATM   27  C   UNL     1      44.378 -19.297   4.405  1.00  0.00     0.011 A 
HETATM   28  C   UNL     1      43.279 -18.742   3.720  1.00  0.00    -0.021 A 
BRANCH  28  29
HETATM   29  C   UNL     1      43.158 -19.020   2.229  1.00  0.00     0.013 C 
HETATM   30  C   UNL     1      43.894 -17.976   1.387  1.00  0.00     0.015 C 
HETATM   31  C   UNL     1      43.575 -20.443   1.853  1.00  0.00     0.015 C 
ENDBRANCH  28  29
ENDBRANCH  21  22
ENDBRANCH  20  21
ENDBRANCH   1  20
TORSDOF 6
ENDMDL
MODEL 8
REMARK VINA RESULT:      -8.1      2.659      3.853
REMARK  6 active torsions:
REMARK  status: ('A' for Active; 'I' for Inactive)
REMARK    1  A    between atoms: C_4  and  O_5 
REMARK    2  A    between atoms: O_5  and  C_6 
REMARK    3  A    between atoms: C_6  and  C_7 
REMARK       I    between atoms: C_7  and  N_8 
REMARK    4  A    between atoms: N_8  and  C_9 
REMARK    5  A    between atoms: C_16  and  C_17 
REMARK       I    between atoms: C_17  and  N_18 
REMARK    6  A    between atoms: C_23  and  C_24 
ROOT
HETATM    1  C   UNL     1      41.636 -16.070   2.799  1.00  0.00     0.246 C 
HETATM    2  N   UNL     1      40.291 -15.837   3.032  1.00  0.00    -0.325 N 
HETATM    3  O   UNL     1      42.449 -15.268   2.350  1.00  0.00    -0.271 OA
HETATM    4  H   UNL     1      39.804 -16.572   3.537  1.00  0.00     0.169 HD
ENDROOT
BRANCH   2   5
HETATM    5  C   UNL     1      39.543 -14.698   2.664  1.00  0.00     0.035 A 
HETATM    6  C   UNL     1      39.602 -13.479   3.356  1.00  0.00     0.046 A 
HETATM    7  C   UNL     1      38.863 -12.369   2.892  1.00  0.00     0.030 A 
HETATM    8  C   UNL     1      38.083 -12.515   1.751  1.00  0.00     0.063 A 
HETATM    9  C   UNL     1      38.681 -11.012   3.296  1.00  0.00     0.156 A 
HETATM   10  N   UNL     1      37.504 -11.293   1.551  1.00  0.00    -0.277 N 
HETATM   11  C   UNL     1      37.995 -13.713   1.038  1.00  0.00     0.034 A 
HETATM   12  H   UNL     1      36.869 -11.029   0.806  1.00  0.00     0.189 HD
HETATM   13  N   UNL     1      37.837 -10.362   2.461  1.00  0.00    -0.168 NA
HETATM   14  C   UNL     1      38.743 -14.798   1.519  1.00  0.00     0.032 A 
BRANCH   9  15
HETATM   15  C   UNL     1      39.292 -10.331   4.447  1.00  0.00     0.270 C 
HETATM   16  N   UNL     1      40.616 -10.025   4.275  1.00  0.00    -0.365 N 
HETATM   17  H   UNL     1      41.065 -10.280   3.404  1.00  0.00     0.159 HD
HETATM   18  H   UNL     1      41.118  -9.558   5.014  1.00  0.00     0.159 HD
HETATM   19  O   UNL     1      38.708 -10.047   5.486  1.00  0.00    -0.266 OA
ENDBRANCH   9  15
ENDBRANCH   2   5
BRANCH   1  20
HETATM   20  C   UNL     1      42.040 -17.523   3.044  1.00  0.00     0.278 C 
BRANCH  20  21
HETATM   21  O   UNL     1      43.332 -17.634   3.643  1.00  0.00    -0.342 OA
BRANCH  21  22
HETATM   22  C   UNL     1      43.763 -18.939   3.713  1.00  0.00     0.076 A 
HETATM   23  C   UNL     1      43.778 -19.755   2.570  1.00  0.00     0.044 A 
HETATM   24  C   UNL     1      44.234 -21.076   2.632  1.00  0.00    -0.059 A 
HETATM   25  C   UNL     1      44.277 -21.936   1.404  1.00  0.00     0.048 C 
HETATM   26  C   UNL     1      44.640 -21.592   3.862  1.00  0.00     0.007 A 
HETATM   27  C   UNL     1      44.591 -20.798   5.010  1.00  0.00     0.011 A 
HETATM   28  C   UNL     1      44.148 -19.461   4.960  1.00  0.00    -0.021 A 
BRANCH  28  29
HETATM   29  C   UNL     1      44.150 -18.665   6.257  1.00  0.00     0.013 C 
HETATM   30  C   UNL     1      43.764 -19.526   7.462  1.00  0.00     0.015 C 
HETATM   31  C   UNL     1      45.462 -17.917   6.496  1.00  0.00     0.015 C 
ENDBRANCH  28  29
ENDBRANCH  21  22
ENDBRANCH  20  21
ENDBRANCH   1  20
TORSDOF 6
ENDMDL
MODEL 9
REMARK VINA RESULT:      -8.1      6.084      9.406
REMARK  6 active torsions:
REMARK  status: ('A' for Active; 'I' for Inactive)
REMARK    1  A    between atoms: C_4  and  O_5 
REMARK    2  A    between atoms: O_5  and  C_6 
REMARK    3  A    between atoms: C_6  and  C_7 
REMARK       I    between atoms: C_7  and  N_8 
REMARK    4  A    between atoms: N_8  and  C_9 
REMARK    5  A    between atoms: C_16  and  C_17 
REMARK       I    between atoms: C_17  and  N_18 
REMARK    6  A    between atoms: C_23  and  C_24 
ROOT
HETATM    1  C   UNL     1      44.750 -13.661   7.650  1.00  0.00     0.246 C 
HETATM    2  N   UNL     1      43.796 -14.660   7.544  1.00  0.00    -0.325 N 
HETATM    3  O   UNL     1      45.732 -13.510   6.930  1.00  0.00    -0.271 OA
HETATM    4  H   UNL     1      42.980 -14.545   8.137  1.00  0.00     0.169 HD
ENDROOT
BRANCH   2   5
HETATM    5  C   UNL     1      43.831 -15.791   6.700  1.00  0.00     0.035 A 
HETATM    6  C   UNL     1      43.062 -15.907   5.533  1.00  0.00     0.046 A 
HETATM    7  C   UNL     1      43.195 -17.049   4.714  1.00  0.00     0.030 A 
HETATM    8  C   UNL     1      44.090 -18.042   5.090  1.00  0.00     0.063 A 
HETATM    9  C   UNL     1      42.621 -17.510   3.490  1.00  0.00     0.156 A 
HETATM   10  N   UNL     1      44.001 -18.997   4.116  1.00  0.00    -0.277 N 
HETATM   11  C   UNL     1      44.870 -17.964   6.247  1.00  0.00     0.034 A 
HETATM   12  H   UNL     1      44.517 -19.869   4.061  1.00  0.00     0.189 HD
HETATM   13  N   UNL     1      43.127 -18.715   3.136  1.00  0.00    -0.168 NA
HETATM   14  C   UNL     1      44.721 -16.817   7.040  1.00  0.00     0.032 A 
BRANCH   9  15
HETATM   15  C   UNL     1      41.616 -16.830   2.660  1.00  0.00     0.270 C 
HETATM   16  N   UNL     1      40.392 -16.700   3.260  1.00  0.00    -0.365 N 
HETATM   17  H   UNL     1      40.267 -17.069   4.195  1.00  0.00     0.159 HD
HETATM   18  H   UNL     1      39.640 -16.247   2.764  1.00  0.00     0.159 HD
HETATM   19  O   UNL     1      41.813 -16.404   1.528  1.00  0.00    -0.266 OA
ENDBRANCH   9  15
ENDBRANCH   2   5
BRANCH   1  20
HETATM   20  C   UNL     1      44.547 -12.771   8.875  1.00  0.00     0.278 C 
BRANCH  20  21
HETATM   21  O   UNL     1      44.286 -11.411   8.522  1.00  0.00    -0.342 OA
BRANCH  21  22
HETATM   22  C   UNL     1      43.464 -10.785   9.432  1.00  0.00     0.076 A 
HETATM   23  C   UNL     1      43.851 -10.646  10.774  1.00  0.00     0.044 A 
HETATM   24  C   UNL     1      43.029  -9.994  11.698  1.00  0.00    -0.059 A 
HETATM   25  C   UNL     1      43.457  -9.819  13.125  1.00  0.00     0.048 C 
HETATM   26  C   UNL     1      41.790  -9.514  11.276  1.00  0.00     0.007 A 
HETATM   27  C   UNL     1      41.382  -9.683   9.951  1.00  0.00     0.011 A 
HETATM   28  C   UNL     1      42.206 -10.326   9.005  1.00  0.00    -0.021 A 
BRANCH  28  29
HETATM   29  C   UNL     1      41.688 -10.446   7.580  1.00  0.00     0.013 C 
HETATM   30  C   UNL     1      40.398 -11.264   7.502  1.00  0.00     0.015 C 
HETATM   31  C   UNL     1      41.540  -9.092   6.884  1.00  0.00     0.015 C 
ENDBRANCH  28  29
ENDBRANCH  21  22
ENDBRANCH  20  21
ENDBRANCH   1  20
TORSDOF 6
ENDMDL
MODEL 10
REMARK VINA RESULT:      -8.0      2.186      3.922
REMARK  6 active torsions:
REMARK  status: ('A' for Active; 'I' for Inactive)
REMARK    1  A    between atoms: C_4  and  O_5 
REMARK    2  A    between atoms: O_5  and  C_6 
REMARK    3  A    between atoms: C_6  and  C_7 
REMARK       I    between atoms: C_7  and  N_8 
REMARK    4  A    between atoms: N_8  and  C_9 
REMARK    5  A    between atoms: C_16  and  C_17 
REMARK       I    between atoms: C_17  and  N_18 
REMARK    6  A    between atoms: C_23  and  C_24 
ROOT
HETATM    1  C   UNL     1      40.382 -15.902   1.679  1.00  0.00     0.246 C 
HETATM    2  N   UNL     1      41.329 -15.966   0.669  1.00  0.00    -0.325 N 
HETATM    3  O   UNL     1      39.345 -15.245   1.666  1.00  0.00    -0.271 OA
HETATM    4  H   UNL     1      42.051 -16.669   0.796  1.00  0.00     0.169 HD
ENDROOT
BRANCH   2   5
HETATM    5  C   UNL     1      41.383 -15.184  -0.505  1.00  0.00     0.035 A 
HETATM    6  C   UNL     1      41.829 -13.855  -0.527  1.00  0.00     0.046 A 
HETATM    7  C   UNL     1      41.904 -13.158  -1.752  1.00  0.00     0.030 A 
HETATM    8  C   UNL     1      41.525 -13.812  -2.918  1.00  0.00     0.063 A 
HETATM    9  C   UNL     1      42.304 -11.853  -2.171  1.00  0.00     0.156 A 
HETATM   10  N   UNL     1      41.709 -12.900  -3.920  1.00  0.00    -0.277 N 
HETATM   11  C   UNL     1      41.071 -15.133  -2.936  1.00  0.00     0.034 A 
HETATM   12  H   UNL     1      41.536 -13.031  -4.910  1.00  0.00     0.189 HD
HETATM   13  N   UNL     1      42.176 -11.708  -3.511  1.00  0.00    -0.168 NA
HETATM   14  C   UNL     1      41.011 -15.803  -1.705  1.00  0.00     0.032 A 
BRANCH   9  15
HETATM   15  C   UNL     1      42.805 -10.757  -1.329  1.00  0.00     0.270 C 
HETATM   16  N   UNL     1      41.827  -9.922  -0.858  1.00  0.00    -0.365 N 
HETATM   17  H   UNL     1      40.865 -10.108  -1.114  1.00  0.00     0.159 HD
HETATM   18  H   UNL     1      42.079  -9.141  -0.273  1.00  0.00     0.159 HD
HETATM   19  O   UNL     1      43.984 -10.568  -1.051  1.00  0.00    -0.266 OA
ENDBRANCH   9  15
ENDBRANCH   2   5
BRANCH   1  20
HETATM   20  C   UNL     1      40.801 -16.660   2.937  1.00  0.00     0.278 C 
BRANCH  20  21
HETATM   21  O   UNL     1      42.012 -16.154   3.499  1.00  0.00    -0.342 OA
BRANCH  21  22
HETATM   22  C   UNL     1      42.615 -17.061   4.342  1.00  0.00     0.076 A 
HETATM   23  C   UNL     1      42.660 -16.836   5.727  1.00  0.00     0.044 A 
HETATM   24  C   UNL     1      43.254 -17.763   6.589  1.00  0.00    -0.059 A 
HETATM   25  C   UNL     1      43.274 -17.536   8.072  1.00  0.00     0.048 C 
HETATM   26  C   UNL     1      43.842 -18.906   6.048  1.00  0.00     0.007 A 
HETATM   27  C   UNL     1      43.835 -19.116   4.668  1.00  0.00     0.011 A 
HETATM   28  C   UNL     1      43.228 -18.198   3.788  1.00  0.00    -0.021 A 
BRANCH  28  29
HETATM   29  C   UNL     1      43.249 -18.520   2.301  1.00  0.00     0.013 C 
HETATM   30  C   UNL     1      44.237 -17.639   1.534  1.00  0.00     0.015 C 
HETATM   31  C   UNL     1      43.481 -20.005   2.017  1.00  0.00     0.015 C 
ENDBRANCH  28  29
ENDBRANCH  21  22
ENDBRANCH  20  21
ENDBRANCH   1  20
TORSDOF 6
ENDMDL
