MODEL 1
REMARK VINA RESULT:     -10.6      0.000      0.000
REMARK  6 active torsions:
REMARK  status: ('A' for Active; 'I' for Inactive)
REMARK    1  A    between atoms: N_1  and  C_2 
REMARK    2  A    between atoms: C_6  and  C_8 
REMARK    3  A    between atoms: C_13  and  C_18 
REMARK    4  A    between atoms: C_24  and  C_28 
REMARK       I    between atoms: C_28  and  N_30 
REMARK    5  A    between atoms: N_30  and  C_31 
REMARK    6  A    between atoms: C_31  and  C_32 
ROOT
HETATM    1  C   UNL     1      41.730 -12.070   4.108  1.00  0.00     0.084 C 
HETATM    2  C   UNL     1      40.456 -12.024   4.950  1.00  0.00     0.188 C 
HETATM    3  O   UNL     1      39.838 -13.306   5.137  1.00  0.00    -0.350 OA
HETATM    4  C   UNL     1      40.691 -14.330   5.450  1.00  0.00     0.075 A 
HETATM    5  C   UNL     1      40.091 -15.516   5.873  1.00  0.00     0.038 A 
HETATM    6  C   UNL     1      40.873 -16.639   6.162  1.00  0.00     0.020 A 
HETATM    7  C   UNL     1      42.265 -16.574   6.040  1.00  0.00     0.032 A 
HETATM    8  C   UNL     1      42.857 -15.382   5.594  1.00  0.00     0.027 A 
HETATM    9  C   UNL     1      42.075 -14.260   5.280  1.00  0.00    -0.023 A 
HETATM   10  C   UNL     1      42.736 -13.005   4.779  1.00  0.00     0.056 C 
ENDROOT
BRANCH   1  11
HETATM   11  C   UNL     1      41.487 -12.459   2.674  1.00  0.00     0.111 A 
HETATM   12  N   UNL     1      42.419 -12.677   1.765  1.00  0.00    -0.233 NA
HETATM   13  C   UNL     1      41.749 -13.070   0.632  1.00  0.00     0.085 A 
HETATM   14  C   UNL     1      42.241 -13.443  -0.624  1.00  0.00     0.035 A 
HETATM   15  C   UNL     1      40.379 -13.077   0.844  1.00  0.00     0.063 A 
HETATM   16  C   UNL     1      41.326 -13.818  -1.624  1.00  0.00     0.016 A 
HETATM   17  C   UNL     1      39.933 -13.829  -1.402  1.00  0.00    -0.005 A 
HETATM   18  C   UNL     1      39.450 -13.439  -0.134  1.00  0.00     0.045 A 
HETATM   19  N   UNL     1      40.236 -12.678   2.146  1.00  0.00    -0.342 N 
HETATM   20  H   UNL     1      39.361 -12.582   2.645  1.00  0.00     0.167 HD
BRANCH  17  21
HETATM   21  C   UNL     1      38.979 -14.232  -2.457  1.00  0.00     0.071 A 
HETATM   22  C   UNL     1      37.752 -13.624  -2.632  1.00  0.00     0.052 A 
HETATM   23  C   UNL     1      36.979 -14.105  -3.661  1.00  0.00     0.122 A 
HETATM   24  N   UNL     1      37.362 -15.107  -4.470  1.00  0.00    -0.231 NA
HETATM   25  C   UNL     1      38.570 -15.621  -4.242  1.00  0.00     0.199 A 
HETATM   26  N   UNL     1      39.392 -15.238  -3.264  1.00  0.00    -0.218 NA
BRANCH  25  27
HETATM   27  N   UNL     1      38.983 -16.664  -5.047  1.00  0.00    -0.271 NA
HETATM   28  H   UNL     1      39.991 -16.665  -5.096  1.00  0.00     0.127 HD
HETATM   29  H   UNL     1      38.477 -16.628  -5.921  1.00  0.00     0.127 HD
ENDBRANCH  25  27
ENDBRANCH  17  21
ENDBRANCH   1  11
BRANCH   7  30
HETATM   30  C   UNL     1      43.159 -17.736   6.324  1.00  0.00     0.251 C 
HETATM   31  O   UNL     1      43.101 -18.295   7.415  1.00  0.00    -0.268 OA
HETATM   32  N   UNL     1      44.000 -18.142   5.314  1.00  0.00    -0.353 N 
HETATM   33  H   UNL     1      43.985 -17.694   4.411  1.00  0.00     0.163 HD
BRANCH  32  34
HETATM   34  C   UNL     1      44.938 -19.229   5.487  1.00  0.00     0.161 C 
BRANCH  34  35
HETATM   35  C   UNL     1      44.733 -20.275   4.424  1.00  0.00    -0.041 A 
HETATM   36  C   UNL     1      44.350 -19.896   3.129  1.00  0.00     0.009 A 
HETATM   37  C   UNL     1      44.147 -20.859   2.140  1.00  0.00     0.001 A 
HETATM   38  C   UNL     1      44.313 -22.211   2.439  1.00  0.00     0.000 A 
HETATM   39  C   UNL     1      44.679 -22.600   3.725  1.00  0.00     0.001 A 
HETATM   40  C   UNL     1      44.887 -21.638   4.716  1.00  0.00     0.009 A 
ENDBRANCH  34  35
ENDBRANCH  32  34
ENDBRANCH   7  30
TORSDOF 6
ENDMDL
MODEL 2
REMARK VINA RESULT:     -10.0      4.423      9.046
REMARK  6 active torsions:
REMARK  status: ('A' for Active; 'I' for Inactive)
REMARK    1  A    between atoms: N_1  and  C_2 
REMARK    2  A    between atoms: C_6  and  C_8 
REMARK    3  A    between atoms: C_13  and  C_18 
REMARK    4  A    between atoms: C_24  and  C_28 
REMARK       I    between atoms: C_28  and  N_30 
REMARK    5  A    between atoms: N_30  and  C_31 
REMARK    6  A    between atoms: C_31  and  C_32 
ROOT
HETATM    1  C   UNL     1      41.145 -13.234   2.838  1.00  0.00     0.084 C 
HETATM    2  C   UNL     1      39.635 -13.302   3.064  1.00  0.00     0.188 C 
HETATM    3  O   UNL     1      39.260 -13.445   4.442  1.00  0.00    -0.350 OA
HETATM    4  C   UNL     1      39.932 -12.639   5.321  1.00  0.00     0.075 A 
HETATM    5  C   UNL     1      39.417 -12.585   6.616  1.00  0.00     0.038 A 
HETATM    6  C   UNL     1      40.064 -11.835   7.603  1.00  0.00     0.020 A 
HETATM    7  C   UNL     1      41.227 -11.121   7.292  1.00  0.00     0.032 A 
HETATM    8  C   UNL     1      41.748 -11.198   5.991  1.00  0.00     0.027 A 
HETATM    9  C   UNL     1      41.116 -11.968   5.003  1.00  0.00    -0.023 A 
HETATM   10  C   UNL     1      41.713 -12.053   3.625  1.00  0.00     0.056 C 
ENDROOT
BRANCH   1  11
HETATM   11  C   UNL     1      41.859 -14.516   3.175  1.00  0.00     0.111 A 
HETATM   12  N   UNL     1      42.486 -14.775   4.308  1.00  0.00    -0.233 NA
HETATM   13  C   UNL     1      42.923 -16.072   4.203  1.00  0.00     0.085 A 
HETATM   14  C   UNL     1      43.627 -16.864   5.118  1.00  0.00     0.035 A 
HETATM   15  C   UNL     1      42.574 -16.615   2.976  1.00  0.00     0.063 A 
HETATM   16  C   UNL     1      43.949 -18.185   4.759  1.00  0.00     0.016 A 
HETATM   17  C   UNL     1      43.586 -18.736   3.512  1.00  0.00    -0.005 A 
HETATM   18  C   UNL     1      42.887 -17.922   2.595  1.00  0.00     0.045 A 
HETATM   19  N   UNL     1      41.905 -15.605   2.338  1.00  0.00    -0.342 N 
HETATM   20  H   UNL     1      41.493 -15.657   1.415  1.00  0.00     0.167 HD
BRANCH  17  21
HETATM   21  C   UNL     1      43.921 -20.129   3.148  1.00  0.00     0.071 A 
HETATM   22  C   UNL     1      43.749 -20.634   1.875  1.00  0.00     0.052 A 
HETATM   23  C   UNL     1      44.113 -21.945   1.689  1.00  0.00     0.122 A 
HETATM   24  N   UNL     1      44.611 -22.722   2.666  1.00  0.00    -0.231 NA
HETATM   25  C   UNL     1      44.764 -22.146   3.859  1.00  0.00     0.199 A 
HETATM   26  N   UNL     1      44.429 -20.887   4.148  1.00  0.00    -0.218 NA
BRANCH  25  27
HETATM   27  N   UNL     1      45.257 -22.925   4.886  1.00  0.00    -0.271 NA
HETATM   28  H   UNL     1      45.778 -22.340   5.523  1.00  0.00     0.127 HD
HETATM   29  H   UNL     1      45.735 -23.724   4.495  1.00  0.00     0.127 HD
ENDBRANCH  25  27
ENDBRANCH  17  21
ENDBRANCH   1  11
BRANCH   7  30
HETATM   30  C   UNL     1      41.972 -10.307   8.298  1.00  0.00     0.251 C 
HETATM   31  O   UNL     1      41.882  -9.083   8.276  1.00  0.00    -0.268 OA
HETATM   32  N   UNL     1      42.715 -10.991   9.232  1.00  0.00    -0.353 N 
HETATM   33  H   UNL     1      42.724 -11.998   9.254  1.00  0.00     0.163 HD
BRANCH  32  34
HETATM   34  C   UNL     1      43.509 -10.308  10.229  1.00  0.00     0.161 C 
BRANCH  34  35
HETATM   35  C   UNL     1      42.829 -10.364  11.571  1.00  0.00    -0.041 A 
HETATM   36  C   UNL     1      43.452  -9.807  12.698  1.00  0.00     0.009 A 
HETATM   37  C   UNL     1      42.837  -9.864  13.949  1.00  0.00     0.001 A 
HETATM   38  C   UNL     1      41.598 -10.488  14.088  1.00  0.00     0.000 A 
HETATM   39  C   UNL     1      40.977 -11.058  12.979  1.00  0.00     0.001 A 
HETATM   40  C   UNL     1      41.589 -11.000  11.726  1.00  0.00     0.009 A 
ENDBRANCH  34  35
ENDBRANCH  32  34
ENDBRANCH   7  30
TORSDOF 6
ENDMDL
MODEL 3
REMARK VINA RESULT:      -9.7      4.368      8.498
REMARK  6 active torsions:
REMARK  status: ('A' for Active; 'I' for Inactive)
REMARK    1  A    between atoms: N_1  and  C_2 
REMARK    2  A    between atoms: C_6  and  C_8 
REMARK    3  A    between atoms: C_13  and  C_18 
REMARK    4  A    between atoms: C_24  and  C_28 
REMARK       I    between atoms: C_28  and  N_30 
REMARK    5  A    between atoms: N_30  and  C_31 
REMARK    6  A    between atoms: C_31  and  C_32 
ROOT
HETATM    1  C   UNL     1      39.330 -12.082   3.378  1.00  0.00     0.084 C 
HETATM    2  C   UNL     1      40.324 -11.639   2.305  1.00  0.00     0.188 C 
HETATM    3  O   UNL     1      41.686 -11.983   2.598  1.00  0.00    -0.350 OA
HETATM    4  C   UNL     1      41.884 -13.254   3.067  1.00  0.00     0.075 A 
HETATM    5  C   UNL     1      43.209 -13.685   3.123  1.00  0.00     0.038 A 
HETATM    6  C   UNL     1      43.522 -14.946   3.640  1.00  0.00     0.020 A 
HETATM    7  C   UNL     1      42.501 -15.790   4.093  1.00  0.00     0.032 A 
HETATM    8  C   UNL     1      41.173 -15.339   4.051  1.00  0.00     0.027 A 
HETATM    9  C   UNL     1      40.857 -14.065   3.555  1.00  0.00    -0.023 A 
HETATM   10  C   UNL     1      39.427 -13.599   3.548  1.00  0.00     0.056 C 
ENDROOT
BRANCH   1  11
HETATM   11  C   UNL     1      39.508 -11.368   4.691  1.00  0.00     0.111 A 
HETATM   12  N   UNL     1      39.337 -10.076   4.896  1.00  0.00    -0.233 NA
HETATM   13  C   UNL     1      39.537  -9.882   6.241  1.00  0.00     0.085 A 
HETATM   14  C   UNL     1      39.462  -8.712   7.005  1.00  0.00     0.035 A 
HETATM   15  C   UNL     1      39.855 -11.076   6.871  1.00  0.00     0.063 A 
HETATM   16  C   UNL     1      39.707  -8.792   8.388  1.00  0.00     0.016 A 
HETATM   17  C   UNL     1      40.024 -10.009   9.026  1.00  0.00    -0.005 A 
HETATM   18  C   UNL     1      40.107 -11.179   8.241  1.00  0.00     0.045 A 
HETATM   19  N   UNL     1      39.838 -12.004   5.865  1.00  0.00    -0.342 N 
HETATM   20  H   UNL     1      40.015 -12.994   5.969  1.00  0.00     0.167 HD
BRANCH  17  21
HETATM   21  C   UNL     1      40.271 -10.085  10.482  1.00  0.00     0.071 A 
HETATM   22  C   UNL     1      40.729  -9.013  11.222  1.00  0.00     0.052 A 
HETATM   23  C   UNL     1      40.903  -9.236  12.567  1.00  0.00     0.122 A 
HETATM   24  N   UNL     1      40.652 -10.415  13.161  1.00  0.00    -0.231 NA
HETATM   25  C   UNL     1      40.193 -11.388  12.374  1.00  0.00     0.199 A 
HETATM   26  N   UNL     1      40.002 -11.280  11.058  1.00  0.00    -0.218 NA
BRANCH  25  27
HETATM   27  N   UNL     1      39.942 -12.614  12.955  1.00  0.00    -0.271 NA
HETATM   28  H   UNL     1      39.251 -12.501  13.683  1.00  0.00     0.127 HD
HETATM   29  H   UNL     1      40.819 -13.045  13.212  1.00  0.00     0.127 HD
ENDBRANCH  25  27
ENDBRANCH  17  21
ENDBRANCH   1  11
BRANCH   7  30
HETATM   30  C   UNL     1      42.763 -17.144   4.663  1.00  0.00     0.251 C 
HETATM   31  O   UNL     1      41.874 -17.731   5.271  1.00  0.00    -0.268 OA
HETATM   32  N   UNL     1      44.010 -17.684   4.448  1.00  0.00    -0.353 N 
HETATM   33  H   UNL     1      44.701 -17.199   3.899  1.00  0.00     0.163 HD
BRANCH  32  34
HETATM   34  C   UNL     1      44.391 -18.972   4.986  1.00  0.00     0.161 C 
BRANCH  34  35
HETATM   35  C   UNL     1      44.285 -20.037   3.928  1.00  0.00    -0.041 A 
HETATM   36  C   UNL     1      44.722 -21.343   4.198  1.00  0.00     0.009 A 
HETATM   37  C   UNL     1      44.639 -22.334   3.220  1.00  0.00     0.001 A 
HETATM   38  C   UNL     1      44.129 -22.029   1.959  1.00  0.00     0.000 A 
HETATM   39  C   UNL     1      43.706 -20.732   1.674  1.00  0.00     0.001 A 
HETATM   40  C   UNL     1      43.785 -19.738   2.652  1.00  0.00     0.009 A 
ENDBRANCH  34  35
ENDBRANCH  32  34
ENDBRANCH   7  30
TORSDOF 6
ENDMDL
MODEL 4
REMARK VINA RESULT:      -9.7      5.332      9.520
REMARK  6 active torsions:
REMARK  status: ('A' for Active; 'I' for Inactive)
REMARK    1  A    between atoms: N_1  and  C_2 
REMARK    2  A    between atoms: C_6  and  C_8 
REMARK    3  A    between atoms: C_13  and  C_18 
REMARK    4  A    between atoms: C_24  and  C_28 
REMARK       I    between atoms: C_28  and  N_30 
REMARK    5  A    between atoms: N_30  and  C_31 
REMARK    6  A    between atoms: C_31  and  C_32 
ROOT
HETATM    1  C   UNL     1      39.243 -12.229   5.470  1.00  0.00     0.084 C 
HETATM    2  C   UNL     1      39.666 -11.787   4.070  1.00  0.00     0.188 C 
HETATM    3  O   UNL     1      41.074 -11.920   3.820  1.00  0.00    -0.350 OA
HETATM    4  C   UNL     1      41.638 -13.093   4.243  1.00  0.00     0.075 A 
HETATM    5  C   UNL     1      42.935 -13.342   3.795  1.00  0.00     0.038 A 
HETATM    6  C   UNL     1      43.621 -14.486   4.215  1.00  0.00     0.020 A 
HETATM    7  C   UNL     1      43.002 -15.396   5.080  1.00  0.00     0.032 A 
HETATM    8  C   UNL     1      41.704 -15.126   5.541  1.00  0.00     0.027 A 
HETATM    9  C   UNL     1      41.021 -13.968   5.140  1.00  0.00    -0.023 A 
HETATM   10  C   UNL     1      39.641 -13.692   5.671  1.00  0.00     0.056 C 
ENDROOT
BRANCH   1  11
HETATM   11  C   UNL     1      39.790 -11.353   6.565  1.00  0.00     0.111 A 
HETATM   12  N   UNL     1      39.970 -10.048   6.492  1.00  0.00    -0.233 NA
HETATM   13  C   UNL     1      40.418  -9.664   7.732  1.00  0.00     0.085 A 
HETATM   14  C   UNL     1      40.748  -8.393   8.219  1.00  0.00     0.035 A 
HETATM   15  C   UNL     1      40.532 -10.756   8.578  1.00  0.00     0.063 A 
HETATM   16  C   UNL     1      41.178  -8.272   9.552  1.00  0.00     0.016 A 
HETATM   17  C   UNL     1      41.286  -9.386  10.411  1.00  0.00    -0.005 A 
HETATM   18  C   UNL     1      40.961 -10.662   9.904  1.00  0.00     0.045 A 
HETATM   19  N   UNL     1      40.134 -11.819   7.812  1.00  0.00    -0.342 N 
HETATM   20  H   UNL     1      40.080 -12.782   8.117  1.00  0.00     0.167 HD
BRANCH  17  21
HETATM   21  C   UNL     1      41.731  -9.247  11.815  1.00  0.00     0.071 A 
HETATM   22  C   UNL     1      43.015  -9.540  12.227  1.00  0.00     0.052 A 
HETATM   23  C   UNL     1      43.280  -9.353  13.563  1.00  0.00     0.122 A 
HETATM   24  N   UNL     1      42.367  -8.913  14.445  1.00  0.00    -0.231 NA
HETATM   25  C   UNL     1      41.158  -8.634  13.955  1.00  0.00     0.199 A 
HETATM   26  N   UNL     1      40.795  -8.793  12.681  1.00  0.00    -0.218 NA
BRANCH  25  27
HETATM   27  N   UNL     1      40.195  -8.196  14.841  1.00  0.00    -0.271 NA
HETATM   28  H   UNL     1      40.614  -7.542  15.487  1.00  0.00     0.127 HD
HETATM   29  H   UNL     1      39.719  -8.995  15.235  1.00  0.00     0.127 HD
ENDBRANCH  25  27
ENDBRANCH  17  21
ENDBRANCH   1  11
BRANCH   7  30
HETATM   30  C   UNL     1      43.677 -16.633   5.574  1.00  0.00     0.251 C 
HETATM   31  O   UNL     1      43.992 -16.723   6.757  1.00  0.00    -0.268 OA
HETATM   32  N   UNL     1      43.891 -17.638   4.660  1.00  0.00    -0.353 N 
HETATM   33  H   UNL     1      43.572 -17.554   3.708  1.00  0.00     0.163 HD
BRANCH  32  34
HETATM   34  C   UNL     1      44.571 -18.864   5.014  1.00  0.00     0.161 C 
BRANCH  34  35
HETATM   35  C   UNL     1      44.361 -19.909   3.951  1.00  0.00    -0.041 A 
HETATM   36  C   UNL     1      43.702 -19.576   2.758  1.00  0.00     0.009 A 
HETATM   37  C   UNL     1      43.492 -20.540   1.771  1.00  0.00     0.001 A 
HETATM   38  C   UNL     1      43.930 -21.848   1.971  1.00  0.00     0.000 A 
HETATM   39  C   UNL     1      44.573 -22.194   3.158  1.00  0.00     0.001 A 
HETATM   40  C   UNL     1      44.786 -21.231   4.145  1.00  0.00     0.009 A 
ENDBRANCH  34  35
ENDBRANCH  32  34
ENDBRANCH   7  30
TORSDOF 6
ENDMDL
MODEL 5
REMARK VINA RESULT:      -9.6      3.950      8.784
REMARK  6 active torsions:
REMARK  status: ('A' for Active; 'I' for Inactive)
REMARK    1  A    between atoms: N_1  and  C_2 
REMARK    2  A    between atoms: C_6  and  C_8 
REMARK    3  A    between atoms: C_13  and  C_18 
REMARK    4  A    between atoms: C_24  and  C_28 
REMARK       I    between atoms: C_28  and  N_30 
REMARK    5  A    between atoms: N_30  and  C_31 
REMARK    6  A    between atoms: C_31  and  C_32 
ROOT
HETATM    1  C   UNL     1      40.752 -13.504   1.638  1.00  0.00     0.084 C 
HETATM    2  C   UNL     1      39.268 -13.636   1.977  1.00  0.00     0.188 C 
HETATM    3  O   UNL     1      39.009 -13.867   3.370  1.00  0.00    -0.350 OA
HETATM    4  C   UNL     1      39.725 -13.087   4.238  1.00  0.00     0.075 A 
HETATM    5  C   UNL     1      39.314 -13.122   5.570  1.00  0.00     0.038 A 
HETATM    6  C   UNL     1      40.014 -12.405   6.545  1.00  0.00     0.020 A 
HETATM    7  C   UNL     1      41.126 -11.636   6.185  1.00  0.00     0.032 A 
HETATM    8  C   UNL     1      41.544 -11.623   4.845  1.00  0.00     0.027 A 
HETATM    9  C   UNL     1      40.858 -12.360   3.868  1.00  0.00    -0.023 A 
HETATM   10  C   UNL     1      41.345 -12.348   2.445  1.00  0.00     0.056 C 
ENDROOT
BRANCH   1  11
HETATM   11  C   UNL     1      41.530 -14.776   1.844  1.00  0.00     0.111 A 
HETATM   12  N   UNL     1      42.440 -15.266   1.024  1.00  0.00    -0.233 NA
HETATM   13  C   UNL     1      42.931 -16.390   1.642  1.00  0.00     0.085 A 
HETATM   14  C   UNL     1      43.925 -17.285   1.230  1.00  0.00     0.035 A 
HETATM   15  C   UNL     1      42.296 -16.605   2.856  1.00  0.00     0.063 A 
HETATM   16  C   UNL     1      44.249 -18.367   2.067  1.00  0.00     0.016 A 
HETATM   17  C   UNL     1      43.606 -18.579   3.305  1.00  0.00    -0.005 A 
HETATM   18  C   UNL     1      42.596 -17.675   3.702  1.00  0.00     0.045 A 
HETATM   19  N   UNL     1      41.405 -15.571   2.959  1.00  0.00    -0.342 N 
HETATM   20  H   UNL     1      40.777 -15.405   3.735  1.00  0.00     0.167 HD
BRANCH  17  21
HETATM   21  C   UNL     1      43.959 -19.715   4.183  1.00  0.00     0.071 A 
HETATM   22  C   UNL     1      43.946 -19.630   5.561  1.00  0.00     0.052 A 
HETATM   23  C   UNL     1      44.291 -20.773   6.240  1.00  0.00     0.122 A 
HETATM   24  N   UNL     1      44.628 -21.924   5.633  1.00  0.00    -0.231 NA
HETATM   25  C   UNL     1      44.592 -21.921   4.301  1.00  0.00     0.199 A 
HETATM   26  N   UNL     1      44.285 -20.865   3.547  1.00  0.00    -0.218 NA
BRANCH  25  27
HETATM   27  N   UNL     1      44.949 -23.085   3.650  1.00  0.00    -0.271 NA
HETATM   28  H   UNL     1      44.247 -23.305   2.958  1.00  0.00     0.127 HD
HETATM   29  H   UNL     1      45.164 -23.795   4.335  1.00  0.00     0.127 HD
ENDBRANCH  25  27
ENDBRANCH  17  21
ENDBRANCH   1  11
BRANCH   7  30
HETATM   30  C   UNL     1      41.924 -10.852   7.174  1.00  0.00     0.251 C 
HETATM   31  O   UNL     1      42.097  -9.649   7.001  1.00  0.00    -0.268 OA
HETATM   32  N   UNL     1      42.412 -11.532   8.266  1.00  0.00    -0.353 N 
HETATM   33  H   UNL     1      42.207 -12.509   8.406  1.00  0.00     0.163 HD
BRANCH  32  34
HETATM   34  C   UNL     1      43.231 -10.887   9.268  1.00  0.00     0.161 C 
BRANCH  34  35
HETATM   35  C   UNL     1      42.551 -10.928  10.610  1.00  0.00    -0.041 A 
HETATM   36  C   UNL     1      43.315 -10.943  11.786  1.00  0.00     0.009 A 
HETATM   37  C   UNL     1      42.695 -10.992  13.035  1.00  0.00     0.001 A 
HETATM   38  C   UNL     1      41.304 -11.038  13.120  1.00  0.00     0.000 A 
HETATM   39  C   UNL     1      40.534 -11.039  11.959  1.00  0.00     0.001 A 
HETATM   40  C   UNL     1      41.153 -10.986  10.708  1.00  0.00     0.009 A 
ENDBRANCH  34  35
ENDBRANCH  32  34
ENDBRANCH   7  30
TORSDOF 6
ENDMDL
MODEL 6
REMARK VINA RESULT:      -9.6      3.604      8.623
REMARK  6 active torsions:
REMARK  status: ('A' for Active; 'I' for Inactive)
REMARK    1  A    between atoms: N_1  and  C_2 
REMARK    2  A    between atoms: C_6  and  C_8 
REMARK    3  A    between atoms: C_13  and  C_18 
REMARK    4  A    between atoms: C_24  and  C_28 
REMARK       I    between atoms: C_28  and  N_30 
REMARK    5  A    between atoms: N_30  and  C_31 
REMARK    6  A    between atoms: C_31  and  C_32 
ROOT
HETATM    1  C   UNL     1      41.368 -13.337   1.490  1.00  0.00     0.084 C 
HETATM    2  C   UNL     1      39.842 -13.404   1.459  1.00  0.00     0.188 C 
HETATM    3  O   UNL     1      39.235 -13.428   2.759  1.00  0.00    -0.350 OA
HETATM    4  C   UNL     1      39.748 -12.536   3.663  1.00  0.00     0.075 A 
HETATM    5  C   UNL     1      39.017 -12.373   4.840  1.00  0.00     0.038 A 
HETATM    6  C   UNL     1      39.486 -11.529   5.852  1.00  0.00     0.020 A 
HETATM    7  C   UNL     1      40.687 -10.831   5.682  1.00  0.00     0.032 A 
HETATM    8  C   UNL     1      41.424 -11.017   4.502  1.00  0.00     0.027 A 
HETATM    9  C   UNL     1      40.970 -11.882   3.494  1.00  0.00    -0.023 A 
HETATM   10  C   UNL     1      41.795 -12.082   2.253  1.00  0.00     0.056 C 
ENDROOT
BRANCH   1  11
HETATM   11  C   UNL     1      42.011 -14.573   2.061  1.00  0.00     0.111 A 
HETATM   12  N   UNL     1      42.480 -14.703   3.288  1.00  0.00    -0.233 NA
HETATM   13  C   UNL     1      42.905 -16.005   3.388  1.00  0.00     0.085 A 
HETATM   14  C   UNL     1      43.470 -16.689   4.471  1.00  0.00     0.035 A 
HETATM   15  C   UNL     1      42.710 -16.683   2.194  1.00  0.00     0.063 A 
HETATM   16  C   UNL     1      43.813 -18.043   4.308  1.00  0.00     0.016 A 
HETATM   17  C   UNL     1      43.607 -18.731   3.094  1.00  0.00    -0.005 A 
HETATM   18  C   UNL     1      43.048 -18.025   2.007  1.00  0.00     0.045 A 
HETATM   19  N   UNL     1      42.148 -15.751   1.364  1.00  0.00    -0.342 N 
HETATM   20  H   UNL     1      41.859 -15.906   0.407  1.00  0.00     0.167 HD
BRANCH  17  21
HETATM   21  C   UNL     1      43.963 -20.158   2.936  1.00  0.00     0.071 A 
HETATM   22  C   UNL     1      43.835 -20.835   1.740  1.00  0.00     0.052 A 
HETATM   23  C   UNL     1      44.215 -22.155   1.748  1.00  0.00     0.122 A 
HETATM   24  N   UNL     1      44.687 -22.784   2.838  1.00  0.00    -0.231 NA
HETATM   25  C   UNL     1      44.798 -22.048   3.944  1.00  0.00     0.199 A 
HETATM   26  N   UNL     1      44.446 -20.765   4.046  1.00  0.00    -0.218 NA
BRANCH  25  27
HETATM   27  N   UNL     1      45.265 -22.672   5.083  1.00  0.00    -0.271 NA
HETATM   28  H   UNL     1      46.273 -22.623   5.096  1.00  0.00     0.127 HD
HETATM   29  H   UNL     1      44.844 -23.587   5.155  1.00  0.00     0.127 HD
ENDBRANCH  25  27
ENDBRANCH  17  21
ENDBRANCH   1  11
BRANCH   7  30
HETATM   30  C   UNL     1      41.249  -9.919   6.722  1.00  0.00     0.251 C 
HETATM   31  O   UNL     1      41.847  -8.903   6.381  1.00  0.00    -0.268 OA
HETATM   32  N   UNL     1      41.039 -10.263   8.037  1.00  0.00    -0.353 N 
HETATM   33  H   UNL     1      40.497 -11.077   8.282  1.00  0.00     0.163 HD
BRANCH  32  34
HETATM   34  C   UNL     1      41.570  -9.479   9.129  1.00  0.00     0.161 C 
BRANCH  34  35
HETATM   35  C   UNL     1      42.729 -10.191   9.774  1.00  0.00    -0.041 A 
HETATM   36  C   UNL     1      43.104  -9.877  11.089  1.00  0.00     0.009 A 
HETATM   37  C   UNL     1      44.183 -10.524  11.692  1.00  0.00     0.001 A 
HETATM   38  C   UNL     1      44.906 -11.483  10.983  1.00  0.00     0.000 A 
HETATM   39  C   UNL     1      44.552 -11.792   9.671  1.00  0.00     0.001 A 
HETATM   40  C   UNL     1      43.470 -11.149   9.067  1.00  0.00     0.009 A 
ENDBRANCH  34  35
ENDBRANCH  32  34
ENDBRANCH   7  30
TORSDOF 6
ENDMDL
MODEL 7
REMARK VINA RESULT:      -9.5      2.678      9.725
REMARK  6 active torsions:
REMARK  status: ('A' for Active; 'I' for Inactive)
REMARK    1  A    between atoms: N_1  and  C_2 
REMARK    2  A    between atoms: C_6  and  C_8 
REMARK    3  A    between atoms: C_13  and  C_18 
REMARK    4  A    between atoms: C_24  and  C_28 
REMARK       I    between atoms: C_28  and  N_30 
REMARK    5  A    between atoms: N_30  and  C_31 
REMARK    6  A    between atoms: C_31  and  C_32 
ROOT
HETATM    1  C   UNL     1      40.662 -13.520   3.450  1.00  0.00     0.084 C 
HETATM    2  C   UNL     1      41.480 -12.262   3.160  1.00  0.00     0.188 C 
HETATM    3  O   UNL     1      42.195 -12.309   1.916  1.00  0.00    -0.350 OA
HETATM    4  C   UNL     1      41.485 -12.786   0.847  1.00  0.00     0.075 A 
HETATM    5  C   UNL     1      42.074 -12.610  -0.404  1.00  0.00     0.038 A 
HETATM    6  C   UNL     1      41.456 -13.112  -1.554  1.00  0.00     0.020 A 
HETATM    7  C   UNL     1      40.232 -13.783  -1.455  1.00  0.00     0.032 A 
HETATM    8  C   UNL     1      39.657 -13.972  -0.189  1.00  0.00     0.027 A 
HETATM    9  C   UNL     1      40.285 -13.491   0.970  1.00  0.00    -0.023 A 
HETATM   10  C   UNL     1      39.658 -13.732   2.315  1.00  0.00     0.056 C 
ENDROOT
BRANCH   1  11
HETATM   11  C   UNL     1      41.506 -14.746   3.675  1.00  0.00     0.111 A 
HETATM   12  N   UNL     1      42.310 -14.951   4.702  1.00  0.00    -0.233 NA
HETATM   13  C   UNL     1      42.817 -16.216   4.530  1.00  0.00     0.085 A 
HETATM   14  C   UNL     1      43.702 -16.949   5.329  1.00  0.00     0.035 A 
HETATM   15  C   UNL     1      42.331 -16.791   3.366  1.00  0.00     0.063 A 
HETATM   16  C   UNL     1      44.060 -18.247   4.923  1.00  0.00     0.016 A 
HETATM   17  C   UNL     1      43.557 -18.831   3.741  1.00  0.00    -0.005 A 
HETATM   18  C   UNL     1      42.675 -18.075   2.939  1.00  0.00     0.045 A 
HETATM   19  N   UNL     1      41.506 -15.835   2.836  1.00  0.00    -0.342 N 
HETATM   20  H   UNL     1      40.967 -15.923   1.984  1.00  0.00     0.167 HD
BRANCH  17  21
HETATM   21  C   UNL     1      43.933 -20.201   3.328  1.00  0.00     0.071 A 
HETATM   22  C   UNL     1      43.775 -20.664   2.037  1.00  0.00     0.052 A 
HETATM   23  C   UNL     1      44.178 -21.957   1.805  1.00  0.00     0.122 A 
HETATM   24  N   UNL     1      44.698 -22.753   2.754  1.00  0.00    -0.231 NA
HETATM   25  C   UNL     1      44.834 -22.216   3.967  1.00  0.00     0.199 A 
HETATM   26  N   UNL     1      44.463 -20.979   4.300  1.00  0.00    -0.218 NA
BRANCH  25  27
HETATM   27  N   UNL     1      45.350 -23.017   4.965  1.00  0.00    -0.271 NA
HETATM   28  H   UNL     1      45.256 -22.542   5.851  1.00  0.00     0.127 HD
HETATM   29  H   UNL     1      46.275 -23.323   4.700  1.00  0.00     0.127 HD
ENDBRANCH  25  27
ENDBRANCH  17  21
ENDBRANCH   1  11
BRANCH   7  30
HETATM   30  C   UNL     1      39.521 -14.350  -2.639  1.00  0.00     0.251 C 
HETATM   31  O   UNL     1      40.150 -14.611  -3.660  1.00  0.00    -0.268 OA
HETATM   32  N   UNL     1      38.170 -14.579  -2.508  1.00  0.00    -0.353 N 
HETATM   33  H   UNL     1      37.694 -14.403  -1.638  1.00  0.00     0.163 HD
BRANCH  32  34
HETATM   34  C   UNL     1      37.370 -15.088  -3.600  1.00  0.00     0.161 C 
BRANCH  34  35
HETATM   35  C   UNL     1      36.595 -13.972  -4.249  1.00  0.00    -0.041 A 
HETATM   36  C   UNL     1      36.797 -12.645  -3.841  1.00  0.00     0.009 A 
HETATM   37  C   UNL     1      36.076 -11.605  -4.428  1.00  0.00     0.001 A 
HETATM   38  C   UNL     1      35.136 -11.883  -5.420  1.00  0.00     0.000 A 
HETATM   39  C   UNL     1      34.915 -13.198  -5.823  1.00  0.00     0.001 A 
HETATM   40  C   UNL     1      35.639 -14.240  -5.239  1.00  0.00     0.009 A 
ENDBRANCH  34  35
ENDBRANCH  32  34
ENDBRANCH   7  30
TORSDOF 6
ENDMDL
MODEL 8
REMARK VINA RESULT:      -9.4      2.263      9.279
REMARK  6 active torsions:
REMARK  status: ('A' for Active; 'I' for Inactive)
REMARK    1  A    between atoms: N_1  and  C_2 
REMARK    2  A    between atoms: C_6  and  C_8 
REMARK    3  A    between atoms: C_13  and  C_18 
REMARK    4  A    between atoms: C_24  and  C_28 
REMARK       I    between atoms: C_28  and  N_30 
REMARK    5  A    between atoms: N_30  and  C_31 
REMARK    6  A    between atoms: C_31  and  C_32 
ROOT
HETATM    1  C   UNL     1      41.023 -13.955   5.777  1.00  0.00     0.084 C 
HETATM    2  C   UNL     1      41.716 -12.611   5.556  1.00  0.00     0.188 C 
HETATM    3  O   UNL     1      42.213 -12.427   4.222  1.00  0.00    -0.350 OA
HETATM    4  C   UNL     1      41.359 -12.799   3.219  1.00  0.00     0.075 A 
HETATM    5  C   UNL     1      41.721 -12.404   1.931  1.00  0.00     0.038 A 
HETATM    6  C   UNL     1      40.946 -12.783   0.831  1.00  0.00     0.020 A 
HETATM    7  C   UNL     1      39.791 -13.552   1.019  1.00  0.00     0.032 A 
HETATM    8  C   UNL     1      39.447 -13.961   2.317  1.00  0.00     0.027 A 
HETATM    9  C   UNL     1      40.235 -13.603   3.421  1.00  0.00    -0.023 A 
HETATM   10  C   UNL     1      39.856 -14.079   4.796  1.00  0.00     0.056 C 
ENDROOT
BRANCH   1  11
HETATM   11  C   UNL     1      41.955 -15.133   5.676  1.00  0.00     0.111 A 
HETATM   12  N   UNL     1      43.104 -15.264   6.313  1.00  0.00    -0.233 NA
HETATM   13  C   UNL     1      43.574 -16.510   5.978  1.00  0.00     0.085 A 
HETATM   14  C   UNL     1      44.739 -17.173   6.382  1.00  0.00     0.035 A 
HETATM   15  C   UNL     1      42.706 -17.149   5.106  1.00  0.00     0.063 A 
HETATM   16  C   UNL     1      44.982 -18.469   5.892  1.00  0.00     0.016 A 
HETATM   17  C   UNL     1      44.093 -19.118   5.009  1.00  0.00    -0.005 A 
HETATM   18  C   UNL     1      42.929 -18.432   4.601  1.00  0.00     0.045 A 
HETATM   19  N   UNL     1      41.689 -16.252   4.923  1.00  0.00    -0.342 N 
HETATM   20  H   UNL     1      40.868 -16.395   4.349  1.00  0.00     0.167 HD
BRANCH  17  21
HETATM   21  C   UNL     1      44.354 -20.484   4.506  1.00  0.00     0.071 A 
HETATM   22  C   UNL     1      44.753 -21.522   5.324  1.00  0.00     0.052 A 
HETATM   23  C   UNL     1      44.948 -22.735   4.711  1.00  0.00     0.122 A 
HETATM   24  N   UNL     1      44.771 -22.938   3.394  1.00  0.00    -0.231 NA
HETATM   25  C   UNL     1      44.364 -21.885   2.684  1.00  0.00     0.199 A 
HETATM   26  N   UNL     1      44.159 -20.663   3.178  1.00  0.00    -0.218 NA
BRANCH  25  27
HETATM   27  N   UNL     1      44.190 -22.060   1.326  1.00  0.00    -0.271 NA
HETATM   28  H   UNL     1      43.236 -22.340   1.148  1.00  0.00     0.127 HD
HETATM   29  H   UNL     1      44.923 -22.658   0.972  1.00  0.00     0.127 HD
ENDBRANCH  25  27
ENDBRANCH  17  21
ENDBRANCH   1  11
BRANCH   7  30
HETATM   30  C   UNL     1      38.922 -13.998  -0.109  1.00  0.00     0.251 C 
HETATM   31  O   UNL     1      37.719 -14.158   0.076  1.00  0.00    -0.268 OA
HETATM   32  N   UNL     1      39.526 -14.184  -1.331  1.00  0.00    -0.353 N 
HETATM   33  H   UNL     1      40.507 -13.992  -1.462  1.00  0.00     0.163 HD
BRANCH  32  34
HETATM   34  C   UNL     1      38.793 -14.653  -2.486  1.00  0.00     0.161 C 
BRANCH  34  35
HETATM   35  C   UNL     1      38.213 -13.491  -3.248  1.00  0.00    -0.041 A 
HETATM   36  C   UNL     1      38.930 -12.289  -3.350  1.00  0.00     0.009 A 
HETATM   37  C   UNL     1      38.397 -11.203  -4.044  1.00  0.00     0.001 A 
HETATM   38  C   UNL     1      37.138 -11.303  -4.634  1.00  0.00     0.000 A 
HETATM   39  C   UNL     1      36.410 -12.486  -4.527  1.00  0.00     0.001 A 
HETATM   40  C   UNL     1      36.943 -13.576  -3.835  1.00  0.00     0.009 A 
ENDBRANCH  34  35
ENDBRANCH  32  34
ENDBRANCH   7  30
TORSDOF 6
ENDMDL
MODEL 9
REMARK VINA RESULT:      -9.3      2.449      8.608
REMARK  6 active torsions:
REMARK  status: ('A' for Active; 'I' for Inactive)
REMARK    1  A    between atoms: N_1  and  C_2 
REMARK    2  A    between atoms: C_6  and  C_8 
REMARK    3  A    between atoms: C_13  and  C_18 
REMARK    4  A    between atoms: C_24  and  C_28 
REMARK       I    between atoms: C_28  and  N_30 
REMARK    5  A    between atoms: N_30  and  C_31 
REMARK    6  A    between atoms: C_31  and  C_32 
ROOT
HETATM    1  C   UNL     1      40.842 -13.761   6.019  1.00  0.00     0.084 C 
HETATM    2  C   UNL     1      41.568 -12.417   5.975  1.00  0.00     0.188 C 
HETATM    3  O   UNL     1      42.041 -12.056   4.669  1.00  0.00    -0.350 OA
HETATM    4  C   UNL     1      41.153 -12.258   3.646  1.00  0.00     0.075 A 
HETATM    5  C   UNL     1      41.497 -11.690   2.419  1.00  0.00     0.038 A 
HETATM    6  C   UNL     1      40.686 -11.887   1.297  1.00  0.00     0.020 A 
HETATM    7  C   UNL     1      39.515 -12.645   1.403  1.00  0.00     0.032 A 
HETATM    8  C   UNL     1      39.188 -13.229   2.638  1.00  0.00     0.027 A 
HETATM    9  C   UNL     1      40.011 -13.053   3.760  1.00  0.00    -0.023 A 
HETATM   10  C   UNL     1      39.649 -13.713   5.063  1.00  0.00     0.056 C 
ENDROOT
BRANCH   1  11
HETATM   11  C   UNL     1      41.737 -14.936   5.726  1.00  0.00     0.111 A 
HETATM   12  N   UNL     1      42.855 -15.231   6.361  1.00  0.00    -0.233 NA
HETATM   13  C   UNL     1      43.295 -16.410   5.811  1.00  0.00     0.085 A 
HETATM   14  C   UNL     1      44.421 -17.184   6.118  1.00  0.00     0.035 A 
HETATM   15  C   UNL     1      42.441 -16.837   4.807  1.00  0.00     0.063 A 
HETATM   16  C   UNL     1      44.639 -18.372   5.398  1.00  0.00     0.016 A 
HETATM   17  C   UNL     1      43.763 -18.807   4.382  1.00  0.00    -0.005 A 
HETATM   18  C   UNL     1      42.639 -18.010   4.075  1.00  0.00     0.045 A 
HETATM   19  N   UNL     1      41.462 -15.881   4.766  1.00  0.00    -0.342 N 
HETATM   20  H   UNL     1      40.659 -15.880   4.151  1.00  0.00     0.167 HD
BRANCH  17  21
HETATM   21  C   UNL     1      43.996 -20.063   3.636  1.00  0.00     0.071 A 
HETATM   22  C   UNL     1      43.776 -20.182   2.279  1.00  0.00     0.052 A 
HETATM   23  C   UNL     1      44.046 -21.411   1.727  1.00  0.00     0.122 A 
HETATM   24  N   UNL     1      44.499 -22.459   2.436  1.00  0.00    -0.231 NA
HETATM   25  C   UNL     1      44.704 -22.248   3.736  1.00  0.00     0.199 A 
HETATM   26  N   UNL     1      44.461 -21.100   4.372  1.00  0.00    -0.218 NA
BRANCH  25  27
HETATM   27  N   UNL     1      45.153 -23.311   4.493  1.00  0.00    -0.271 NA
HETATM   28  H   UNL     1      45.095 -24.156   3.943  1.00  0.00     0.127 HD
HETATM   29  H   UNL     1      44.680 -23.306   5.385  1.00  0.00     0.127 HD
ENDBRANCH  25  27
ENDBRANCH  17  21
ENDBRANCH   1  11
BRANCH   7  30
HETATM   30  C   UNL     1      38.607 -12.901   0.246  1.00  0.00     0.251 C 
HETATM   31  O   UNL     1      37.636 -13.639   0.386  1.00  0.00    -0.268 OA
HETATM   32  N   UNL     1      38.901 -12.261  -0.935  1.00  0.00    -0.353 N 
HETATM   33  H   UNL     1      39.676 -11.620  -1.001  1.00  0.00     0.163 HD
BRANCH  32  34
HETATM   34  C   UNL     1      38.117 -12.463  -2.133  1.00  0.00     0.161 C 
BRANCH  34  35
HETATM   35  C   UNL     1      38.533 -13.733  -2.827  1.00  0.00    -0.041 A 
HETATM   36  C   UNL     1      37.580 -14.511  -3.501  1.00  0.00     0.009 A 
HETATM   37  C   UNL     1      37.954 -15.695  -4.137  1.00  0.00     0.001 A 
HETATM   38  C   UNL     1      39.281 -16.120  -4.096  1.00  0.00     0.000 A 
HETATM   39  C   UNL     1      40.234 -15.364  -3.416  1.00  0.00     0.001 A 
HETATM   40  C   UNL     1      39.863 -14.176  -2.782  1.00  0.00     0.009 A 
ENDBRANCH  34  35
ENDBRANCH  32  34
ENDBRANCH   7  30
TORSDOF 6
ENDMDL
MODEL 10
REMARK VINA RESULT:      -9.2      3.389      8.371
REMARK  6 active torsions:
REMARK  status: ('A' for Active; 'I' for Inactive)
REMARK    1  A    between atoms: N_1  and  C_2 
REMARK    2  A    between atoms: C_6  and  C_8 
REMARK    3  A    between atoms: C_13  and  C_18 
REMARK    4  A    between atoms: C_24  and  C_28 
REMARK       I    between atoms: C_28  and  N_30 
REMARK    5  A    between atoms: N_30  and  C_31 
REMARK    6  A    between atoms: C_31  and  C_32 
ROOT
HETATM    1  C   UNL     1      40.957 -13.003   1.159  1.00  0.00     0.084 C 
HETATM    2  C   UNL     1      39.431 -13.013   1.244  1.00  0.00     0.188 C 
HETATM    3  O   UNL     1      38.925 -13.220   2.571  1.00  0.00    -0.350 OA
HETATM    4  C   UNL     1      39.546 -12.500   3.556  1.00  0.00     0.075 A 
HETATM    5  C   UNL     1      38.916 -12.499   4.801  1.00  0.00     0.038 A 
HETATM    6  C   UNL     1      39.499 -11.841   5.888  1.00  0.00     0.020 A 
HETATM    7  C   UNL     1      40.714 -11.165   5.729  1.00  0.00     0.032 A 
HETATM    8  C   UNL     1      41.350 -11.189   4.477  1.00  0.00     0.027 A 
HETATM    9  C   UNL     1      40.780 -11.868   3.390  1.00  0.00    -0.023 A 
HETATM   10  C   UNL     1      41.498 -11.898   2.068  1.00  0.00     0.056 C 
ENDROOT
BRANCH   1  11
HETATM   11  C   UNL     1      41.583 -14.334   1.477  1.00  0.00     0.111 A 
HETATM   12  N   UNL     1      42.200 -15.122   0.617  1.00  0.00    -0.233 NA
HETATM   13  C   UNL     1      42.667 -16.183   1.352  1.00  0.00     0.085 A 
HETATM   14  C   UNL     1      43.406 -17.303   0.953  1.00  0.00     0.035 A 
HETATM   15  C   UNL     1      42.315 -16.054   2.687  1.00  0.00     0.063 A 
HETATM   16  C   UNL     1      43.771 -18.253   1.924  1.00  0.00     0.016 A 
HETATM   17  C   UNL     1      43.415 -18.114   3.282  1.00  0.00    -0.005 A 
HETATM   18  C   UNL     1      42.660 -16.986   3.668  1.00  0.00     0.045 A 
HETATM   19  N   UNL     1      41.620 -14.875   2.741  1.00  0.00    -0.342 N 
HETATM   20  H   UNL     1      41.222 -14.459   3.572  1.00  0.00     0.167 HD
BRANCH  17  21
HETATM   21  C   UNL     1      43.811 -19.114   4.297  1.00  0.00     0.071 A 
HETATM   22  C   UNL     1      44.446 -20.298   3.977  1.00  0.00     0.052 A 
HETATM   23  C   UNL     1      44.757 -21.122   5.031  1.00  0.00     0.122 A 
HETATM   24  N   UNL     1      44.474 -20.827   6.311  1.00  0.00    -0.231 NA
HETATM   25  C   UNL     1      43.879 -19.654   6.530  1.00  0.00     0.199 A 
HETATM   26  N   UNL     1      43.523 -18.789   5.579  1.00  0.00    -0.218 NA
BRANCH  25  27
HETATM   27  N   UNL     1      43.562 -19.333   7.834  1.00  0.00    -0.271 NA
HETATM   28  H   UNL     1      43.006 -20.076   8.232  1.00  0.00     0.127 HD
HETATM   29  H   UNL     1      43.176 -18.400   7.861  1.00  0.00     0.127 HD
ENDBRANCH  25  27
ENDBRANCH  17  21
ENDBRANCH   1  11
BRANCH   7  30
HETATM   30  C   UNL     1      41.396 -10.448   6.847  1.00  0.00     0.251 C 
HETATM   31  O   UNL     1      41.905  -9.350   6.644  1.00  0.00    -0.268 OA
HETATM   32  N   UNL     1      41.393 -11.061   8.078  1.00  0.00    -0.353 N 
HETATM   33  H   UNL     1      40.919 -11.938   8.223  1.00  0.00     0.163 HD
BRANCH  32  34
HETATM   34  C   UNL     1      42.056 -10.480   9.225  1.00  0.00     0.161 C 
BRANCH  34  35
HETATM   35  C   UNL     1      43.444 -11.045   9.372  1.00  0.00    -0.041 A 
HETATM   36  C   UNL     1      43.915 -12.000   8.459  1.00  0.00     0.009 A 
HETATM   37  C   UNL     1      45.195 -12.538   8.594  1.00  0.00     0.001 A 
HETATM   38  C   UNL     1      46.013 -12.135   9.648  1.00  0.00     0.000 A 
HETATM   39  C   UNL     1      45.550 -11.198  10.570  1.00  0.00     0.001 A 
HETATM   40  C   UNL     1      44.271 -10.656  10.436  1.00  0.00     0.009 A 
ENDBRANCH  34  35
ENDBRANCH  32  34
ENDBRANCH   7  30
TORSDOF 6
ENDMDL
