MODEL 1
REMARK VINA RESULT:      -8.0      0.000      0.000
REMARK  8 active torsions:
REMARK  status: ('A' for Active; 'I' for Inactive)
REMARK    1  A    between atoms: O_2  and  C_3 
REMARK    2  A    between atoms: C_6  and  N_7 
REMARK    3  A    between atoms: N_7  and  C_8 
REMARK    4  A    between atoms: C_11  and  C_12 
REMARK    5  A    between atoms: C_15  and  C_16 
REMARK       I    between atoms: C_16  and  N_17 
REMARK    6  A    between atoms: N_17  and  C_18 
REMARK    7  A    between atoms: C_18  and  C_19 
REMARK    8  A    between atoms: C_19  and  O_20 
ROOT
HETATM    1  C   UNL     1      42.784 -16.164   2.499  1.00  0.00     0.161 A 
HETATM    2  N   UNL     1      42.432 -15.794   1.250  1.00  0.00    -0.131 NA
HETATM    3  N   UNL     1      41.319 -15.036   1.027  1.00  0.00    -0.147 NA
HETATM    4  C   UNL     1      40.548 -14.636   2.062  1.00  0.00     0.100 A 
HETATM    5  C   UNL     1      40.853 -14.985   3.391  1.00  0.00     0.009 A 
HETATM    6  C   UNL     1      42.012 -15.765   3.615  1.00  0.00     0.024 A 
HETATM    7  C   UNL     1      40.062 -14.607   4.506  1.00  0.00     0.015 A 
HETATM    8  C   UNL     1      40.415 -14.960   5.809  1.00  0.00     0.001 A 
HETATM    9  C   UNL     1      41.565 -15.701   6.032  1.00  0.00     0.001 A 
HETATM   10  C   UNL     1      42.352 -16.098   4.950  1.00  0.00     0.016 A 
ENDROOT
BRANCH   4  11
HETATM   11  C   UNL     1      39.397 -13.819   1.648  1.00  0.00    -0.005 A 
HETATM   12  C   UNL     1      38.240 -14.433   1.139  1.00  0.00     0.015 A 
HETATM   13  C   UNL     1      37.151 -13.672   0.701  1.00  0.00     0.018 A 
HETATM   14  C   UNL     1      37.210 -12.276   0.752  1.00  0.00     0.032 A 
HETATM   15  C   UNL     1      38.350 -11.651   1.271  1.00  0.00     0.018 A 
HETATM   16  C   UNL     1      39.437 -12.417   1.706  1.00  0.00     0.015 A 
BRANCH  14  17
HETATM   17  C   UNL     1      36.092 -11.420   0.271  1.00  0.00     0.251 C 
HETATM   18  N   UNL     1      34.975 -11.357   1.077  1.00  0.00    -0.355 N 
HETATM   19  H   UNL     1      34.887 -11.975   1.872  1.00  0.00     0.162 HD
HETATM   20  O   UNL     1      36.170 -10.850  -0.811  1.00  0.00    -0.268 OA
BRANCH  18  21
HETATM   21  C   UNL     1      33.796 -10.602   0.682  1.00  0.00     0.148 C 
BRANCH  21  22
HETATM   22  C   UNL     1      33.007 -10.088   1.886  1.00  0.00     0.183 C 
BRANCH  22  23
HETATM   23  O   UNL     1      32.743 -11.160   2.792  1.00  0.00    -0.399 OA
HETATM   24  H   UNL     1      32.404 -10.742   3.605  1.00  0.00     0.209 HD
ENDBRANCH  22  23
ENDBRANCH  21  22
ENDBRANCH  18  21
ENDBRANCH  14  17
ENDBRANCH   4  11
BRANCH   1  25
HETATM   25  N   UNL     1      43.922 -16.992   2.696  1.00  0.00    -0.339 N 
HETATM   26  H   UNL     1      44.517 -16.562   3.398  1.00  0.00     0.167 HD
BRANCH  25  27
HETATM   27  C   UNL     1      43.949 -18.402   2.771  1.00  0.00     0.033 A 
HETATM   28  C   UNL     1      43.544 -19.215   1.707  1.00  0.00     0.032 A 
HETATM   29  C   UNL     1      43.656 -20.610   1.771  1.00  0.00     0.039 A 
HETATM   30  C   UNL     1      44.198 -21.217   2.901  1.00  0.00     0.068 A 
HETATM   31  C   UNL     1      44.624 -20.416   3.961  1.00  0.00     0.039 A 
HETATM   32  C   UNL     1      44.516 -19.022   3.891  1.00  0.00     0.032 A 
BRANCH  30  33
HETATM   33  O   UNL     1      44.371 -22.561   3.090  1.00  0.00    -0.356 OA
HETATM   34  C   UNL     1      44.721 -22.980   4.402  1.00  0.00     0.210 C 
ENDBRANCH  30  33
ENDBRANCH  25  27
ENDBRANCH   1  25
TORSDOF 8
ENDMDL
MODEL 2
REMARK VINA RESULT:      -7.7      4.076      5.534
REMARK  8 active torsions:
REMARK  status: ('A' for Active; 'I' for Inactive)
REMARK    1  A    between atoms: O_2  and  C_3 
REMARK    2  A    between atoms: C_6  and  N_7 
REMARK    3  A    between atoms: N_7  and  C_8 
REMARK    4  A    between atoms: C_11  and  C_12 
REMARK    5  A    between atoms: C_15  and  C_16 
REMARK       I    between atoms: C_16  and  N_17 
REMARK    6  A    between atoms: N_17  and  C_18 
REMARK    7  A    between atoms: C_18  and  C_19 
REMARK    8  A    between atoms: C_19  and  O_20 
ROOT
HETATM    1  C   UNL     1      43.006 -15.998   3.431  1.00  0.00     0.161 A 
HETATM    2  N   UNL     1      43.561 -15.496   4.554  1.00  0.00    -0.131 NA
HETATM    3  N   UNL     1      42.910 -14.561   5.306  1.00  0.00    -0.147 NA
HETATM    4  C   UNL     1      41.685 -14.124   4.937  1.00  0.00     0.100 A 
HETATM    5  C   UNL     1      41.046 -14.600   3.778  1.00  0.00     0.009 A 
HETATM    6  C   UNL     1      41.725 -15.574   3.008  1.00  0.00     0.024 A 
HETATM    7  C   UNL     1      39.772 -14.154   3.340  1.00  0.00     0.015 A 
HETATM    8  C   UNL     1      39.169 -14.672   2.194  1.00  0.00     0.001 A 
HETATM    9  C   UNL     1      39.821 -15.646   1.454  1.00  0.00     0.001 A 
HETATM   10  C   UNL     1      41.082 -16.090   1.855  1.00  0.00     0.016 A 
ENDROOT
BRANCH   4  11
HETATM   11  C   UNL     1      41.122 -13.128   5.861  1.00  0.00    -0.005 A 
HETATM   12  C   UNL     1      39.805 -13.266   6.333  1.00  0.00     0.015 A 
HETATM   13  C   UNL     1      39.236 -12.307   7.179  1.00  0.00     0.018 A 
HETATM   14  C   UNL     1      39.976 -11.182   7.556  1.00  0.00     0.032 A 
HETATM   15  C   UNL     1      41.294 -11.040   7.106  1.00  0.00     0.018 A 
HETATM   16  C   UNL     1      41.857 -12.000   6.259  1.00  0.00     0.015 A 
BRANCH  14  17
HETATM   17  C   UNL     1      39.408 -10.119   8.429  1.00  0.00     0.251 C 
HETATM   18  N   UNL     1      40.132  -9.801   9.558  1.00  0.00    -0.355 N 
HETATM   19  H   UNL     1      40.923 -10.367   9.831  1.00  0.00     0.162 HD
HETATM   20  O   UNL     1      38.330  -9.605   8.156  1.00  0.00    -0.268 OA
BRANCH  18  21
HETATM   21  C   UNL     1      39.647  -8.821  10.518  1.00  0.00     0.148 C 
BRANCH  21  22
HETATM   22  C   UNL     1      38.814  -9.461  11.629  1.00  0.00     0.183 C 
BRANCH  22  23
HETATM   23  O   UNL     1      37.446  -9.545  11.230  1.00  0.00    -0.399 OA
HETATM   24  H   UNL     1      37.360  -8.959  10.456  1.00  0.00     0.209 HD
ENDBRANCH  22  23
ENDBRANCH  21  22
ENDBRANCH  18  21
ENDBRANCH  14  17
ENDBRANCH   4  11
BRANCH   1  25
HETATM   25  N   UNL     1      43.729 -16.935   2.644  1.00  0.00    -0.339 N 
HETATM   26  H   UNL     1      44.608 -16.512   2.364  1.00  0.00     0.167 HD
BRANCH  25  27
HETATM   27  C   UNL     1      43.858 -18.322   2.874  1.00  0.00     0.033 A 
HETATM   28  C   UNL     1      43.642 -19.271   1.868  1.00  0.00     0.032 A 
HETATM   29  C   UNL     1      43.856 -20.637   2.095  1.00  0.00     0.039 A 
HETATM   30  C   UNL     1      44.314 -21.076   3.335  1.00  0.00     0.068 A 
HETATM   31  C   UNL     1      44.553 -20.138   4.339  1.00  0.00     0.039 A 
HETATM   32  C   UNL     1      44.343 -18.774   4.107  1.00  0.00     0.032 A 
BRANCH  30  33
HETATM   33  O   UNL     1      44.571 -22.373   3.685  1.00  0.00    -0.356 OA
HETATM   34  C   UNL     1      45.042 -22.595   5.008  1.00  0.00     0.210 C 
ENDBRANCH  30  33
ENDBRANCH  25  27
ENDBRANCH   1  25
TORSDOF 8
ENDMDL
MODEL 3
REMARK VINA RESULT:      -7.7      4.814      7.123
REMARK  8 active torsions:
REMARK  status: ('A' for Active; 'I' for Inactive)
REMARK    1  A    between atoms: O_2  and  C_3 
REMARK    2  A    between atoms: C_6  and  N_7 
REMARK    3  A    between atoms: N_7  and  C_8 
REMARK    4  A    between atoms: C_11  and  C_12 
REMARK    5  A    between atoms: C_15  and  C_16 
REMARK       I    between atoms: C_16  and  N_17 
REMARK    6  A    between atoms: N_17  and  C_18 
REMARK    7  A    between atoms: C_18  and  C_19 
REMARK    8  A    between atoms: C_19  and  O_20 
ROOT
HETATM    1  C   UNL     1      44.265 -14.376   5.655  1.00  0.00     0.161 A 
HETATM    2  N   UNL     1      44.464 -13.562   4.598  1.00  0.00    -0.131 NA
HETATM    3  N   UNL     1      43.654 -13.619   3.501  1.00  0.00    -0.147 NA
HETATM    4  C   UNL     1      42.626 -14.495   3.459  1.00  0.00     0.100 A 
HETATM    5  C   UNL     1      42.358 -15.376   4.523  1.00  0.00     0.009 A 
HETATM    6  C   UNL     1      43.200 -15.306   5.659  1.00  0.00     0.024 A 
HETATM    7  C   UNL     1      41.306 -16.327   4.514  1.00  0.00     0.015 A 
HETATM    8  C   UNL     1      41.067 -17.166   5.602  1.00  0.00     0.001 A 
HETATM    9  C   UNL     1      41.873 -17.080   6.727  1.00  0.00     0.001 A 
HETATM   10  C   UNL     1      42.925 -16.164   6.754  1.00  0.00     0.016 A 
ENDROOT
BRANCH   4  11
HETATM   11  C   UNL     1      41.847 -14.418   2.214  1.00  0.00    -0.005 A 
HETATM   12  C   UNL     1      40.783 -13.507   2.099  1.00  0.00     0.015 A 
HETATM   13  C   UNL     1      40.004 -13.448   0.938  1.00  0.00     0.018 A 
HETATM   14  C   UNL     1      40.270 -14.315  -0.126  1.00  0.00     0.032 A 
HETATM   15  C   UNL     1      41.337 -15.216  -0.032  1.00  0.00     0.018 A 
HETATM   16  C   UNL     1      42.112 -15.273   1.132  1.00  0.00     0.015 A 
BRANCH  14  17
HETATM   17  C   UNL     1      39.453 -14.314  -1.370  1.00  0.00     0.251 C 
HETATM   18  N   UNL     1      40.052 -14.833  -2.498  1.00  0.00    -0.355 N 
HETATM   19  H   UNL     1      41.036 -15.064  -2.490  1.00  0.00     0.162 HD
HETATM   20  O   UNL     1      38.328 -13.827  -1.371  1.00  0.00    -0.268 OA
BRANCH  18  21
HETATM   21  C   UNL     1      39.375 -14.828  -3.785  1.00  0.00     0.148 C 
BRANCH  21  22
HETATM   22  C   UNL     1      38.702 -16.166  -4.091  1.00  0.00     0.183 C 
BRANCH  22  23
HETATM   23  O   UNL     1      39.370 -17.220  -3.398  1.00  0.00    -0.399 OA
HETATM   24  H   UNL     1      40.233 -16.855  -3.129  1.00  0.00     0.209 HD
ENDBRANCH  22  23
ENDBRANCH  21  22
ENDBRANCH  18  21
ENDBRANCH  14  17
ENDBRANCH   4  11
BRANCH   1  25
HETATM   25  N   UNL     1      45.154 -14.326   6.763  1.00  0.00    -0.339 N 
HETATM   26  H   UNL     1      46.074 -14.622   6.453  1.00  0.00     0.167 HD
BRANCH  25  27
HETATM   27  C   UNL     1      45.227 -13.323   7.754  1.00  0.00     0.033 A 
HETATM   28  C   UNL     1      46.350 -12.500   7.905  1.00  0.00     0.032 A 
HETATM   29  C   UNL     1      46.369 -11.457   8.839  1.00  0.00     0.039 A 
HETATM   30  C   UNL     1      45.250 -11.203   9.629  1.00  0.00     0.068 A 
HETATM   31  C   UNL     1      44.118 -12.003   9.474  1.00  0.00     0.039 A 
HETATM   32  C   UNL     1      44.100 -13.041   8.535  1.00  0.00     0.032 A 
BRANCH  30  33
HETATM   33  O   UNL     1      45.134 -10.217  10.569  1.00  0.00    -0.356 OA
HETATM   34  C   UNL     1      43.991 -10.272  11.413  1.00  0.00     0.210 C 
ENDBRANCH  30  33
ENDBRANCH  25  27
ENDBRANCH   1  25
TORSDOF 8
ENDMDL
MODEL 4
REMARK VINA RESULT:      -7.7      4.796      8.759
REMARK  8 active torsions:
REMARK  status: ('A' for Active; 'I' for Inactive)
REMARK    1  A    between atoms: O_2  and  C_3 
REMARK    2  A    between atoms: C_6  and  N_7 
REMARK    3  A    between atoms: N_7  and  C_8 
REMARK    4  A    between atoms: C_11  and  C_12 
REMARK    5  A    between atoms: C_15  and  C_16 
REMARK       I    between atoms: C_16  and  N_17 
REMARK    6  A    between atoms: N_17  and  C_18 
REMARK    7  A    between atoms: C_18  and  C_19 
REMARK    8  A    between atoms: C_19  and  O_20 
ROOT
HETATM    1  C   UNL     1      42.437 -15.569   1.320  1.00  0.00     0.161 A 
HETATM    2  N   UNL     1      42.497 -14.259   1.639  1.00  0.00    -0.131 NA
HETATM    3  N   UNL     1      42.860 -13.855   2.891  1.00  0.00    -0.147 NA
HETATM    4  C   UNL     1      43.174 -14.767   3.838  1.00  0.00     0.100 A 
HETATM    5  C   UNL     1      43.131 -16.149   3.578  1.00  0.00     0.009 A 
HETATM    6  C   UNL     1      42.760 -16.560   2.275  1.00  0.00     0.024 A 
HETATM    7  C   UNL     1      43.429 -17.143   4.545  1.00  0.00     0.015 A 
HETATM    8  C   UNL     1      43.393 -18.502   4.234  1.00  0.00     0.001 A 
HETATM    9  C   UNL     1      43.057 -18.906   2.951  1.00  0.00     0.001 A 
HETATM   10  C   UNL     1      42.744 -17.948   1.986  1.00  0.00     0.016 A 
ENDROOT
BRANCH   4  11
HETATM   11  C   UNL     1      43.553 -14.163   5.124  1.00  0.00    -0.005 A 
HETATM   12  C   UNL     1      44.802 -14.451   5.700  1.00  0.00     0.015 A 
HETATM   13  C   UNL     1      45.165 -13.920   6.943  1.00  0.00     0.018 A 
HETATM   14  C   UNL     1      44.270 -13.101   7.639  1.00  0.00     0.032 A 
HETATM   15  C   UNL     1      43.029 -12.793   7.070  1.00  0.00     0.018 A 
HETATM   16  C   UNL     1      42.671 -13.328   5.828  1.00  0.00     0.015 A 
BRANCH  14  17
HETATM   17  C   UNL     1      44.594 -12.535   8.977  1.00  0.00     0.251 C 
HETATM   18  N   UNL     1      43.642 -11.715   9.544  1.00  0.00    -0.355 N 
HETATM   19  H   UNL     1      42.842 -11.415   9.003  1.00  0.00     0.162 HD
HETATM   20  O   UNL     1      45.678 -12.767   9.501  1.00  0.00    -0.268 OA
BRANCH  18  21
HETATM   21  C   UNL     1      43.873 -11.055  10.820  1.00  0.00     0.148 C 
BRANCH  21  22
HETATM   22  C   UNL     1      43.276 -11.835  11.991  1.00  0.00     0.183 C 
BRANCH  22  23
HETATM   23  O   UNL     1      43.928 -13.098  12.122  1.00  0.00    -0.399 OA
HETATM   24  H   UNL     1      43.246 -13.768  11.933  1.00  0.00     0.209 HD
ENDBRANCH  22  23
ENDBRANCH  21  22
ENDBRANCH  18  21
ENDBRANCH  14  17
ENDBRANCH   4  11
BRANCH   1  25
HETATM   25  N   UNL     1      42.010 -15.961   0.022  1.00  0.00    -0.339 N 
HETATM   26  H   UNL     1      41.902 -16.970   0.009  1.00  0.00     0.167 HD
BRANCH  25  27
HETATM   27  C   UNL     1      41.055 -15.315  -0.794  1.00  0.00     0.033 A 
HETATM   28  C   UNL     1      40.993 -15.519  -2.177  1.00  0.00     0.032 A 
HETATM   29  C   UNL     1      39.986 -14.933  -2.956  1.00  0.00     0.039 A 
HETATM   30  C   UNL     1      39.006 -14.146  -2.356  1.00  0.00     0.068 A 
HETATM   31  C   UNL     1      39.046 -13.952  -0.975  1.00  0.00     0.039 A 
HETATM   32  C   UNL     1      40.050 -14.543  -0.199  1.00  0.00     0.032 A 
BRANCH  30  33
HETATM   33  O   UNL     1      37.969 -13.525  -2.995  1.00  0.00    -0.356 OA
HETATM   34  C   UNL     1      37.163 -14.337  -3.840  1.00  0.00     0.210 C 
ENDBRANCH  30  33
ENDBRANCH  25  27
ENDBRANCH   1  25
TORSDOF 8
ENDMDL
MODEL 5
REMARK VINA RESULT:      -7.6      3.636     10.187
REMARK  8 active torsions:
REMARK  status: ('A' for Active; 'I' for Inactive)
REMARK    1  A    between atoms: O_2  and  C_3 
REMARK    2  A    between atoms: C_6  and  N_7 
REMARK    3  A    between atoms: N_7  and  C_8 
REMARK    4  A    between atoms: C_11  and  C_12 
REMARK    5  A    between atoms: C_15  and  C_16 
REMARK       I    between atoms: C_16  and  N_17 
REMARK    6  A    between atoms: N_17  and  C_18 
REMARK    7  A    between atoms: C_18  and  C_19 
REMARK    8  A    between atoms: C_19  and  O_20 
ROOT
HETATM    1  C   UNL     1      40.572 -14.263  -1.766  1.00  0.00     0.161 A 
HETATM    2  N   UNL     1      40.711 -15.603  -1.853  1.00  0.00    -0.131 NA
HETATM    3  N   UNL     1      41.258 -16.323  -0.831  1.00  0.00    -0.147 NA
HETATM    4  C   UNL     1      41.669 -15.701   0.297  1.00  0.00     0.100 A 
HETATM    5  C   UNL     1      41.558 -14.308   0.458  1.00  0.00     0.009 A 
HETATM    6  C   UNL     1      40.983 -13.569  -0.604  1.00  0.00     0.024 A 
HETATM    7  C   UNL     1      41.996 -13.610   1.612  1.00  0.00     0.015 A 
HETATM    8  C   UNL     1      41.845 -12.228   1.735  1.00  0.00     0.001 A 
HETATM    9  C   UNL     1      41.257 -11.507   0.707  1.00  0.00     0.001 A 
HETATM   10  C   UNL     1      40.833 -12.168  -0.446  1.00  0.00     0.016 A 
ENDROOT
BRANCH   4  11
HETATM   11  C   UNL     1      42.223 -16.623   1.299  1.00  0.00    -0.005 A 
HETATM   12  C   UNL     1      41.508 -16.902   2.477  1.00  0.00     0.015 A 
HETATM   13  C   UNL     1      42.036 -17.743   3.462  1.00  0.00     0.018 A 
HETATM   14  C   UNL     1      43.303 -18.309   3.290  1.00  0.00     0.032 A 
HETATM   15  C   UNL     1      44.020 -18.054   2.115  1.00  0.00     0.018 A 
HETATM   16  C   UNL     1      43.487 -17.210   1.134  1.00  0.00     0.015 A 
BRANCH  14  17
HETATM   17  C   UNL     1      43.923 -19.186   4.320  1.00  0.00     0.251 C 
HETATM   18  N   UNL     1      44.584 -20.304   3.857  1.00  0.00    -0.355 N 
HETATM   19  H   UNL     1      44.517 -20.568   2.884  1.00  0.00     0.162 HD
HETATM   20  O   UNL     1      43.797 -18.927   5.511  1.00  0.00    -0.268 OA
BRANCH  18  21
HETATM   21  C   UNL     1      45.177 -21.267   4.772  1.00  0.00     0.148 C 
BRANCH  21  22
HETATM   22  C   UNL     1      44.712 -22.696   4.492  1.00  0.00     0.183 C 
BRANCH  22  23
HETATM   23  O   UNL     1      44.672 -22.931   3.085  1.00  0.00    -0.399 OA
HETATM   24  H   UNL     1      44.472 -23.879   2.980  1.00  0.00     0.209 HD
ENDBRANCH  22  23
ENDBRANCH  21  22
ENDBRANCH  18  21
ENDBRANCH  14  17
ENDBRANCH   4  11
BRANCH   1  25
HETATM   25  N   UNL     1      40.042 -13.534  -2.865  1.00  0.00    -0.339 N 
HETATM   26  H   UNL     1      40.707 -13.575  -3.630  1.00  0.00     0.167 HD
BRANCH  25  27
HETATM   27  C   UNL     1      38.706 -13.534  -3.324  1.00  0.00     0.033 A 
HETATM   28  C   UNL     1      37.985 -12.352  -3.526  1.00  0.00     0.032 A 
HETATM   29  C   UNL     1      36.689 -12.371  -4.060  1.00  0.00     0.039 A 
HETATM   30  C   UNL     1      36.099 -13.579  -4.423  1.00  0.00     0.068 A 
HETATM   31  C   UNL     1      36.816 -14.762  -4.245  1.00  0.00     0.039 A 
HETATM   32  C   UNL     1      38.112 -14.740  -3.716  1.00  0.00     0.032 A 
BRANCH  30  33
HETATM   33  O   UNL     1      34.851 -13.737  -4.959  1.00  0.00    -0.356 OA
HETATM   34  C   UNL     1      33.992 -12.605  -4.919  1.00  0.00     0.210 C 
ENDBRANCH  30  33
ENDBRANCH  25  27
ENDBRANCH   1  25
TORSDOF 8
ENDMDL
MODEL 6
REMARK VINA RESULT:      -7.2      4.135     10.211
REMARK  8 active torsions:
REMARK  status: ('A' for Active; 'I' for Inactive)
REMARK    1  A    between atoms: O_2  and  C_3 
REMARK    2  A    between atoms: C_6  and  N_7 
REMARK    3  A    between atoms: N_7  and  C_8 
REMARK    4  A    between atoms: C_11  and  C_12 
REMARK    5  A    between atoms: C_15  and  C_16 
REMARK       I    between atoms: C_16  and  N_17 
REMARK    6  A    between atoms: N_17  and  C_18 
REMARK    7  A    between atoms: C_18  and  C_19 
REMARK    8  A    between atoms: C_19  and  O_20 
ROOT
HETATM    1  C   UNL     1      40.409 -14.227  -1.647  1.00  0.00     0.161 A 
HETATM    2  N   UNL     1      40.782 -15.517  -1.779  1.00  0.00    -0.131 NA
HETATM    3  N   UNL     1      41.343 -16.200  -0.739  1.00  0.00    -0.147 NA
HETATM    4  C   UNL     1      41.531 -15.591   0.453  1.00  0.00     0.100 A 
HETATM    5  C   UNL     1      41.169 -14.248   0.664  1.00  0.00     0.009 A 
HETATM    6  C   UNL     1      40.582 -13.549  -0.417  1.00  0.00     0.024 A 
HETATM    7  C   UNL     1      41.367 -13.561   1.890  1.00  0.00     0.015 A 
HETATM    8  C   UNL     1      40.972 -12.234   2.058  1.00  0.00     0.001 A 
HETATM    9  C   UNL     1      40.372 -11.557   1.008  1.00  0.00     0.001 A 
HETATM   10  C   UNL     1      40.181 -12.205  -0.212  1.00  0.00     0.016 A 
ENDROOT
BRANCH   4  11
HETATM   11  C   UNL     1      42.134 -16.470   1.465  1.00  0.00    -0.005 A 
HETATM   12  C   UNL     1      43.456 -16.924   1.312  1.00  0.00     0.015 A 
HETATM   13  C   UNL     1      44.034 -17.794   2.243  1.00  0.00     0.018 A 
HETATM   14  C   UNL     1      43.288 -18.239   3.339  1.00  0.00     0.032 A 
HETATM   15  C   UNL     1      41.977 -17.782   3.513  1.00  0.00     0.018 A 
HETATM   16  C   UNL     1      41.403 -16.913   2.579  1.00  0.00     0.015 A 
BRANCH  14  17
HETATM   17  C   UNL     1      43.845 -19.188   4.341  1.00  0.00     0.251 C 
HETATM   18  N   UNL     1      44.585 -20.240   3.845  1.00  0.00    -0.355 N 
HETATM   19  H   UNL     1      44.615 -20.417   2.851  1.00  0.00     0.162 HD
HETATM   20  O   UNL     1      43.603 -19.041   5.533  1.00  0.00    -0.268 OA
BRANCH  18  21
HETATM   21  C   UNL     1      45.128 -21.265   4.723  1.00  0.00     0.148 C 
BRANCH  21  22
HETATM   22  C   UNL     1      44.431 -22.614   4.542  1.00  0.00     0.183 C 
BRANCH  22  23
HETATM   23  O   UNL     1      44.989 -23.306   3.424  1.00  0.00    -0.399 OA
HETATM   24  H   UNL     1      44.812 -24.251   3.583  1.00  0.00     0.209 HD
ENDBRANCH  22  23
ENDBRANCH  21  22
ENDBRANCH  18  21
ENDBRANCH  14  17
ENDBRANCH   4  11
BRANCH   1  25
HETATM   25  N   UNL     1      39.871 -13.528  -2.761  1.00  0.00    -0.339 N 
HETATM   26  H   UNL     1      38.900 -13.306  -2.565  1.00  0.00     0.167 HD
BRANCH  25  27
HETATM   27  C   UNL     1      40.502 -12.519  -3.521  1.00  0.00     0.033 A 
HETATM   28  C   UNL     1      39.797 -11.433  -4.055  1.00  0.00     0.032 A 
HETATM   29  C   UNL     1      40.454 -10.400  -4.735  1.00  0.00     0.039 A 
HETATM   30  C   UNL     1      41.839 -10.425  -4.874  1.00  0.00     0.068 A 
HETATM   31  C   UNL     1      42.555 -11.491  -4.329  1.00  0.00     0.039 A 
HETATM   32  C   UNL     1      41.896 -12.519  -3.646  1.00  0.00     0.032 A 
BRANCH  30  33
HETATM   33  O   UNL     1      42.603  -9.481  -5.505  1.00  0.00    -0.356 OA
HETATM   34  C   UNL     1      42.008  -8.815  -6.612  1.00  0.00     0.210 C 
ENDBRANCH  30  33
ENDBRANCH  25  27
ENDBRANCH   1  25
TORSDOF 8
ENDMDL
MODEL 7
REMARK VINA RESULT:      -7.2      4.342     10.052
REMARK  8 active torsions:
REMARK  status: ('A' for Active; 'I' for Inactive)
REMARK    1  A    between atoms: O_2  and  C_3 
REMARK    2  A    between atoms: C_6  and  N_7 
REMARK    3  A    between atoms: N_7  and  C_8 
REMARK    4  A    between atoms: C_11  and  C_12 
REMARK    5  A    between atoms: C_15  and  C_16 
REMARK       I    between atoms: C_16  and  N_17 
REMARK    6  A    between atoms: N_17  and  C_18 
REMARK    7  A    between atoms: C_18  and  C_19 
REMARK    8  A    between atoms: C_19  and  O_20 
ROOT
HETATM    1  C   UNL     1      41.797 -12.027   6.004  1.00  0.00     0.161 A 
HETATM    2  N   UNL     1      42.762 -12.879   6.409  1.00  0.00    -0.131 NA
HETATM    3  N   UNL     1      42.949 -14.080   5.788  1.00  0.00    -0.147 NA
HETATM    4  C   UNL     1      42.167 -14.435   4.744  1.00  0.00     0.100 A 
HETATM    5  C   UNL     1      41.140 -13.599   4.269  1.00  0.00     0.009 A 
HETATM    6  C   UNL     1      40.957 -12.353   4.914  1.00  0.00     0.024 A 
HETATM    7  C   UNL     1      40.280 -13.940   3.193  1.00  0.00     0.015 A 
HETATM    8  C   UNL     1      39.288 -13.069   2.743  1.00  0.00     0.001 A 
HETATM    9  C   UNL     1      39.126 -11.836   3.357  1.00  0.00     0.001 A 
HETATM   10  C   UNL     1      39.948 -11.484   4.428  1.00  0.00     0.016 A 
ENDROOT
BRANCH   4  11
HETATM   11  C   UNL     1      42.508 -15.752   4.185  1.00  0.00    -0.005 A 
HETATM   12  C   UNL     1      41.999 -16.924   4.770  1.00  0.00     0.015 A 
HETATM   13  C   UNL     1      42.345 -18.187   4.279  1.00  0.00     0.018 A 
HETATM   14  C   UNL     1      43.224 -18.298   3.197  1.00  0.00     0.032 A 
HETATM   15  C   UNL     1      43.727 -17.139   2.594  1.00  0.00     0.018 A 
HETATM   16  C   UNL     1      43.378 -15.878   3.090  1.00  0.00     0.015 A 
BRANCH  14  17
HETATM   17  C   UNL     1      43.648 -19.617   2.655  1.00  0.00     0.251 C 
HETATM   18  N   UNL     1      44.277 -20.470   3.537  1.00  0.00    -0.355 N 
HETATM   19  H   UNL     1      44.550 -20.143   4.454  1.00  0.00     0.162 HD
HETATM   20  O   UNL     1      43.475 -19.885   1.472  1.00  0.00    -0.268 OA
BRANCH  18  21
HETATM   21  C   UNL     1      44.791 -21.761   3.107  1.00  0.00     0.148 C 
BRANCH  21  22
HETATM   22  C   UNL     1      44.710 -22.815   4.212  1.00  0.00     0.183 C 
BRANCH  22  23
HETATM   23  O   UNL     1      44.909 -22.204   5.487  1.00  0.00    -0.399 OA
HETATM   24  H   UNL     1      45.779 -22.515   5.797  1.00  0.00     0.209 HD
ENDBRANCH  22  23
ENDBRANCH  21  22
ENDBRANCH  18  21
ENDBRANCH  14  17
ENDBRANCH   4  11
BRANCH   1  25
HETATM   25  N   UNL     1      41.596 -10.804   6.701  1.00  0.00    -0.339 N 
HETATM   26  H   UNL     1      41.160 -10.140   6.069  1.00  0.00     0.167 HD
BRANCH  25  27
HETATM   27  C   UNL     1      41.146 -10.643   8.029  1.00  0.00     0.033 A 
HETATM   28  C   UNL     1      39.798 -10.765   8.383  1.00  0.00     0.032 A 
HETATM   29  C   UNL     1      39.384 -10.684   9.719  1.00  0.00     0.039 A 
HETATM   30  C   UNL     1      40.322 -10.499  10.732  1.00  0.00     0.068 A 
HETATM   31  C   UNL     1      41.671 -10.396  10.394  1.00  0.00     0.039 A 
HETATM   32  C   UNL     1      42.082 -10.483   9.059  1.00  0.00     0.032 A 
BRANCH  30  33
HETATM   33  O   UNL     1      40.055 -10.410  12.071  1.00  0.00    -0.356 OA
HETATM   34  C   UNL     1      40.383 -11.544  12.863  1.00  0.00     0.210 C 
ENDBRANCH  30  33
ENDBRANCH  25  27
ENDBRANCH   1  25
TORSDOF 8
ENDMDL
MODEL 8
REMARK VINA RESULT:      -7.2      5.971     10.537
REMARK  8 active torsions:
REMARK  status: ('A' for Active; 'I' for Inactive)
REMARK    1  A    between atoms: O_2  and  C_3 
REMARK    2  A    between atoms: C_6  and  N_7 
REMARK    3  A    between atoms: N_7  and  C_8 
REMARK    4  A    between atoms: C_11  and  C_12 
REMARK    5  A    between atoms: C_15  and  C_16 
REMARK       I    between atoms: C_16  and  N_17 
REMARK    6  A    between atoms: N_17  and  C_18 
REMARK    7  A    between atoms: C_18  and  C_19 
REMARK    8  A    between atoms: C_19  and  O_20 
ROOT
HETATM    1  C   UNL     1      42.138 -11.133   7.982  1.00  0.00     0.161 A 
HETATM    2  N   UNL     1      41.299 -11.595   7.031  1.00  0.00    -0.131 NA
HETATM    3  N   UNL     1      41.670 -12.606   6.193  1.00  0.00    -0.147 NA
HETATM    4  C   UNL     1      42.892 -13.172   6.309  1.00  0.00     0.100 A 
HETATM    5  C   UNL     1      43.820 -12.742   7.275  1.00  0.00     0.009 A 
HETATM    6  C   UNL     1      43.425 -11.697   8.144  1.00  0.00     0.024 A 
HETATM    7  C   UNL     1      45.121 -13.290   7.419  1.00  0.00     0.015 A 
HETATM    8  C   UNL     1      45.999 -12.844   8.407  1.00  0.00     0.001 A 
HETATM    9  C   UNL     1      45.603 -11.840   9.276  1.00  0.00     0.001 A 
HETATM   10  C   UNL     1      44.335 -11.273   9.145  1.00  0.00     0.016 A 
ENDROOT
BRANCH   4  11
HETATM   11  C   UNL     1      43.126 -14.253   5.339  1.00  0.00    -0.005 A 
HETATM   12  C   UNL     1      43.444 -13.950   4.004  1.00  0.00     0.015 A 
HETATM   13  C   UNL     1      43.629 -14.963   3.057  1.00  0.00     0.018 A 
HETATM   14  C   UNL     1      43.481 -16.302   3.430  1.00  0.00     0.032 A 
HETATM   15  C   UNL     1      43.180 -16.619   4.760  1.00  0.00     0.018 A 
HETATM   16  C   UNL     1      42.995 -15.603   5.703  1.00  0.00     0.015 A 
BRANCH  14  17
HETATM   17  C   UNL     1      43.637 -17.416   2.456  1.00  0.00     0.251 C 
HETATM   18  N   UNL     1      43.150 -18.645   2.845  1.00  0.00    -0.355 N 
HETATM   19  H   UNL     1      42.837 -18.791   3.795  1.00  0.00     0.162 HD
HETATM   20  O   UNL     1      44.215 -17.230   1.391  1.00  0.00    -0.268 OA
BRANCH  18  21
HETATM   21  C   UNL     1      43.300 -19.822   2.002  1.00  0.00     0.148 C 
BRANCH  21  22
HETATM   22  C   UNL     1      44.316 -20.814   2.567  1.00  0.00     0.183 C 
BRANCH  22  23
HETATM   23  O   UNL     1      44.147 -22.091   1.951  1.00  0.00    -0.399 OA
HETATM   24  H   UNL     1      44.249 -21.939   0.994  1.00  0.00     0.209 HD
ENDBRANCH  22  23
ENDBRANCH  21  22
ENDBRANCH  18  21
ENDBRANCH  14  17
ENDBRANCH   4  11
BRANCH   1  25
HETATM   25  N   UNL     1      41.741 -10.047   8.808  1.00  0.00    -0.339 N 
HETATM   26  H   UNL     1      41.037  -9.507   8.316  1.00  0.00     0.167 HD
BRANCH  25  27
HETATM   27  C   UNL     1      41.508 -10.075  10.201  1.00  0.00     0.033 A 
HETATM   28  C   UNL     1      40.756 -11.083  10.814  1.00  0.00     0.032 A 
HETATM   29  C   UNL     1      40.607 -11.138  12.206  1.00  0.00     0.039 A 
HETATM   30  C   UNL     1      41.229 -10.190  13.014  1.00  0.00     0.068 A 
HETATM   31  C   UNL     1      41.998  -9.192  12.416  1.00  0.00     0.039 A 
HETATM   32  C   UNL     1      42.150  -9.143  11.026  1.00  0.00     0.032 A 
BRANCH  30  33
HETATM   33  O   UNL     1      41.172 -10.133  14.379  1.00  0.00    -0.356 OA
HETATM   34  C   UNL     1      42.317  -9.614  15.044  1.00  0.00     0.210 C 
ENDBRANCH  30  33
ENDBRANCH  25  27
ENDBRANCH   1  25
TORSDOF 8
ENDMDL
MODEL 9
REMARK VINA RESULT:      -7.2      4.427      5.477
REMARK  8 active torsions:
REMARK  status: ('A' for Active; 'I' for Inactive)
REMARK    1  A    between atoms: O_2  and  C_3 
REMARK    2  A    between atoms: C_6  and  N_7 
REMARK    3  A    between atoms: N_7  and  C_8 
REMARK    4  A    between atoms: C_11  and  C_12 
REMARK    5  A    between atoms: C_15  and  C_16 
REMARK       I    between atoms: C_16  and  N_17 
REMARK    6  A    between atoms: N_17  and  C_18 
REMARK    7  A    between atoms: C_18  and  C_19 
REMARK    8  A    between atoms: C_19  and  O_20 
ROOT
HETATM    1  C   UNL     1      41.197 -16.378   1.498  1.00  0.00     0.161 A 
HETATM    2  N   UNL     1      41.608 -16.585   0.229  1.00  0.00    -0.131 NA
HETATM    3  N   UNL     1      41.604 -15.573  -0.687  1.00  0.00    -0.147 NA
HETATM    4  C   UNL     1      41.191 -14.336  -0.334  1.00  0.00     0.100 A 
HETATM    5  C   UNL     1      40.746 -14.046   0.969  1.00  0.00     0.009 A 
HETATM    6  C   UNL     1      40.759 -15.099   1.915  1.00  0.00     0.024 A 
HETATM    7  C   UNL     1      40.282 -12.770   1.379  1.00  0.00     0.015 A 
HETATM    8  C   UNL     1      39.871 -12.526   2.689  1.00  0.00     0.001 A 
HETATM    9  C   UNL     1      39.909 -13.548   3.623  1.00  0.00     0.001 A 
HETATM   10  C   UNL     1      40.346 -14.817   3.242  1.00  0.00     0.016 A 
ENDROOT
BRANCH   4  11
HETATM   11  C   UNL     1      41.261 -13.364  -1.436  1.00  0.00    -0.005 A 
HETATM   12  C   UNL     1      40.194 -13.244  -2.343  1.00  0.00     0.015 A 
HETATM   13  C   UNL     1      40.259 -12.356  -3.422  1.00  0.00     0.018 A 
HETATM   14  C   UNL     1      41.406 -11.580  -3.619  1.00  0.00     0.032 A 
HETATM   15  C   UNL     1      42.469 -11.677  -2.714  1.00  0.00     0.018 A 
HETATM   16  C   UNL     1      42.400 -12.568  -1.638  1.00  0.00     0.015 A 
BRANCH  14  17
HETATM   17  C   UNL     1      41.538 -10.642  -4.767  1.00  0.00     0.251 C 
HETATM   18  N   UNL     1      40.381 -10.351  -5.459  1.00  0.00    -0.355 N 
HETATM   19  H   UNL     1      39.532 -10.866  -5.269  1.00  0.00     0.162 HD
HETATM   20  O   UNL     1      42.637 -10.204  -5.084  1.00  0.00    -0.268 OA
BRANCH  18  21
HETATM   21  C   UNL     1      40.397  -9.496  -6.635  1.00  0.00     0.148 C 
BRANCH  21  22
HETATM   22  C   UNL     1      40.694 -10.276  -7.916  1.00  0.00     0.183 C 
BRANCH  22  23
HETATM   23  O   UNL     1      42.099 -10.285  -8.168  1.00  0.00    -0.399 OA
HETATM   24  H   UNL     1      42.238  -9.675  -8.916  1.00  0.00     0.209 HD
ENDBRANCH  22  23
ENDBRANCH  21  22
ENDBRANCH  18  21
ENDBRANCH  14  17
ENDBRANCH   4  11
BRANCH   1  25
HETATM   25  N   UNL     1      41.167 -17.461   2.417  1.00  0.00    -0.339 N 
HETATM   26  H   UNL     1      40.408 -18.083   2.160  1.00  0.00     0.167 HD
BRANCH  25  27
HETATM   27  C   UNL     1      42.273 -18.166   2.941  1.00  0.00     0.033 A 
HETATM   28  C   UNL     1      42.662 -18.058   4.282  1.00  0.00     0.032 A 
HETATM   29  C   UNL     1      43.711 -18.828   4.801  1.00  0.00     0.039 A 
HETATM   30  C   UNL     1      44.378 -19.740   3.987  1.00  0.00     0.068 A 
HETATM   31  C   UNL     1      43.987 -19.871   2.655  1.00  0.00     0.039 A 
HETATM   32  C   UNL     1      42.935 -19.105   2.141  1.00  0.00     0.032 A 
BRANCH  30  33
HETATM   33  O   UNL     1      45.409 -20.556   4.368  1.00  0.00    -0.356 OA
HETATM   34  C   UNL     1      45.055 -21.772   5.014  1.00  0.00     0.210 C 
ENDBRANCH  30  33
ENDBRANCH  25  27
ENDBRANCH   1  25
TORSDOF 8
ENDMDL
MODEL 10
REMARK VINA RESULT:      -7.1      4.090      5.351
REMARK  8 active torsions:
REMARK  status: ('A' for Active; 'I' for Inactive)
REMARK    1  A    between atoms: O_2  and  C_3 
REMARK    2  A    between atoms: C_6  and  N_7 
REMARK    3  A    between atoms: N_7  and  C_8 
REMARK    4  A    between atoms: C_11  and  C_12 
REMARK    5  A    between atoms: C_15  and  C_16 
REMARK       I    between atoms: C_16  and  N_17 
REMARK    6  A    between atoms: N_17  and  C_18 
REMARK    7  A    between atoms: C_18  and  C_19 
REMARK    8  A    between atoms: C_19  and  O_20 
ROOT
HETATM    1  C   UNL     1      41.451 -14.585   0.759  1.00  0.00     0.161 A 
HETATM    2  N   UNL     1      41.527 -15.105  -0.484  1.00  0.00    -0.131 NA
HETATM    3  N   UNL     1      40.538 -14.890  -1.400  1.00  0.00    -0.147 NA
HETATM    4  C   UNL     1      39.461 -14.142  -1.076  1.00  0.00     0.100 A 
HETATM    5  C   UNL     1      39.312 -13.570   0.201  1.00  0.00     0.009 A 
HETATM    6  C   UNL     1      40.345 -13.792   1.143  1.00  0.00     0.024 A 
HETATM    7  C   UNL     1      38.189 -12.797   0.593  1.00  0.00     0.015 A 
HETATM    8  C   UNL     1      38.096 -12.232   1.865  1.00  0.00     0.001 A 
HETATM    9  C   UNL     1      39.119 -12.426   2.779  1.00  0.00     0.001 A 
HETATM   10  C   UNL     1      40.227 -13.195   2.424  1.00  0.00     0.016 A 
ENDROOT
BRANCH   4  11
HETATM   11  C   UNL     1      38.499 -14.001  -2.179  1.00  0.00    -0.005 A 
HETATM   12  C   UNL     1      37.924 -12.750  -2.462  1.00  0.00     0.015 A 
HETATM   13  C   UNL     1      36.975 -12.603  -3.480  1.00  0.00     0.018 A 
HETATM   14  C   UNL     1      36.573 -13.717  -4.225  1.00  0.00     0.032 A 
HETATM   15  C   UNL     1      37.149 -14.966  -3.965  1.00  0.00     0.018 A 
HETATM   16  C   UNL     1      38.096 -15.107  -2.945  1.00  0.00     0.015 A 
BRANCH  14  17
HETATM   17  C   UNL     1      35.547 -13.621  -5.298  1.00  0.00     0.251 C 
HETATM   18  N   UNL     1      36.009 -13.661  -6.596  1.00  0.00    -0.355 N 
HETATM   19  H   UNL     1      37.001 -13.616  -6.784  1.00  0.00     0.162 HD
HETATM   20  O   UNL     1      34.365 -13.469  -5.011  1.00  0.00    -0.268 OA
BRANCH  18  21
HETATM   21  C   UNL     1      35.106 -13.515  -7.727  1.00  0.00     0.148 C 
BRANCH  21  22
HETATM   22  C   UNL     1      35.580 -14.297  -8.952  1.00  0.00     0.183 C 
BRANCH  22  23
HETATM   23  O   UNL     1      36.724 -15.084  -8.619  1.00  0.00    -0.399 OA
HETATM   24  H   UNL     1      36.622 -15.920  -9.109  1.00  0.00     0.209 HD
ENDBRANCH  22  23
ENDBRANCH  21  22
ENDBRANCH  18  21
ENDBRANCH  14  17
ENDBRANCH   4  11
BRANCH   1  25
HETATM   25  N   UNL     1      42.473 -14.865   1.706  1.00  0.00    -0.339 N 
HETATM   26  H   UNL     1      42.421 -14.177   2.451  1.00  0.00     0.167 HD
BRANCH  25  27
HETATM   27  C   UNL     1      42.869 -16.133   2.184  1.00  0.00     0.033 A 
HETATM   28  C   UNL     1      43.589 -17.038   1.395  1.00  0.00     0.032 A 
HETATM   29  C   UNL     1      44.044 -18.257   1.915  1.00  0.00     0.039 A 
HETATM   30  C   UNL     1      43.804 -18.583   3.248  1.00  0.00     0.068 A 
HETATM   31  C   UNL     1      43.105 -17.680   4.049  1.00  0.00     0.039 A 
HETATM   32  C   UNL     1      42.657 -16.461   3.529  1.00  0.00     0.032 A 
BRANCH  30  33
HETATM   33  O   UNL     1      44.197 -19.730   3.880  1.00  0.00    -0.356 OA
HETATM   34  C   UNL     1      44.612 -19.601   5.234  1.00  0.00     0.210 C 
ENDBRANCH  30  33
ENDBRANCH  25  27
ENDBRANCH   1  25
TORSDOF 8
ENDMDL
