MODEL 1
REMARK VINA RESULT:      -8.6      0.000      0.000
REMARK  5 active torsions:
REMARK  status: ('A' for Active; 'I' for Inactive)
REMARK    1  A    between atoms: O_2  and  C_3 
REMARK    2  A    between atoms: C_4  and  C_5 
REMARK    3  A    between atoms: C_9  and  N_10 
REMARK       I    between atoms: N_10  and  C_11 
REMARK    4  A    between atoms: C_11  and  C_12 
REMARK    5  A    between atoms: C_12  and  C_13 
ROOT
HETATM    1  C   UNL     1      42.604 -17.821   2.090  1.00  0.00     0.093 A 
HETATM    2  N   UNL     1      41.263 -17.886   2.135  1.00  0.00    -0.172 NA
HETATM    3  N   UNL     1      40.857 -17.112   1.114  1.00  0.00    -0.262 N 
HETATM    4  H   UNL     1      39.863 -16.984   0.943  1.00  0.00     0.191 HD
HETATM    5  C   UNL     1      41.886 -16.591   0.376  1.00  0.00     0.126 A 
HETATM    6  C   UNL     1      43.035 -17.026   0.989  1.00  0.00     0.084 A 
ENDROOT
BRANCH   5   7
HETATM    7  N   UNL     1      41.724 -15.807  -0.748  1.00  0.00    -0.311 N 
HETATM    8  C   UNL     1      40.886 -14.709  -0.754  1.00  0.00     0.236 C 
HETATM    9  O   UNL     1      40.237 -14.299   0.204  1.00  0.00    -0.272 OA
HETATM   10  H   UNL     1      42.216 -16.061  -1.595  1.00  0.00     0.170 HD
BRANCH   8  11
HETATM   11  C   UNL     1      40.791 -14.015  -2.091  1.00  0.00     0.068 A 
HETATM   12  C   UNL     1      41.475 -12.654  -2.210  1.00  0.00     0.026 A 
HETATM   13  C   UNL     1      42.067 -13.834  -2.910  1.00  0.00     0.026 A 
BRANCH  11  14
HETATM   14  C   UNL     1      39.458 -14.180  -2.818  1.00  0.00    -0.039 A 
HETATM   15  C   UNL     1      38.481 -13.170  -2.826  1.00  0.00     0.032 A 
HETATM   16  C   UNL     1      37.275 -13.339  -3.512  1.00  0.00     0.034 A 
HETATM   17 CL   UNL     1      36.103 -12.079  -3.491  1.00  0.00    -0.084 Cl
HETATM   18  C   UNL     1      37.017 -14.513  -4.211  1.00  0.00     0.024 A 
HETATM   19  C   UNL     1      37.971 -15.526  -4.226  1.00  0.00     0.002 A 
HETATM   20  C   UNL     1      39.175 -15.357  -3.537  1.00  0.00     0.008 A 
ENDBRANCH  11  14
ENDBRANCH   8  11
ENDBRANCH   5   7
BRANCH   1  21
HETATM   21  C   UNL     1      43.452 -18.548   3.033  1.00  0.00     0.029 A 
HETATM   22  C   UNL     1      43.902 -19.857   2.796  1.00  0.00     0.081 A 
HETATM   23  C   UNL     1      44.694 -20.525   3.739  1.00  0.00     0.039 A 
HETATM   24  C   UNL     1      45.070 -19.879   4.916  1.00  0.00     0.026 A 
HETATM   25  C   UNL     1      44.640 -18.575   5.152  1.00  0.00     0.035 A 
HETATM   26  C   UNL     1      43.837 -17.910   4.224  1.00  0.00     0.040 A 
HETATM   27 CL   UNL     1      45.096 -17.779   6.609  1.00  0.00    -0.084 Cl
BRANCH  22  28
HETATM   28  O   UNL     1      43.492 -20.555   1.688  1.00  0.00    -0.355 OA
HETATM   29  C   UNL     1      43.971 -21.900   1.740  1.00  0.00     0.210 C 
ENDBRANCH  22  28
ENDBRANCH   1  21
TORSDOF 5
ENDMDL
MODEL 2
REMARK VINA RESULT:      -8.6      1.641      3.012
REMARK  5 active torsions:
REMARK  status: ('A' for Active; 'I' for Inactive)
REMARK    1  A    between atoms: O_2  and  C_3 
REMARK    2  A    between atoms: C_4  and  C_5 
REMARK    3  A    between atoms: C_9  and  N_10 
REMARK       I    between atoms: N_10  and  C_11 
REMARK    4  A    between atoms: C_11  and  C_12 
REMARK    5  A    between atoms: C_12  and  C_13 
ROOT
HETATM    1  C   UNL     1      42.629 -17.792   2.103  1.00  0.00     0.093 A 
HETATM    2  N   UNL     1      41.290 -17.752   2.194  1.00  0.00    -0.172 NA
HETATM    3  N   UNL     1      40.909 -16.981   1.161  1.00  0.00    -0.262 N 
HETATM    4  H   UNL     1      39.922 -16.781   1.019  1.00  0.00     0.191 HD
HETATM    5  C   UNL     1      41.947 -16.563   0.374  1.00  0.00     0.126 A 
HETATM    6  C   UNL     1      43.080 -17.066   0.964  1.00  0.00     0.084 A 
ENDROOT
BRANCH   5   7
HETATM    7  N   UNL     1      41.807 -15.804  -0.769  1.00  0.00    -0.311 N 
HETATM    8  C   UNL     1      40.802 -14.864  -0.900  1.00  0.00     0.236 C 
HETATM    9  O   UNL     1      39.969 -14.584  -0.042  1.00  0.00    -0.272 OA
HETATM   10  H   UNL     1      42.445 -15.959  -1.539  1.00  0.00     0.170 HD
BRANCH   8  11
HETATM   11  C   UNL     1      40.771 -14.179  -2.244  1.00  0.00     0.068 A 
HETATM   12  C   UNL     1      40.778 -15.082  -3.476  1.00  0.00     0.026 A 
HETATM   13  C   UNL     1      39.529 -14.346  -3.117  1.00  0.00     0.026 A 
BRANCH  11  14
HETATM   14  C   UNL     1      41.576 -12.885  -2.336  1.00  0.00    -0.039 A 
HETATM   15  C   UNL     1      41.676 -12.151  -3.530  1.00  0.00     0.032 A 
HETATM   16  C   UNL     1      42.406 -10.960  -3.585  1.00  0.00     0.034 A 
HETATM   17 CL   UNL     1      42.509 -10.095  -5.069  1.00  0.00    -0.084 Cl
HETATM   18  C   UNL     1      43.046 -10.470  -2.452  1.00  0.00     0.024 A 
HETATM   19  C   UNL     1      42.956 -11.173  -1.255  1.00  0.00     0.002 A 
HETATM   20  C   UNL     1      42.229 -12.365  -1.202  1.00  0.00     0.008 A 
ENDBRANCH  11  14
ENDBRANCH   8  11
ENDBRANCH   5   7
BRANCH   1  21
HETATM   21  C   UNL     1      43.452 -18.553   3.042  1.00  0.00     0.029 A 
HETATM   22  C   UNL     1      43.881 -19.865   2.784  1.00  0.00     0.081 A 
HETATM   23  C   UNL     1      44.648 -20.566   3.723  1.00  0.00     0.039 A 
HETATM   24  C   UNL     1      45.021 -19.951   4.918  1.00  0.00     0.026 A 
HETATM   25  C   UNL     1      44.611 -18.645   5.175  1.00  0.00     0.035 A 
HETATM   26  C   UNL     1      43.832 -17.947   4.251  1.00  0.00     0.040 A 
HETATM   27 CL   UNL     1      45.062 -17.887   6.654  1.00  0.00    -0.084 Cl
BRANCH  22  28
HETATM   28  O   UNL     1      43.474 -20.532   1.657  1.00  0.00    -0.355 OA
HETATM   29  C   UNL     1      43.993 -21.863   1.651  1.00  0.00     0.210 C 
ENDBRANCH  22  28
ENDBRANCH   1  21
TORSDOF 5
ENDMDL
MODEL 3
REMARK VINA RESULT:      -8.4      2.679      3.537
REMARK  5 active torsions:
REMARK  status: ('A' for Active; 'I' for Inactive)
REMARK    1  A    between atoms: O_2  and  C_3 
REMARK    2  A    between atoms: C_4  and  C_5 
REMARK    3  A    between atoms: C_9  and  N_10 
REMARK       I    between atoms: N_10  and  C_11 
REMARK    4  A    between atoms: C_11  and  C_12 
REMARK    5  A    between atoms: C_12  and  C_13 
ROOT
HETATM    1  C   UNL     1      42.073 -17.775   3.154  1.00  0.00     0.093 A 
HETATM    2  N   UNL     1      41.236 -17.326   4.103  1.00  0.00    -0.172 NA
HETATM    3  N   UNL     1      40.421 -16.476   3.455  1.00  0.00    -0.262 N 
HETATM    4  H   UNL     1      39.695 -15.984   3.969  1.00  0.00     0.191 HD
HETATM    5  C   UNL     1      40.664 -16.398   2.110  1.00  0.00     0.126 A 
HETATM    6  C   UNL     1      41.738 -17.224   1.883  1.00  0.00     0.084 A 
ENDROOT
BRANCH   5   7
HETATM    7  N   UNL     1      39.932 -15.634   1.226  1.00  0.00    -0.311 N 
HETATM    8  C   UNL     1      39.527 -14.350   1.536  1.00  0.00     0.236 C 
HETATM    9  O   UNL     1      39.782 -13.752   2.577  1.00  0.00    -0.272 OA
HETATM   10  H   UNL     1      39.668 -16.037   0.336  1.00  0.00     0.170 HD
BRANCH   8  11
HETATM   11  C   UNL     1      38.682 -13.697   0.470  1.00  0.00     0.068 A 
HETATM   12  C   UNL     1      37.170 -13.888   0.576  1.00  0.00     0.026 A 
HETATM   13  C   UNL     1      37.761 -12.548   0.873  1.00  0.00     0.026 A 
BRANCH  11  14
HETATM   14  C   UNL     1      39.280 -13.712  -0.936  1.00  0.00    -0.039 A 
HETATM   15  C   UNL     1      40.609 -13.332  -1.187  1.00  0.00     0.032 A 
HETATM   16  C   UNL     1      41.138 -13.369  -2.480  1.00  0.00     0.034 A 
HETATM   17 CL   UNL     1      42.769 -12.890  -2.745  1.00  0.00    -0.084 Cl
HETATM   18  C   UNL     1      40.358 -13.791  -3.551  1.00  0.00     0.024 A 
HETATM   19  C   UNL     1      39.040 -14.179  -3.329  1.00  0.00     0.002 A 
HETATM   20  C   UNL     1      38.512 -14.139  -2.036  1.00  0.00     0.008 A 
ENDBRANCH  11  14
ENDBRANCH   8  11
ENDBRANCH   5   7
BRANCH   1  21
HETATM   21  C   UNL     1      43.124 -18.750   3.438  1.00  0.00     0.029 A 
HETATM   22  C   UNL     1      43.952 -18.665   4.569  1.00  0.00     0.081 A 
HETATM   23  C   UNL     1      44.964 -19.608   4.789  1.00  0.00     0.039 A 
HETATM   24  C   UNL     1      45.139 -20.665   3.897  1.00  0.00     0.026 A 
HETATM   25  C   UNL     1      44.312 -20.765   2.780  1.00  0.00     0.035 A 
HETATM   26  C   UNL     1      43.313 -19.819   2.545  1.00  0.00     0.040 A 
HETATM   27 CL   UNL     1      44.532 -22.063   1.672  1.00  0.00    -0.084 Cl
BRANCH  22  28
HETATM   28  O   UNL     1      43.864 -17.600   5.430  1.00  0.00    -0.355 OA
HETATM   29  C   UNL     1      44.796 -17.749   6.503  1.00  0.00     0.210 C 
ENDBRANCH  22  28
ENDBRANCH   1  21
TORSDOF 5
ENDMDL
MODEL 4
REMARK VINA RESULT:      -8.4      1.621      2.199
REMARK  5 active torsions:
REMARK  status: ('A' for Active; 'I' for Inactive)
REMARK    1  A    between atoms: O_2  and  C_3 
REMARK    2  A    between atoms: C_4  and  C_5 
REMARK    3  A    between atoms: C_9  and  N_10 
REMARK       I    between atoms: N_10  and  C_11 
REMARK    4  A    between atoms: C_11  and  C_12 
REMARK    5  A    between atoms: C_12  and  C_13 
ROOT
HETATM    1  C   UNL     1      42.349 -17.686   1.803  1.00  0.00     0.093 A 
HETATM    2  N   UNL     1      41.065 -17.416   2.088  1.00  0.00    -0.172 NA
HETATM    3  N   UNL     1      40.672 -16.587   1.105  1.00  0.00    -0.262 N 
HETATM    4  H   UNL     1      39.724 -16.220   1.103  1.00  0.00     0.191 HD
HETATM    5  C   UNL     1      41.639 -16.353   0.164  1.00  0.00     0.126 A 
HETATM    6  C   UNL     1      42.744 -17.046   0.594  1.00  0.00     0.084 A 
ENDROOT
BRANCH   5   7
HETATM    7  N   UNL     1      41.463 -15.578  -0.963  1.00  0.00    -0.311 N 
HETATM    8  C   UNL     1      40.656 -14.457  -0.956  1.00  0.00     0.236 C 
HETATM    9  O   UNL     1      40.048 -14.019   0.017  1.00  0.00    -0.272 OA
HETATM   10  H   UNL     1      41.921 -15.855  -1.822  1.00  0.00     0.170 HD
BRANCH   8  11
HETATM   11  C   UNL     1      40.537 -13.776  -2.298  1.00  0.00     0.068 A 
HETATM   12  C   UNL     1      41.304 -12.467  -2.475  1.00  0.00     0.026 A 
HETATM   13  C   UNL     1      41.777 -13.693  -3.185  1.00  0.00     0.026 A 
BRANCH  11  14
HETATM   14  C   UNL     1      39.159 -13.860  -2.952  1.00  0.00    -0.039 A 
HETATM   15  C   UNL     1      38.277 -12.767  -2.978  1.00  0.00     0.032 A 
HETATM   16  C   UNL     1      37.027 -12.864  -3.597  1.00  0.00     0.034 A 
HETATM   17 CL   UNL     1      35.974 -11.503  -3.600  1.00  0.00    -0.084 Cl
HETATM   18  C   UNL     1      36.631 -14.047  -4.209  1.00  0.00     0.024 A 
HETATM   19  C   UNL     1      37.489 -15.143  -4.205  1.00  0.00     0.002 A 
HETATM   20  C   UNL     1      38.737 -15.046  -3.584  1.00  0.00     0.008 A 
ENDBRANCH  11  14
ENDBRANCH   8  11
ENDBRANCH   5   7
BRANCH   1  21
HETATM   21  C   UNL     1      43.159 -18.580   2.629  1.00  0.00     0.029 A 
HETATM   22  C   UNL     1      43.629 -18.218   3.903  1.00  0.00     0.081 A 
HETATM   23  C   UNL     1      44.423 -19.097   4.650  1.00  0.00     0.039 A 
HETATM   24  C   UNL     1      44.731 -20.360   4.144  1.00  0.00     0.026 A 
HETATM   25  C   UNL     1      44.257 -20.731   2.889  1.00  0.00     0.035 A 
HETATM   26  C   UNL     1      43.480 -19.854   2.132  1.00  0.00     0.040 A 
HETATM   27 CL   UNL     1      44.644 -22.286   2.258  1.00  0.00    -0.084 Cl
BRANCH  22  28
HETATM   28  O   UNL     1      43.412 -16.959   4.404  1.00  0.00    -0.355 OA
HETATM   29  C   UNL     1      42.556 -17.019   5.546  1.00  0.00     0.210 C 
ENDBRANCH  22  28
ENDBRANCH   1  21
TORSDOF 5
ENDMDL
MODEL 5
REMARK VINA RESULT:      -8.2      2.373      9.235
REMARK  5 active torsions:
REMARK  status: ('A' for Active; 'I' for Inactive)
REMARK    1  A    between atoms: O_2  and  C_3 
REMARK    2  A    between atoms: C_4  and  C_5 
REMARK    3  A    between atoms: C_9  and  N_10 
REMARK       I    between atoms: N_10  and  C_11 
REMARK    4  A    between atoms: C_11  and  C_12 
REMARK    5  A    between atoms: C_12  and  C_13 
ROOT
HETATM    1  C   UNL     1      41.492 -14.109  -0.463  1.00  0.00     0.093 A 
HETATM    2  N   UNL     1      41.466 -15.234  -1.196  1.00  0.00    -0.172 NA
HETATM    3  N   UNL     1      41.702 -16.215  -0.308  1.00  0.00    -0.262 N 
HETATM    4  H   UNL     1      41.750 -17.181  -0.624  1.00  0.00     0.191 HD
HETATM    5  C   UNL     1      41.827 -15.772   0.982  1.00  0.00     0.126 A 
HETATM    6  C   UNL     1      41.703 -14.406   0.914  1.00  0.00     0.084 A 
ENDROOT
BRANCH   5   7
HETATM    7  N   UNL     1      42.023 -16.590   2.075  1.00  0.00    -0.311 N 
HETATM    8  C   UNL     1      43.260 -17.133   2.364  1.00  0.00     0.236 C 
HETATM    9  O   UNL     1      44.293 -16.938   1.729  1.00  0.00    -0.272 OA
HETATM   10  H   UNL     1      41.232 -16.815   2.664  1.00  0.00     0.170 HD
BRANCH   8  11
HETATM   11  C   UNL     1      43.264 -18.052   3.561  1.00  0.00     0.068 A 
HETATM   12  C   UNL     1      43.719 -17.449   4.890  1.00  0.00     0.026 A 
HETATM   13  C   UNL     1      42.275 -17.779   4.692  1.00  0.00     0.026 A 
BRANCH  11  14
HETATM   14  C   UNL     1      43.691 -19.491   3.277  1.00  0.00    -0.039 A 
HETATM   15  C   UNL     1      44.325 -20.287   4.246  1.00  0.00     0.032 A 
HETATM   16  C   UNL     1      44.692 -21.606   3.968  1.00  0.00     0.034 A 
HETATM   17 CL   UNL     1      45.473 -22.545   5.181  1.00  0.00    -0.084 Cl
HETATM   18  C   UNL     1      44.429 -22.166   2.722  1.00  0.00     0.024 A 
HETATM   19  C   UNL     1      43.795 -21.402   1.747  1.00  0.00     0.002 A 
HETATM   20  C   UNL     1      43.432 -20.082   2.026  1.00  0.00     0.008 A 
ENDBRANCH  11  14
ENDBRANCH   8  11
ENDBRANCH   5   7
BRANCH   1  21
HETATM   21  C   UNL     1      41.259 -12.791  -1.051  1.00  0.00     0.029 A 
HETATM   22  C   UNL     1      39.988 -12.358  -1.466  1.00  0.00     0.081 A 
HETATM   23  C   UNL     1      39.815 -11.096  -2.046  1.00  0.00     0.039 A 
HETATM   24  C   UNL     1      40.906 -10.239  -2.190  1.00  0.00     0.026 A 
HETATM   25  C   UNL     1      42.166 -10.654  -1.768  1.00  0.00     0.035 A 
HETATM   26  C   UNL     1      42.349 -11.918  -1.204  1.00  0.00     0.040 A 
HETATM   27 CL   UNL     1      43.516  -9.601  -1.952  1.00  0.00    -0.084 Cl
BRANCH  22  28
HETATM   28  O   UNL     1      38.905 -13.198  -1.412  1.00  0.00    -0.355 OA
HETATM   29  C   UNL     1      38.543 -13.629  -2.726  1.00  0.00     0.210 C 
ENDBRANCH  22  28
ENDBRANCH   1  21
TORSDOF 5
ENDMDL
MODEL 6
REMARK VINA RESULT:      -8.1      1.913      2.490
REMARK  5 active torsions:
REMARK  status: ('A' for Active; 'I' for Inactive)
REMARK    1  A    between atoms: O_2  and  C_3 
REMARK    2  A    between atoms: C_4  and  C_5 
REMARK    3  A    between atoms: C_9  and  N_10 
REMARK       I    between atoms: N_10  and  C_11 
REMARK    4  A    between atoms: C_11  and  C_12 
REMARK    5  A    between atoms: C_12  and  C_13 
ROOT
HETATM    1  C   UNL     1      43.068 -17.914   2.114  1.00  0.00     0.093 A 
HETATM    2  N   UNL     1      43.711 -17.509   1.007  1.00  0.00    -0.172 NA
HETATM    3  N   UNL     1      42.810 -16.754   0.355  1.00  0.00    -0.262 N 
HETATM    4  H   UNL     1      43.055 -16.336  -0.539  1.00  0.00     0.191 HD
HETATM    5  C   UNL     1      41.624 -16.611   1.025  1.00  0.00     0.126 A 
HETATM    6  C   UNL     1      41.756 -17.360   2.168  1.00  0.00     0.084 A 
ENDROOT
BRANCH   5   7
HETATM    7  N   UNL     1      40.564 -15.847   0.585  1.00  0.00    -0.311 N 
HETATM    8  C   UNL     1      40.322 -14.582   1.084  1.00  0.00     0.236 C 
HETATM    9  O   UNL     1      41.008 -14.000   1.921  1.00  0.00    -0.272 OA
HETATM   10  H   UNL     1      39.935 -16.237  -0.106  1.00  0.00     0.170 HD
BRANCH   8  11
HETATM   11  C   UNL     1      39.081 -13.927   0.529  1.00  0.00     0.068 A 
HETATM   12  C   UNL     1      37.742 -14.406   1.087  1.00  0.00     0.026 A 
HETATM   13  C   UNL     1      38.244 -13.048   1.456  1.00  0.00     0.026 A 
BRANCH  11  14
HETATM   14  C   UNL     1      39.128 -13.600  -0.962  1.00  0.00    -0.039 A 
HETATM   15  C   UNL     1      40.255 -13.014  -1.564  1.00  0.00     0.032 A 
HETATM   16  C   UNL     1      40.279 -12.739  -2.934  1.00  0.00     0.034 A 
HETATM   17 CL   UNL     1      41.676 -12.015  -3.630  1.00  0.00    -0.084 Cl
HETATM   18  C   UNL     1      39.186 -13.046  -3.737  1.00  0.00     0.024 A 
HETATM   19  C   UNL     1      38.061 -13.634  -3.168  1.00  0.00     0.002 A 
HETATM   20  C   UNL     1      38.036 -13.907  -1.798  1.00  0.00     0.008 A 
ENDBRANCH  11  14
ENDBRANCH   8  11
ENDBRANCH   5   7
BRANCH   1  21
HETATM   21  C   UNL     1      43.707 -18.756   3.123  1.00  0.00     0.029 A 
HETATM   22  C   UNL     1      43.887 -20.139   2.954  1.00  0.00     0.081 A 
HETATM   23  C   UNL     1      44.483 -20.912   3.958  1.00  0.00     0.039 A 
HETATM   24  C   UNL     1      44.934 -20.306   5.130  1.00  0.00     0.026 A 
HETATM   25  C   UNL     1      44.774 -18.933   5.299  1.00  0.00     0.035 A 
HETATM   26  C   UNL     1      44.165 -18.159   4.310  1.00  0.00     0.040 A 
HETATM   27 CL   UNL     1      45.322 -18.183   6.748  1.00  0.00    -0.084 Cl
BRANCH  22  28
HETATM   28  O   UNL     1      43.389 -20.786   1.851  1.00  0.00    -0.355 OA
HETATM   29  C   UNL     1      44.205 -21.913   1.525  1.00  0.00     0.210 C 
ENDBRANCH  22  28
ENDBRANCH   1  21
TORSDOF 5
ENDMDL
MODEL 7
REMARK VINA RESULT:      -8.1      2.397      9.143
REMARK  5 active torsions:
REMARK  status: ('A' for Active; 'I' for Inactive)
REMARK    1  A    between atoms: O_2  and  C_3 
REMARK    2  A    between atoms: C_4  and  C_5 
REMARK    3  A    between atoms: C_9  and  N_10 
REMARK       I    between atoms: N_10  and  C_11 
REMARK    4  A    between atoms: C_11  and  C_12 
REMARK    5  A    between atoms: C_12  and  C_13 
ROOT
HETATM    1  C   UNL     1      41.100 -14.478  -1.435  1.00  0.00     0.093 A 
HETATM    2  N   UNL     1      40.984 -15.783  -1.727  1.00  0.00    -0.172 NA
HETATM    3  N   UNL     1      41.436 -16.412  -0.629  1.00  0.00    -0.262 N 
HETATM    4  H   UNL     1      41.465 -17.428  -0.606  1.00  0.00     0.191 HD
HETATM    5  C   UNL     1      41.790 -15.562   0.385  1.00  0.00     0.126 A 
HETATM    6  C   UNL     1      41.592 -14.297  -0.111  1.00  0.00     0.084 A 
ENDROOT
BRANCH   5   7
HETATM    7  N   UNL     1      42.237 -15.967   1.626  1.00  0.00    -0.311 N 
HETATM    8  C   UNL     1      41.454 -16.738   2.464  1.00  0.00     0.236 C 
HETATM    9  O   UNL     1      40.330 -17.160   2.206  1.00  0.00    -0.272 OA
HETATM   10  H   UNL     1      43.153 -15.670   1.935  1.00  0.00     0.170 HD
BRANCH   8  11
HETATM   11  C   UNL     1      42.087 -17.027   3.803  1.00  0.00     0.068 A 
HETATM   12  C   UNL     1      42.470 -15.820   4.658  1.00  0.00     0.026 A 
HETATM   13  C   UNL     1      41.311 -16.668   5.069  1.00  0.00     0.026 A 
BRANCH  11  14
HETATM   14  C   UNL     1      43.041 -18.219   3.830  1.00  0.00    -0.039 A 
HETATM   15  C   UNL     1      43.083 -19.166   2.792  1.00  0.00     0.032 A 
HETATM   16  C   UNL     1      43.976 -20.240   2.832  1.00  0.00     0.034 A 
HETATM   17 CL   UNL     1      43.992 -21.380   1.543  1.00  0.00    -0.084 Cl
HETATM   18  C   UNL     1      44.852 -20.393   3.902  1.00  0.00     0.024 A 
HETATM   19  C   UNL     1      44.836 -19.465   4.939  1.00  0.00     0.002 A 
HETATM   20  C   UNL     1      43.941 -18.393   4.899  1.00  0.00     0.008 A 
ENDBRANCH  11  14
ENDBRANCH   8  11
ENDBRANCH   5   7
BRANCH   1  21
HETATM   21  C   UNL     1      40.694 -13.430  -2.371  1.00  0.00     0.029 A 
HETATM   22  C   UNL     1      39.348 -13.122  -2.629  1.00  0.00     0.081 A 
HETATM   23  C   UNL     1      39.005 -12.126  -3.552  1.00  0.00     0.039 A 
HETATM   24  C   UNL     1      40.004 -11.407  -4.205  1.00  0.00     0.026 A 
HETATM   25  C   UNL     1      41.341 -11.696  -3.945  1.00  0.00     0.035 A 
HETATM   26  C   UNL     1      41.691 -12.699  -3.039  1.00  0.00     0.040 A 
HETATM   27 CL   UNL     1      42.577 -10.815  -4.758  1.00  0.00    -0.084 Cl
BRANCH  22  28
HETATM   28  O   UNL     1      38.336 -13.856  -2.065  1.00  0.00    -0.355 OA
HETATM   29  C   UNL     1      37.643 -14.602  -3.068  1.00  0.00     0.210 C 
ENDBRANCH  22  28
ENDBRANCH   1  21
TORSDOF 5
ENDMDL
MODEL 8
REMARK VINA RESULT:      -8.0      2.569      3.794
REMARK  5 active torsions:
REMARK  status: ('A' for Active; 'I' for Inactive)
REMARK    1  A    between atoms: O_2  and  C_3 
REMARK    2  A    between atoms: C_4  and  C_5 
REMARK    3  A    between atoms: C_9  and  N_10 
REMARK       I    between atoms: N_10  and  C_11 
REMARK    4  A    between atoms: C_11  and  C_12 
REMARK    5  A    between atoms: C_12  and  C_13 
ROOT
HETATM    1  C   UNL     1      42.293 -17.583   1.707  1.00  0.00     0.093 A 
HETATM    2  N   UNL     1      40.996 -17.359   1.974  1.00  0.00    -0.172 NA
HETATM    3  N   UNL     1      40.600 -16.508   1.012  1.00  0.00    -0.262 N 
HETATM    4  H   UNL     1      39.642 -16.168   1.004  1.00  0.00     0.191 HD
HETATM    5  C   UNL     1      41.578 -16.214   0.100  1.00  0.00     0.126 A 
HETATM    6  C   UNL     1      42.694 -16.890   0.529  1.00  0.00     0.084 A 
ENDROOT
BRANCH   5   7
HETATM    7  N   UNL     1      41.402 -15.405  -1.003  1.00  0.00    -0.311 N 
HETATM    8  C   UNL     1      40.519 -14.343  -0.992  1.00  0.00     0.236 C 
HETATM    9  O   UNL     1      39.837 -13.989  -0.034  1.00  0.00    -0.272 OA
HETATM   10  H   UNL     1      41.918 -15.614  -1.848  1.00  0.00     0.170 HD
BRANCH   8  11
HETATM   11  C   UNL     1      40.416 -13.615  -2.310  1.00  0.00     0.068 A 
HETATM   12  C   UNL     1      40.776 -14.409  -3.565  1.00  0.00     0.026 A 
HETATM   13  C   UNL     1      39.347 -14.058  -3.306  1.00  0.00     0.026 A 
BRANCH  11  14
HETATM   14  C   UNL     1      40.840 -12.148  -2.280  1.00  0.00    -0.039 A 
HETATM   15  C   UNL     1      42.101 -11.744  -1.808  1.00  0.00     0.032 A 
HETATM   16  C   UNL     1      42.472 -10.397  -1.805  1.00  0.00     0.034 A 
HETATM   17 CL   UNL     1      44.024  -9.944  -1.214  1.00  0.00    -0.084 Cl
HETATM   18  C   UNL     1      41.600  -9.422  -2.276  1.00  0.00     0.024 A 
HETATM   19  C   UNL     1      40.348  -9.795  -2.756  1.00  0.00     0.002 A 
HETATM   20  C   UNL     1      39.977 -11.142  -2.756  1.00  0.00     0.008 A 
ENDBRANCH  11  14
ENDBRANCH   8  11
ENDBRANCH   5   7
BRANCH   1  21
HETATM   21  C   UNL     1      43.112 -18.482   2.518  1.00  0.00     0.029 A 
HETATM   22  C   UNL     1      43.575 -18.138   3.799  1.00  0.00     0.081 A 
HETATM   23  C   UNL     1      44.378 -19.022   4.532  1.00  0.00     0.039 A 
HETATM   24  C   UNL     1      44.702 -20.271   4.004  1.00  0.00     0.026 A 
HETATM   25  C   UNL     1      44.235 -20.625   2.740  1.00  0.00     0.035 A 
HETATM   26  C   UNL     1      43.449 -19.743   1.998  1.00  0.00     0.040 A 
HETATM   27 CL   UNL     1      44.642 -22.163   2.082  1.00  0.00    -0.084 Cl
BRANCH  22  28
HETATM   28  O   UNL     1      43.342 -16.892   4.323  1.00  0.00    -0.355 OA
HETATM   29  C   UNL     1      43.638 -16.876   5.721  1.00  0.00     0.210 C 
ENDBRANCH  22  28
ENDBRANCH   1  21
TORSDOF 5
ENDMDL
MODEL 9
REMARK VINA RESULT:      -7.8      2.668      9.211
REMARK  5 active torsions:
REMARK  status: ('A' for Active; 'I' for Inactive)
REMARK    1  A    between atoms: O_2  and  C_3 
REMARK    2  A    between atoms: C_4  and  C_5 
REMARK    3  A    between atoms: C_9  and  N_10 
REMARK       I    between atoms: N_10  and  C_11 
REMARK    4  A    between atoms: C_11  and  C_12 
REMARK    5  A    between atoms: C_12  and  C_13 
ROOT
HETATM    1  C   UNL     1      41.861 -13.918   0.797  1.00  0.00     0.093 A 
HETATM    2  N   UNL     1      42.334 -13.029   1.685  1.00  0.00    -0.172 NA
HETATM    3  N   UNL     1      42.872 -13.784   2.658  1.00  0.00    -0.262 N 
HETATM    4  H   UNL     1      43.291 -13.337   3.470  1.00  0.00     0.191 HD
HETATM    5  C   UNL     1      42.811 -15.129   2.409  1.00  0.00     0.126 A 
HETATM    6  C   UNL     1      42.152 -15.249   1.210  1.00  0.00     0.084 A 
ENDROOT
BRANCH   5   7
HETATM    7  N   UNL     1      43.336 -16.102   3.232  1.00  0.00    -0.311 N 
HETATM    8  C   UNL     1      42.548 -16.803   4.125  1.00  0.00     0.236 C 
HETATM    9  O   UNL     1      41.335 -16.670   4.265  1.00  0.00    -0.272 OA
HETATM   10  H   UNL     1      44.330 -16.288   3.195  1.00  0.00     0.170 HD
BRANCH   8  11
HETATM   11  C   UNL     1      43.311 -17.780   4.984  1.00  0.00     0.068 A 
HETATM   12  C   UNL     1      44.279 -17.188   6.007  1.00  0.00     0.026 A 
HETATM   13  C   UNL     1      43.012 -17.822   6.482  1.00  0.00     0.026 A 
BRANCH  11  14
HETATM   14  C   UNL     1      43.754 -19.061   4.280  1.00  0.00    -0.039 A 
HETATM   15  C   UNL     1      44.347 -20.129   4.975  1.00  0.00     0.032 A 
HETATM   16  C   UNL     1      44.730 -21.297   4.310  1.00  0.00     0.034 A 
HETATM   17 CL   UNL     1      45.458 -22.579   5.198  1.00  0.00    -0.084 Cl
HETATM   18  C   UNL     1      44.526 -21.432   2.941  1.00  0.00     0.024 A 
HETATM   19  C   UNL     1      43.934 -20.392   2.230  1.00  0.00     0.002 A 
HETATM   20  C   UNL     1      43.554 -19.224   2.896  1.00  0.00     0.008 A 
ENDBRANCH  11  14
ENDBRANCH   8  11
ENDBRANCH   5   7
BRANCH   1  21
HETATM   21  C   UNL     1      41.202 -13.507  -0.442  1.00  0.00     0.029 A 
HETATM   22  C   UNL     1      39.820 -13.649  -0.650  1.00  0.00     0.081 A 
HETATM   23  C   UNL     1      39.235 -13.264  -1.862  1.00  0.00     0.039 A 
HETATM   24  C   UNL     1      40.020 -12.705  -2.870  1.00  0.00     0.026 A 
HETATM   25  C   UNL     1      41.389 -12.548  -2.666  1.00  0.00     0.035 A 
HETATM   26  C   UNL     1      41.982 -12.945  -1.467  1.00  0.00     0.040 A 
HETATM   27 CL   UNL     1      42.363 -11.867  -3.912  1.00  0.00    -0.084 Cl
BRANCH  22  28
HETATM   28  O   UNL     1      39.025 -14.263   0.285  1.00  0.00    -0.355 OA
HETATM   29  C   UNL     1      37.803 -13.541   0.450  1.00  0.00     0.210 C 
ENDBRANCH  22  28
ENDBRANCH   1  21
TORSDOF 5
ENDMDL
MODEL 10
REMARK VINA RESULT:      -7.8      2.104      9.162
REMARK  5 active torsions:
REMARK  status: ('A' for Active; 'I' for Inactive)
REMARK    1  A    between atoms: O_2  and  C_3 
REMARK    2  A    between atoms: C_4  and  C_5 
REMARK    3  A    between atoms: C_9  and  N_10 
REMARK       I    between atoms: N_10  and  C_11 
REMARK    4  A    between atoms: C_11  and  C_12 
REMARK    5  A    between atoms: C_12  and  C_13 
ROOT
HETATM    1  C   UNL     1      40.124 -14.567   0.458  1.00  0.00     0.093 A 
HETATM    2  N   UNL     1      39.474 -14.004   1.489  1.00  0.00    -0.172 NA
HETATM    3  N   UNL     1      39.832 -14.743   2.553  1.00  0.00    -0.262 N 
HETATM    4  H   UNL     1      39.453 -14.523   3.470  1.00  0.00     0.191 HD
HETATM    5  C   UNL     1      40.731 -15.732   2.258  1.00  0.00     0.126 A 
HETATM    6  C   UNL     1      40.935 -15.650   0.902  1.00  0.00     0.084 A 
ENDROOT
BRANCH   5   7
HETATM    7  N   UNL     1      41.284 -16.590   3.186  1.00  0.00    -0.311 N 
HETATM    8  C   UNL     1      42.647 -16.642   3.407  1.00  0.00     0.236 C 
HETATM    9  O   UNL     1      43.489 -15.942   2.851  1.00  0.00    -0.272 OA
HETATM   10  H   UNL     1      40.673 -17.212   3.699  1.00  0.00     0.170 HD
BRANCH   8  11
HETATM   11  C   UNL     1      43.068 -17.685   4.413  1.00  0.00     0.068 A 
HETATM   12  C   UNL     1      43.784 -17.183   5.666  1.00  0.00     0.026 A 
HETATM   13  C   UNL     1      42.385 -17.697   5.780  1.00  0.00     0.026 A 
BRANCH  11  14
HETATM   14  C   UNL     1      43.563 -19.002   3.819  1.00  0.00    -0.039 A 
HETATM   15  C   UNL     1      44.190 -19.986   4.602  1.00  0.00     0.032 A 
HETATM   16  C   UNL     1      44.621 -21.190   4.038  1.00  0.00     0.034 A 
HETATM   17 CL   UNL     1      45.390 -22.366   5.031  1.00  0.00    -0.084 Cl
HETATM   18  C   UNL     1      44.432 -21.444   2.684  1.00  0.00     0.024 A 
HETATM   19  C   UNL     1      43.807 -20.490   1.887  1.00  0.00     0.002 A 
HETATM   20  C   UNL     1      43.379 -19.285   2.452  1.00  0.00     0.008 A 
ENDBRANCH  11  14
ENDBRANCH   8  11
ENDBRANCH   5   7
BRANCH   1  21
HETATM   21  C   UNL     1      40.021 -14.049  -0.906  1.00  0.00     0.029 A 
HETATM   22  C   UNL     1      41.073 -13.365  -1.538  1.00  0.00     0.081 A 
HETATM   23  C   UNL     1      40.923 -12.864  -2.837  1.00  0.00     0.039 A 
HETATM   24  C   UNL     1      39.730 -13.068  -3.530  1.00  0.00     0.026 A 
HETATM   25  C   UNL     1      38.688 -13.758  -2.915  1.00  0.00     0.035 A 
HETATM   26  C   UNL     1      38.825 -14.245  -1.615  1.00  0.00     0.040 A 
HETATM   27 CL   UNL     1      37.211 -14.004  -3.766  1.00  0.00    -0.084 Cl
BRANCH  22  28
HETATM   28  O   UNL     1      42.233 -13.077  -0.865  1.00  0.00    -0.355 OA
HETATM   29  C   UNL     1      42.330 -11.672  -0.619  1.00  0.00     0.210 C 
ENDBRANCH  22  28
ENDBRANCH   1  21
TORSDOF 5
ENDMDL
