MODEL 1
REMARK VINA RESULT:      -8.2      0.000      0.000
REMARK  2 active torsions:
REMARK  status: ('A' for Active; 'I' for Inactive)
REMARK    1  A    between atoms: C_2  and  C_3 
REMARK    2  A    between atoms: C_6  and  C_7 
ROOT
HETATM    1  C   UNL     1      42.778 -14.921   2.537  1.00  0.00     0.119 C 
HETATM    2  S   UNL     1      43.376 -14.039   3.999  1.00  0.00    -0.141 SA
HETATM    3  C   UNL     1      41.886 -13.472   4.864  1.00  0.00     0.136 C 
HETATM    4  C   UNL     1      41.191 -12.284   4.212  1.00  0.00     0.031 C 
HETATM    5  C   UNL     1      40.956 -14.596   5.268  1.00  0.00     0.236 C 
HETATM    6  O   UNL     1      40.790 -14.958   6.425  1.00  0.00    -0.272 OA
HETATM    7  N   UNL     1      40.113 -15.258   4.329  1.00  0.00    -0.311 N 
HETATM    8  C   UNL     1      40.203 -15.132   2.964  1.00  0.00     0.134 C 
HETATM    9  C   UNL     1      41.326 -14.914   2.191  1.00  0.00     0.032 C 
HETATM   10  N   UNL     1      39.151 -15.260   2.099  1.00  0.00    -0.262 N 
HETATM   11  H   UNL     1      38.183 -15.476   2.309  1.00  0.00     0.191 HD
HETATM   12  N   UNL     1      39.463 -14.952   0.838  1.00  0.00    -0.178 NA
HETATM   13  C   UNL     1      40.787 -14.765   0.868  1.00  0.00     0.062 C 
HETATM   14  C   UNL     1      41.508 -14.469  -0.400  1.00  0.00     0.073 C 
HETATM   15  H   UNL     1      39.366 -15.804   4.744  1.00  0.00     0.170 HD
ENDROOT
BRANCH   1  16
HETATM   16  C   UNL     1      43.180 -16.393   2.527  1.00  0.00    -0.040 A 
HETATM   17  C   UNL     1      43.484 -17.095   1.346  1.00  0.00     0.009 A 
HETATM   18  C   UNL     1      43.905 -18.427   1.385  1.00  0.00     0.007 A 
HETATM   19  C   UNL     1      44.022 -19.101   2.605  1.00  0.00    -0.059 A 
HETATM   20  C   UNL     1      43.702 -18.423   3.784  1.00  0.00     0.007 A 
HETATM   21  C   UNL     1      43.283 -17.090   3.745  1.00  0.00     0.009 A 
BRANCH  19  22
HETATM   22  C   UNL     1      44.520 -20.523   2.649  1.00  0.00     0.034 C 
HETATM   23  C   UNL     1      43.680 -21.436   1.767  1.00  0.00     0.010 C 
ENDBRANCH  19  22
ENDBRANCH   1  16
TORSDOF 2
ENDMDL
MODEL 2
REMARK VINA RESULT:      -7.8      2.800      4.330
REMARK  2 active torsions:
REMARK  status: ('A' for Active; 'I' for Inactive)
REMARK    1  A    between atoms: C_2  and  C_3 
REMARK    2  A    between atoms: C_6  and  C_7 
ROOT
HETATM    1  C   UNL     1      42.111 -16.529   5.133  1.00  0.00     0.119 C 
HETATM    2  S   UNL     1      40.825 -15.750   4.127  1.00  0.00    -0.141 SA
HETATM    3  C   UNL     1      41.282 -13.998   4.030  1.00  0.00     0.136 C 
HETATM    4  C   UNL     1      41.015 -13.205   5.303  1.00  0.00     0.031 C 
HETATM    5  C   UNL     1      42.647 -13.761   3.420  1.00  0.00     0.236 C 
HETATM    6  O   UNL     1      42.820 -13.272   2.312  1.00  0.00    -0.272 OA
HETATM    7  N   UNL     1      43.852 -13.997   4.142  1.00  0.00    -0.311 N 
HETATM    8  C   UNL     1      43.935 -14.661   5.341  1.00  0.00     0.134 C 
HETATM    9  C   UNL     1      43.150 -15.696   5.809  1.00  0.00     0.032 C 
HETATM   10  N   UNL     1      44.888 -14.431   6.296  1.00  0.00    -0.262 N 
HETATM   11  H   UNL     1      45.663 -13.778   6.270  1.00  0.00     0.191 HD
HETATM   12  N   UNL     1      44.672 -15.101   7.431  1.00  0.00    -0.178 NA
HETATM   13  C   UNL     1      43.635 -15.896   7.146  1.00  0.00     0.062 C 
HETATM   14  C   UNL     1      43.152 -16.856   8.176  1.00  0.00     0.073 C 
HETATM   15  H   UNL     1      44.678 -13.571   3.736  1.00  0.00     0.170 HD
ENDROOT
BRANCH   1  16
HETATM   16  C   UNL     1      42.893 -17.597   4.374  1.00  0.00    -0.040 A 
HETATM   17  C   UNL     1      43.570 -18.650   5.016  1.00  0.00     0.009 A 
HETATM   18  C   UNL     1      44.226 -19.642   4.281  1.00  0.00     0.007 A 
HETATM   19  C   UNL     1      44.234 -19.604   2.884  1.00  0.00    -0.059 A 
HETATM   20  C   UNL     1      43.583 -18.552   2.233  1.00  0.00     0.007 A 
HETATM   21  C   UNL     1      42.926 -17.561   2.968  1.00  0.00     0.009 A 
BRANCH  19  22
HETATM   22  C   UNL     1      44.902 -20.699   2.092  1.00  0.00     0.034 C 
HETATM   23  C   UNL     1      43.914 -21.791   1.707  1.00  0.00     0.010 C 
ENDBRANCH  19  22
ENDBRANCH   1  16
TORSDOF 2
ENDMDL
MODEL 3
REMARK VINA RESULT:      -7.7      2.559      3.794
REMARK  2 active torsions:
REMARK  status: ('A' for Active; 'I' for Inactive)
REMARK    1  A    between atoms: C_2  and  C_3 
REMARK    2  A    between atoms: C_6  and  C_7 
ROOT
HETATM    1  C   UNL     1      41.275 -16.453   3.492  1.00  0.00     0.119 C 
HETATM    2  S   UNL     1      39.851 -16.526   2.378  1.00  0.00    -0.141 SA
HETATM    3  C   UNL     1      39.947 -15.019   1.372  1.00  0.00     0.136 C 
HETATM    4  C   UNL     1      39.535 -13.747   2.102  1.00  0.00     0.031 C 
HETATM    5  C   UNL     1      41.232 -14.899   0.582  1.00  0.00     0.236 C 
HETATM    6  O   UNL     1      41.296 -15.022  -0.634  1.00  0.00    -0.272 OA
HETATM    7  N   UNL     1      42.465 -14.526   1.191  1.00  0.00    -0.311 N 
HETATM    8  C   UNL     1      42.688 -14.462   2.545  1.00  0.00     0.134 C 
HETATM    9  C   UNL     1      42.130 -15.230   3.547  1.00  0.00     0.032 C 
HETATM   10  N   UNL     1      43.582 -13.621   3.148  1.00  0.00    -0.262 N 
HETATM   11  H   UNL     1      44.210 -12.951   2.718  1.00  0.00     0.191 HD
HETATM   12  N   UNL     1      43.513 -13.644   4.482  1.00  0.00    -0.178 NA
HETATM   13  C   UNL     1      42.655 -14.635   4.745  1.00  0.00     0.062 C 
HETATM   14  C   UNL     1      42.381 -15.003   6.161  1.00  0.00     0.073 C 
HETATM   15  H   UNL     1      43.187 -14.234   0.540  1.00  0.00     0.170 HD
ENDROOT
BRANCH   1  16
HETATM   16  C   UNL     1      42.250 -17.609   3.286  1.00  0.00    -0.040 A 
HETATM   17  C   UNL     1      42.999 -18.173   4.335  1.00  0.00     0.009 A 
HETATM   18  C   UNL     1      43.838 -19.269   4.115  1.00  0.00     0.007 A 
HETATM   19  C   UNL     1      43.961 -19.826   2.839  1.00  0.00    -0.059 A 
HETATM   20  C   UNL     1      43.239 -19.262   1.783  1.00  0.00     0.007 A 
HETATM   21  C   UNL     1      42.399 -18.167   2.004  1.00  0.00     0.009 A 
BRANCH  19  22
HETATM   22  C   UNL     1      44.830 -21.037   2.612  1.00  0.00     0.034 C 
HETATM   23  C   UNL     1      44.208 -21.989   1.601  1.00  0.00     0.010 C 
ENDBRANCH  19  22
ENDBRANCH   1  16
TORSDOF 2
ENDMDL
MODEL 4
REMARK VINA RESULT:      -7.6      2.117      2.966
REMARK  2 active torsions:
REMARK  status: ('A' for Active; 'I' for Inactive)
REMARK    1  A    between atoms: C_2  and  C_3 
REMARK    2  A    between atoms: C_6  and  C_7 
ROOT
HETATM    1  C   UNL     1      43.120 -15.713   3.536  1.00  0.00     0.119 C 
HETATM    2  S   UNL     1      43.139 -14.007   4.140  1.00  0.00    -0.141 SA
HETATM    3  C   UNL     1      41.507 -13.332   3.731  1.00  0.00     0.136 C 
HETATM    4  C   UNL     1      41.313 -12.996   2.258  1.00  0.00     0.031 C 
HETATM    5  C   UNL     1      40.361 -14.101   4.353  1.00  0.00     0.236 C 
HETATM    6  O   UNL     1      39.671 -13.670   5.267  1.00  0.00    -0.272 OA
HETATM    7  N   UNL     1      39.926 -15.359   3.844  1.00  0.00    -0.311 N 
HETATM    8  C   UNL     1      40.607 -16.113   2.920  1.00  0.00     0.134 C 
HETATM    9  C   UNL     1      41.970 -16.216   2.729  1.00  0.00     0.032 C 
HETATM   10  N   UNL     1      40.021 -16.966   2.026  1.00  0.00    -0.262 N 
HETATM   11  H   UNL     1      39.037 -17.187   1.915  1.00  0.00     0.191 HD
HETATM   12  N   UNL     1      40.879 -17.474   1.138  1.00  0.00    -0.178 NA
HETATM   13  C   UNL     1      42.074 -17.051   1.564  1.00  0.00     0.062 C 
HETATM   14  C   UNL     1      43.299 -17.491   0.843  1.00  0.00     0.073 C 
HETATM   15  H   UNL     1      39.011 -15.653   4.169  1.00  0.00     0.170 HD
ENDROOT
BRANCH   1  16
HETATM   16  C   UNL     1      43.300 -16.739   4.651  1.00  0.00    -0.040 A 
HETATM   17  C   UNL     1      42.756 -16.573   5.938  1.00  0.00     0.009 A 
HETATM   18  C   UNL     1      42.894 -17.564   6.914  1.00  0.00     0.007 A 
HETATM   19  C   UNL     1      43.589 -18.745   6.636  1.00  0.00    -0.059 A 
HETATM   20  C   UNL     1      44.154 -18.913   5.369  1.00  0.00     0.007 A 
HETATM   21  C   UNL     1      44.014 -17.923   4.393  1.00  0.00     0.009 A 
BRANCH  19  22
HETATM   22  C   UNL     1      43.698 -19.832   7.675  1.00  0.00     0.034 C 
HETATM   23  C   UNL     1      43.664 -21.215   7.040  1.00  0.00     0.010 C 
ENDBRANCH  19  22
ENDBRANCH   1  16
TORSDOF 2
ENDMDL
MODEL 5
REMARK VINA RESULT:      -7.6      2.439      3.694
REMARK  2 active torsions:
REMARK  status: ('A' for Active; 'I' for Inactive)
REMARK    1  A    between atoms: C_2  and  C_3 
REMARK    2  A    between atoms: C_6  and  C_7 
ROOT
HETATM    1  C   UNL     1      42.251 -16.326   5.810  1.00  0.00     0.119 C 
HETATM    2  S   UNL     1      40.450 -16.417   5.954  1.00  0.00    -0.141 SA
HETATM    3  C   UNL     1      39.823 -14.931   5.123  1.00  0.00     0.136 C 
HETATM    4  C   UNL     1      40.000 -13.643   5.917  1.00  0.00     0.031 C 
HETATM    5  C   UNL     1      40.235 -14.832   3.670  1.00  0.00     0.236 C 
HETATM    6  O   UNL     1      39.461 -14.979   2.733  1.00  0.00    -0.272 OA
HETATM    7  N   UNL     1      41.550 -14.451   3.278  1.00  0.00    -0.311 N 
HETATM    8  C   UNL     1      42.629 -14.360   4.123  1.00  0.00     0.134 C 
HETATM    9  C   UNL     1      42.904 -15.106   5.251  1.00  0.00     0.032 C 
HETATM   10  N   UNL     1      43.686 -13.510   3.948  1.00  0.00    -0.262 N 
HETATM   11  H   UNL     1      43.850 -12.851   3.195  1.00  0.00     0.191 HD
HETATM   12  N   UNL     1      44.538 -13.506   4.977  1.00  0.00    -0.178 NA
HETATM   13  C   UNL     1      44.095 -14.489   5.768  1.00  0.00     0.062 C 
HETATM   14  C   UNL     1      44.854 -14.827   7.002  1.00  0.00     0.073 C 
HETATM   15  H   UNL     1      41.638 -14.174   2.306  1.00  0.00     0.170 HD
ENDROOT
BRANCH   1  16
HETATM   16  C   UNL     1      42.843 -17.489   5.020  1.00  0.00    -0.040 A 
HETATM   17  C   UNL     1      42.371 -17.869   3.750  1.00  0.00     0.009 A 
HETATM   18  C   UNL     1      42.979 -18.904   3.033  1.00  0.00     0.007 A 
HETATM   19  C   UNL     1      44.068 -19.597   3.570  1.00  0.00    -0.059 A 
HETATM   20  C   UNL     1      44.534 -19.244   4.840  1.00  0.00     0.007 A 
HETATM   21  C   UNL     1      43.926 -18.209   5.555  1.00  0.00     0.009 A 
BRANCH  19  22
HETATM   22  C   UNL     1      44.752 -20.681   2.776  1.00  0.00     0.034 C 
HETATM   23  C   UNL     1      43.766 -21.432   1.893  1.00  0.00     0.010 C 
ENDBRANCH  19  22
ENDBRANCH   1  16
TORSDOF 2
ENDMDL
MODEL 6
REMARK VINA RESULT:      -7.2      2.578      3.679
REMARK  2 active torsions:
REMARK  status: ('A' for Active; 'I' for Inactive)
REMARK    1  A    between atoms: C_2  and  C_3 
REMARK    2  A    between atoms: C_6  and  C_7 
ROOT
HETATM    1  C   UNL     1      40.498 -15.657   3.104  1.00  0.00     0.119 C 
HETATM    2  S   UNL     1      39.295 -15.564   1.756  1.00  0.00    -0.141 SA
HETATM    3  C   UNL     1      39.646 -14.003   0.902  1.00  0.00     0.136 C 
HETATM    4  C   UNL     1      39.176 -12.759   1.644  1.00  0.00     0.031 C 
HETATM    5  C   UNL     1      41.057 -13.913   0.360  1.00  0.00     0.236 C 
HETATM    6  O   UNL     1      41.331 -13.958  -0.831  1.00  0.00    -0.272 OA
HETATM    7  N   UNL     1      42.178 -13.661   1.203  1.00  0.00    -0.311 N 
HETATM    8  C   UNL     1      42.157 -13.702   2.575  1.00  0.00     0.134 C 
HETATM    9  C   UNL     1      41.390 -14.498   3.402  1.00  0.00     0.032 C 
HETATM   10  N   UNL     1      42.970 -12.961   3.389  1.00  0.00    -0.262 N 
HETATM   11  H   UNL     1      43.698 -12.306   3.128  1.00  0.00     0.191 HD
HETATM   12  N   UNL     1      42.662 -13.069   4.684  1.00  0.00    -0.178 NA
HETATM   13  C   UNL     1      41.721 -14.019   4.716  1.00  0.00     0.062 C 
HETATM   14  C   UNL     1      41.180 -14.462   6.029  1.00  0.00     0.073 C 
HETATM   15  H   UNL     1      43.018 -13.373   0.712  1.00  0.00     0.170 HD
ENDROOT
BRANCH   1  16
HETATM   16  C   UNL     1      41.433 -16.856   2.984  1.00  0.00    -0.040 A 
HETATM   17  C   UNL     1      41.883 -17.354   1.747  1.00  0.00     0.009 A 
HETATM   18  C   UNL     1      42.786 -18.420   1.683  1.00  0.00     0.007 A 
HETATM   19  C   UNL     1      43.257 -19.025   2.852  1.00  0.00    -0.059 A 
HETATM   20  C   UNL     1      42.802 -18.554   4.087  1.00  0.00     0.007 A 
HETATM   21  C   UNL     1      41.900 -17.489   4.151  1.00  0.00     0.009 A 
BRANCH  19  22
HETATM   22  C   UNL     1      44.266 -20.142   2.782  1.00  0.00     0.034 C 
HETATM   23  C   UNL     1      43.806 -21.252   1.847  1.00  0.00     0.010 C 
ENDBRANCH  19  22
ENDBRANCH   1  16
TORSDOF 2
ENDMDL
MODEL 7
REMARK VINA RESULT:      -7.2      1.663      2.142
REMARK  2 active torsions:
REMARK  status: ('A' for Active; 'I' for Inactive)
REMARK    1  A    between atoms: C_2  and  C_3 
REMARK    2  A    between atoms: C_6  and  C_7 
ROOT
HETATM    1  C   UNL     1      43.400 -16.408   3.408  1.00  0.00     0.119 C 
HETATM    2  S   UNL     1      43.676 -15.093   4.619  1.00  0.00    -0.141 SA
HETATM    3  C   UNL     1      42.062 -14.296   4.842  1.00  0.00     0.136 C 
HETATM    4  C   UNL     1      41.641 -13.391   3.691  1.00  0.00     0.031 C 
HETATM    5  C   UNL     1      40.982 -15.240   5.323  1.00  0.00     0.236 C 
HETATM    6  O   UNL     1      40.505 -15.210   6.450  1.00  0.00    -0.272 OA
HETATM    7  N   UNL     1      40.355 -16.181   4.455  1.00  0.00    -0.311 N 
HETATM    8  C   UNL     1      40.792 -16.502   3.194  1.00  0.00     0.134 C 
HETATM    9  C   UNL     1      42.085 -16.532   2.712  1.00  0.00     0.032 C 
HETATM   10  N   UNL     1      39.984 -16.916   2.171  1.00  0.00    -0.262 N 
HETATM   11  H   UNL     1      38.981 -17.065   2.178  1.00  0.00     0.191 HD
HETATM   12  N   UNL     1      40.623 -17.029   1.004  1.00  0.00    -0.178 NA
HETATM   13  C   UNL     1      41.907 -16.826   1.317  1.00  0.00     0.062 C 
HETATM   14  C   UNL     1      42.942 -16.946   0.254  1.00  0.00     0.073 C 
HETATM   15  H   UNL     1      39.490 -16.573   4.812  1.00  0.00     0.170 HD
ENDROOT
BRANCH   1  16
HETATM   16  C   UNL     1      43.683 -17.800   3.968  1.00  0.00    -0.040 A 
HETATM   17  C   UNL     1      44.120 -18.871   3.168  1.00  0.00     0.009 A 
HETATM   18  C   UNL     1      44.424 -20.115   3.729  1.00  0.00     0.007 A 
HETATM   19  C   UNL     1      44.291 -20.326   5.105  1.00  0.00    -0.059 A 
HETATM   20  C   UNL     1      43.837 -19.277   5.908  1.00  0.00     0.007 A 
HETATM   21  C   UNL     1      43.534 -18.033   5.347  1.00  0.00     0.009 A 
BRANCH  19  22
HETATM   22  C   UNL     1      44.664 -21.653   5.715  1.00  0.00     0.034 C 
HETATM   23  C   UNL     1      44.688 -22.760   4.671  1.00  0.00     0.010 C 
ENDBRANCH  19  22
ENDBRANCH   1  16
TORSDOF 2
ENDMDL
MODEL 8
REMARK VINA RESULT:      -6.7      7.315      9.240
REMARK  2 active torsions:
REMARK  status: ('A' for Active; 'I' for Inactive)
REMARK    1  A    between atoms: C_2  and  C_3 
REMARK    2  A    between atoms: C_6  and  C_7 
ROOT
HETATM    1  C   UNL     1      41.886  -9.397  10.552  1.00  0.00     0.119 C 
HETATM    2  S   UNL     1      41.946  -9.282  12.357  1.00  0.00    -0.141 SA
HETATM    3  C   UNL     1      40.377  -9.981  12.938  1.00  0.00     0.136 C 
HETATM    4  C   UNL     1      39.171  -9.070  12.743  1.00  0.00     0.031 C 
HETATM    5  C   UNL     1      40.155 -11.414  12.506  1.00  0.00     0.236 C 
HETATM    6  O   UNL     1      40.198 -12.369  13.271  1.00  0.00    -0.272 OA
HETATM    7  N   UNL     1      39.771 -11.755  11.177  1.00  0.00    -0.311 N 
HETATM    8  C   UNL     1      39.784 -10.894  10.107  1.00  0.00     0.134 C 
HETATM    9  C   UNL     1      40.635  -9.835   9.864  1.00  0.00     0.032 C 
HETATM   10  N   UNL     1      38.946 -10.978   9.029  1.00  0.00    -0.262 N 
HETATM   11  H   UNL     1      38.225 -11.666   8.841  1.00  0.00     0.191 HD
HETATM   12  N   UNL     1      39.056  -9.943   8.192  1.00  0.00    -0.178 NA
HETATM   13  C   UNL     1      40.097  -9.251   8.667  1.00  0.00     0.062 C 
HETATM   14  C   UNL     1      40.563  -8.044   7.932  1.00  0.00     0.073 C 
HETATM   15  H   UNL     1      39.409 -12.697  11.070  1.00  0.00     0.170 HD
ENDROOT
BRANCH   1  16
HETATM   16  C   UNL     1      42.986 -10.285   9.976  1.00  0.00    -0.040 A 
HETATM   17  C   UNL     1      42.811 -11.066   8.820  1.00  0.00     0.009 A 
HETATM   18  C   UNL     1      43.863 -11.821   8.292  1.00  0.00     0.007 A 
HETATM   19  C   UNL     1      45.116 -11.825   8.911  1.00  0.00    -0.059 A 
HETATM   20  C   UNL     1      45.298 -11.070  10.073  1.00  0.00     0.007 A 
HETATM   21  C   UNL     1      44.246 -10.315  10.600  1.00  0.00     0.009 A 
BRANCH  19  22
HETATM   22  C   UNL     1      46.262 -12.602   8.315  1.00  0.00     0.034 C 
HETATM   23  C   UNL     1      45.825 -13.381   7.082  1.00  0.00     0.010 C 
ENDBRANCH  19  22
ENDBRANCH   1  16
TORSDOF 2
ENDMDL
MODEL 9
REMARK VINA RESULT:      -6.6      2.085      2.849
REMARK  2 active torsions:
REMARK  status: ('A' for Active; 'I' for Inactive)
REMARK    1  A    between atoms: C_2  and  C_3 
REMARK    2  A    between atoms: C_6  and  C_7 
ROOT
HETATM    1  C   UNL     1      43.436 -15.705   4.384  1.00  0.00     0.119 C 
HETATM    2  S   UNL     1      44.851 -15.538   5.499  1.00  0.00    -0.141 SA
HETATM    3  C   UNL     1      44.140 -15.286   7.148  1.00  0.00     0.136 C 
HETATM    4  C   UNL     1      43.566 -13.893   7.381  1.00  0.00     0.031 C 
HETATM    5  C   UNL     1      43.240 -16.416   7.599  1.00  0.00     0.236 C 
HETATM    6  O   UNL     1      43.537 -17.210   8.482  1.00  0.00    -0.272 OA
HETATM    7  N   UNL     1      41.918 -16.581   7.095  1.00  0.00    -0.311 N 
HETATM    8  C   UNL     1      41.398 -15.912   6.014  1.00  0.00     0.134 C 
HETATM    9  C   UNL     1      42.049 -15.466   4.882  1.00  0.00     0.032 C 
HETATM   10  N   UNL     1      40.074 -15.608   5.849  1.00  0.00    -0.262 N 
HETATM   11  H   UNL     1      39.294 -15.831   6.457  1.00  0.00     0.191 HD
HETATM   12  N   UNL     1      39.838 -14.830   4.789  1.00  0.00    -0.178 NA
HETATM   13  C   UNL     1      41.023 -14.754   4.173  1.00  0.00     0.062 C 
HETATM   14  C   UNL     1      41.127 -14.009   2.889  1.00  0.00     0.073 C 
HETATM   15  H   UNL     1      41.331 -17.201   7.642  1.00  0.00     0.170 HD
ENDROOT
BRANCH   1  16
HETATM   16  C   UNL     1      43.381 -17.065   3.694  1.00  0.00    -0.040 A 
HETATM   17  C   UNL     1      42.853 -17.246   2.403  1.00  0.00     0.009 A 
HETATM   18  C   UNL     1      42.874 -18.499   1.784  1.00  0.00     0.007 A 
HETATM   19  C   UNL     1      43.412 -19.609   2.441  1.00  0.00    -0.059 A 
HETATM   20  C   UNL     1      43.920 -19.448   3.733  1.00  0.00     0.007 A 
HETATM   21  C   UNL     1      43.900 -18.195   4.352  1.00  0.00     0.009 A 
BRANCH  19  22
HETATM   22  C   UNL     1      43.476 -20.949   1.754  1.00  0.00     0.034 C 
HETATM   23  C   UNL     1      44.400 -21.910   2.489  1.00  0.00     0.010 C 
ENDBRANCH  19  22
ENDBRANCH   1  16
TORSDOF 2
ENDMDL
MODEL 10
REMARK VINA RESULT:      -6.6      2.740      4.041
REMARK  2 active torsions:
REMARK  status: ('A' for Active; 'I' for Inactive)
REMARK    1  A    between atoms: C_2  and  C_3 
REMARK    2  A    between atoms: C_6  and  C_7 
ROOT
HETATM    1  C   UNL     1      40.188 -15.104   3.336  1.00  0.00     0.119 C 
HETATM    2  S   UNL     1      39.369 -15.338   1.740  1.00  0.00    -0.141 SA
HETATM    3  C   UNL     1      39.788 -13.869   0.762  1.00  0.00     0.136 C 
HETATM    4  C   UNL     1      39.035 -12.607   1.164  1.00  0.00     0.031 C 
HETATM    5  C   UNL     1      41.277 -13.674   0.570  1.00  0.00     0.236 C 
HETATM    6  O   UNL     1      41.852 -13.838  -0.498  1.00  0.00    -0.272 OA
HETATM    7  N   UNL     1      42.117 -13.177   1.608  1.00  0.00    -0.311 N 
HETATM    8  C   UNL     1      41.748 -13.042   2.924  1.00  0.00     0.134 C 
HETATM    9  C   UNL     1      40.868 -13.814   3.655  1.00  0.00     0.032 C 
HETATM   10  N   UNL     1      42.256 -12.107   3.784  1.00  0.00    -0.262 N 
HETATM   11  H   UNL     1      42.966 -11.405   3.606  1.00  0.00     0.191 HD
HETATM   12  N   UNL     1      41.636 -12.083   4.966  1.00  0.00    -0.178 NA
HETATM   13  C   UNL     1      40.806 -13.131   4.918  1.00  0.00     0.062 C 
HETATM   14  C   UNL     1      39.987 -13.464   6.114  1.00  0.00     0.073 C 
HETATM   15  H   UNL     1      43.026 -12.852   1.296  1.00  0.00     0.170 HD
ENDROOT
BRANCH   1  16
HETATM   16  C   UNL     1      41.225 -16.182   3.635  1.00  0.00    -0.040 A 
HETATM   17  C   UNL     1      42.165 -16.624   2.686  1.00  0.00     0.009 A 
HETATM   18  C   UNL     1      43.136 -17.573   3.017  1.00  0.00     0.007 A 
HETATM   19  C   UNL     1      43.189 -18.117   4.304  1.00  0.00    -0.059 A 
HETATM   20  C   UNL     1      42.248 -17.703   5.251  1.00  0.00     0.007 A 
HETATM   21  C   UNL     1      41.278 -16.753   4.920  1.00  0.00     0.009 A 
BRANCH  19  22
HETATM   22  C   UNL     1      44.265 -19.105   4.674  1.00  0.00     0.034 C 
HETATM   23  C   UNL     1      45.061 -18.637   5.883  1.00  0.00     0.010 C 
ENDBRANCH  19  22
ENDBRANCH   1  16
TORSDOF 2
ENDMDL
