MODEL 1
REMARK VINA RESULT:      -7.8      0.000      0.000
REMARK  5 active torsions:
REMARK  status: ('A' for Active; 'I' for Inactive)
REMARK    1  A    between atoms: C_11  and  N_12 
REMARK       I    between atoms: N_12  and  C_13 
REMARK       I    between atoms: C_13  and  N_14 
REMARK    2  A    between atoms: N_14  and  C_15 
REMARK    3  A    between atoms: C_15  and  C_16 
REMARK    4  A    between atoms: C_16  and  N_17 
REMARK    5  A    between atoms: C_16  and  C_21 
ROOT
HETATM    1  N   UNL     1      43.185 -14.421   5.255  1.00  0.00    -0.309 N 
HETATM    2  C   UNL     1      42.041 -13.837   4.823  1.00  0.00     0.320 C 
HETATM    3  N   UNL     1      41.033 -14.626   4.382  1.00  0.00    -0.341 N 
HETATM    4  O   UNL     1      41.938 -12.609   4.819  1.00  0.00    -0.247 OA
HETATM    5  H   UNL     1      43.916 -13.733   5.413  1.00  0.00     0.170 HD
HETATM    6  H   UNL     1      41.371 -15.479   3.953  1.00  0.00     0.164 HD
ENDROOT
BRANCH   1   7
HETATM    7  C   UNL     1      43.548 -15.753   5.539  1.00  0.00     0.038 A 
HETATM    8  C   UNL     1      43.851 -16.252   6.802  1.00  0.00     0.032 A 
HETATM    9  C   UNL     1      44.159 -17.609   6.964  1.00  0.00     0.036 A 
HETATM   10  C   UNL     1      44.207 -18.478   5.885  1.00  0.00     0.086 A 
HETATM   11  N   UNL     1      44.492 -19.776   6.085  1.00  0.00    -0.250 NA
HETATM   12  C   UNL     1      43.963 -17.970   4.594  1.00  0.00     0.088 A 
HETATM   13  C   UNL     1      44.548 -20.576   4.989  1.00  0.00     0.055 A 
HETATM   14  C   UNL     1      44.853 -22.024   5.232  1.00  0.00     0.072 C 
HETATM   15  C   UNL     1      44.335 -20.068   3.708  1.00  0.00     0.055 A 
HETATM   16  N   UNL     1      44.030 -18.759   3.508  1.00  0.00    -0.250 NA
HETATM   17  C   UNL     1      44.428 -20.926   2.484  1.00  0.00     0.072 C 
HETATM   18  C   UNL     1      43.640 -16.625   4.445  1.00  0.00     0.063 A 
ENDBRANCH   1   7
BRANCH   3  19
HETATM   19  C   UNL     1      39.756 -14.144   3.851  1.00  0.00     0.163 C 
BRANCH  19  20
HETATM   20  C   UNL     1      39.254 -14.768   2.502  1.00  0.00     0.244 C 
BRANCH  20  21
HETATM   21  N   UNL     1      38.761 -13.698   1.522  1.00  0.00    -0.068 N 
HETATM   22  H   UNL     1      39.542 -13.630   0.836  1.00  0.00     0.279 HD
HETATM   23  C   UNL     1      37.537 -14.010   0.725  1.00  0.00     0.270 C 
HETATM   24  C   UNL     1      38.685 -12.330   2.136  1.00  0.00     0.270 C 
ENDBRANCH  20  21
BRANCH  20  25
HETATM   25  C   UNL     1      40.288 -15.692   1.900  1.00  0.00     0.015 A 
HETATM   26  S   UNL     1      41.516 -15.030   0.891  1.00  0.00    -0.104 SA
HETATM   27  C   UNL     1      42.223 -16.559   0.625  1.00  0.00     0.050 A 
HETATM   28  C   UNL     1      41.541 -17.563   1.273  1.00  0.00     0.008 A 
HETATM   29  C   UNL     1      40.422 -17.066   2.005  1.00  0.00     0.017 A 
ENDBRANCH  20  25
ENDBRANCH  19  20
ENDBRANCH   3  19
TORSDOF 5
ENDMDL
MODEL 2
REMARK VINA RESULT:      -7.6      5.415      8.595
REMARK  5 active torsions:
REMARK  status: ('A' for Active; 'I' for Inactive)
REMARK    1  A    between atoms: C_11  and  N_12 
REMARK       I    between atoms: N_12  and  C_13 
REMARK       I    between atoms: C_13  and  N_14 
REMARK    2  A    between atoms: N_14  and  C_15 
REMARK    3  A    between atoms: C_15  and  C_16 
REMARK    4  A    between atoms: C_16  and  N_17 
REMARK    5  A    between atoms: C_16  and  C_21 
ROOT
HETATM    1  N   UNL     1      45.346 -12.186   8.792  1.00  0.00    -0.309 N 
HETATM    2  C   UNL     1      45.395 -13.118   7.809  1.00  0.00     0.320 C 
HETATM    3  N   UNL     1      44.401 -14.034   7.731  1.00  0.00    -0.341 N 
HETATM    4  O   UNL     1      46.339 -13.132   7.019  1.00  0.00    -0.247 OA
HETATM    5  H   UNL     1      46.212 -11.657   8.845  1.00  0.00     0.170 HD
HETATM    6  H   UNL     1      44.014 -14.261   8.639  1.00  0.00     0.164 HD
ENDROOT
BRANCH   1   7
HETATM    7  C   UNL     1      44.354 -11.802   9.718  1.00  0.00     0.038 A 
HETATM    8  C   UNL     1      44.331 -12.155  11.064  1.00  0.00     0.032 A 
HETATM    9  C   UNL     1      43.312 -11.677  11.897  1.00  0.00     0.036 A 
HETATM   10  C   UNL     1      42.288 -10.880  11.409  1.00  0.00     0.086 A 
HETATM   11  N   UNL     1      41.336 -10.429  12.244  1.00  0.00    -0.250 NA
HETATM   12  C   UNL     1      42.267 -10.569  10.035  1.00  0.00     0.088 A 
HETATM   13  C   UNL     1      40.345  -9.672  11.706  1.00  0.00     0.055 A 
HETATM   14  C   UNL     1      39.299  -9.167  12.654  1.00  0.00     0.072 C 
HETATM   15  C   UNL     1      40.308  -9.388  10.340  1.00  0.00     0.055 A 
HETATM   16  N   UNL     1      41.280  -9.829   9.500  1.00  0.00    -0.250 NA
HETATM   17  C   UNL     1      39.204  -8.585   9.723  1.00  0.00     0.072 C 
HETATM   18  C   UNL     1      43.294 -11.032   9.219  1.00  0.00     0.063 A 
ENDBRANCH   1   7
BRANCH   3  19
HETATM   19  C   UNL     1      44.334 -15.122   6.753  1.00  0.00     0.163 C 
BRANCH  19  20
HETATM   20  C   UNL     1      43.210 -16.199   6.946  1.00  0.00     0.244 C 
BRANCH  20  21
HETATM   21  N   UNL     1      41.840 -15.688   6.484  1.00  0.00    -0.068 N 
HETATM   22  H   UNL     1      41.525 -15.103   7.286  1.00  0.00     0.279 HD
HETATM   23  C   UNL     1      41.810 -14.796   5.286  1.00  0.00     0.270 C 
HETATM   24  C   UNL     1      40.811 -16.776   6.387  1.00  0.00     0.270 C 
ENDBRANCH  20  21
BRANCH  20  25
HETATM   25  C   UNL     1      43.593 -17.519   6.316  1.00  0.00     0.015 A 
HETATM   26  S   UNL     1      43.791 -18.902   7.322  1.00  0.00    -0.104 SA
HETATM   27  C   UNL     1      44.187 -19.900   5.997  1.00  0.00     0.050 A 
HETATM   28  C   UNL     1      44.185 -19.204   4.810  1.00  0.00     0.008 A 
HETATM   29  C   UNL     1      43.847 -17.831   4.992  1.00  0.00     0.017 A 
ENDBRANCH  20  25
ENDBRANCH  19  20
ENDBRANCH   3  19
TORSDOF 5
ENDMDL
MODEL 3
REMARK VINA RESULT:      -7.5      3.314      7.537
REMARK  5 active torsions:
REMARK  status: ('A' for Active; 'I' for Inactive)
REMARK    1  A    between atoms: C_11  and  N_12 
REMARK       I    between atoms: N_12  and  C_13 
REMARK       I    between atoms: C_13  and  N_14 
REMARK    2  A    between atoms: N_14  and  C_15 
REMARK    3  A    between atoms: C_15  and  C_16 
REMARK    4  A    between atoms: C_16  and  N_17 
REMARK    5  A    between atoms: C_16  and  C_21 
ROOT
HETATM    1  N   UNL     1      40.770 -14.922   3.669  1.00  0.00    -0.309 N 
HETATM    2  C   UNL     1      41.192 -15.875   4.535  1.00  0.00     0.320 C 
HETATM    3  N   UNL     1      41.837 -16.960   4.045  1.00  0.00    -0.341 N 
HETATM    4  O   UNL     1      40.972 -15.754   5.741  1.00  0.00    -0.247 OA
HETATM    5  H   UNL     1      40.171 -14.241   4.128  1.00  0.00     0.170 HD
HETATM    6  H   UNL     1      41.519 -17.211   3.116  1.00  0.00     0.164 HD
ENDROOT
BRANCH   1   7
HETATM    7  C   UNL     1      41.004 -14.682   2.299  1.00  0.00     0.038 A 
HETATM    8  C   UNL     1      40.695 -15.560   1.265  1.00  0.00     0.032 A 
HETATM    9  C   UNL     1      40.939 -15.192  -0.064  1.00  0.00     0.036 A 
HETATM   10  C   UNL     1      41.520 -13.975  -0.387  1.00  0.00     0.086 A 
HETATM   11  N   UNL     1      41.723 -13.652  -1.675  1.00  0.00    -0.250 NA
HETATM   12  C   UNL     1      41.893 -13.105   0.657  1.00  0.00     0.088 A 
HETATM   13  C   UNL     1      42.317 -12.458  -1.930  1.00  0.00     0.055 A 
HETATM   14  C   UNL     1      42.523 -12.109  -3.374  1.00  0.00     0.072 C 
HETATM   15  C   UNL     1      42.714 -11.609  -0.897  1.00  0.00     0.055 A 
HETATM   16  N   UNL     1      42.492 -11.928   0.404  1.00  0.00    -0.250 NA
HETATM   17  C   UNL     1      43.402 -10.304  -1.158  1.00  0.00     0.072 C 
HETATM   18  C   UNL     1      41.630 -13.471   1.972  1.00  0.00     0.063 A 
ENDBRANCH   1   7
BRANCH   3  19
HETATM   19  C   UNL     1      42.316 -18.088   4.848  1.00  0.00     0.163 C 
BRANCH  19  20
HETATM   20  C   UNL     1      43.802 -18.544   4.636  1.00  0.00     0.244 C 
BRANCH  20  21
HETATM   21  N   UNL     1      44.498 -18.865   5.964  1.00  0.00    -0.068 N 
HETATM   22  H   UNL     1      45.062 -19.710   5.735  1.00  0.00     0.279 HD
HETATM   23  C   UNL     1      45.464 -17.855   6.492  1.00  0.00     0.270 C 
HETATM   24  C   UNL     1      43.547 -19.327   7.029  1.00  0.00     0.270 C 
ENDBRANCH  20  21
BRANCH  20  25
HETATM   25  C   UNL     1      43.898 -19.669   3.631  1.00  0.00     0.015 A 
HETATM   26  S   UNL     1      44.848 -21.054   4.011  1.00  0.00    -0.104 SA
HETATM   27  C   UNL     1      44.491 -21.799   2.519  1.00  0.00     0.050 A 
HETATM   28  C   UNL     1      43.679 -21.014   1.733  1.00  0.00     0.008 A 
HETATM   29  C   UNL     1      43.339 -19.784   2.370  1.00  0.00     0.017 A 
ENDBRANCH  20  25
ENDBRANCH  19  20
ENDBRANCH   3  19
TORSDOF 5
ENDMDL
MODEL 4
REMARK VINA RESULT:      -7.4      3.087      4.031
REMARK  5 active torsions:
REMARK  status: ('A' for Active; 'I' for Inactive)
REMARK    1  A    between atoms: C_11  and  N_12 
REMARK       I    between atoms: N_12  and  C_13 
REMARK       I    between atoms: C_13  and  N_14 
REMARK    2  A    between atoms: N_14  and  C_15 
REMARK    3  A    between atoms: C_15  and  C_16 
REMARK    4  A    between atoms: C_16  and  N_17 
REMARK    5  A    between atoms: C_16  and  C_21 
ROOT
HETATM    1  N   UNL     1      43.086 -15.117   2.578  1.00  0.00    -0.309 N 
HETATM    2  C   UNL     1      42.122 -14.494   1.858  1.00  0.00     0.320 C 
HETATM    3  N   UNL     1      41.431 -15.209   0.939  1.00  0.00    -0.341 N 
HETATM    4  O   UNL     1      41.899 -13.295   2.032  1.00  0.00    -0.247 OA
HETATM    5  H   UNL     1      43.634 -14.453   3.118  1.00  0.00     0.170 HD
HETATM    6  H   UNL     1      41.989 -15.947   0.525  1.00  0.00     0.164 HD
ENDROOT
BRANCH   1   7
HETATM    7  C   UNL     1      43.459 -16.467   2.738  1.00  0.00     0.038 A 
HETATM    8  C   UNL     1      43.887 -17.309   1.716  1.00  0.00     0.032 A 
HETATM    9  C   UNL     1      44.270 -18.625   2.006  1.00  0.00     0.036 A 
HETATM   10  C   UNL     1      44.204 -19.135   3.294  1.00  0.00     0.086 A 
HETATM   11  N   UNL     1      44.596 -20.398   3.534  1.00  0.00    -0.250 NA
HETATM   12  C   UNL     1      43.713 -18.309   4.325  1.00  0.00     0.088 A 
HETATM   13  C   UNL     1      44.486 -20.851   4.809  1.00  0.00     0.055 A 
HETATM   14  C   UNL     1      44.941 -22.258   5.060  1.00  0.00     0.072 C 
HETATM   15  C   UNL     1      43.973 -20.044   5.825  1.00  0.00     0.055 A 
HETATM   16  N   UNL     1      43.593 -18.762   5.585  1.00  0.00    -0.250 NA
HETATM   17  C   UNL     1      43.811 -20.538   7.230  1.00  0.00     0.072 C 
HETATM   18  C   UNL     1      43.352 -16.999   4.031  1.00  0.00     0.063 A 
ENDBRANCH   1   7
BRANCH   3  19
HETATM   19  C   UNL     1      40.391 -14.670   0.060  1.00  0.00     0.163 C 
BRANCH  19  20
HETATM   20  C   UNL     1      40.657 -14.713  -1.485  1.00  0.00     0.244 C 
BRANCH  20  21
HETATM   21  N   UNL     1      39.407 -15.123  -2.272  1.00  0.00    -0.068 N 
HETATM   22  H   UNL     1      39.004 -15.887  -1.690  1.00  0.00     0.279 HD
HETATM   23  C   UNL     1      38.327 -14.102  -2.421  1.00  0.00     0.270 C 
HETATM   24  C   UNL     1      39.728 -15.780  -3.582  1.00  0.00     0.270 C 
ENDBRANCH  20  21
BRANCH  20  25
HETATM   25  C   UNL     1      41.270 -13.421  -1.978  1.00  0.00     0.015 A 
HETATM   26  S   UNL     1      40.942 -11.960  -1.128  1.00  0.00    -0.104 SA
HETATM   27  C   UNL     1      41.896 -11.037  -2.198  1.00  0.00     0.050 A 
HETATM   28  C   UNL     1      42.448 -11.811  -3.194  1.00  0.00     0.008 A 
HETATM   29  C   UNL     1      42.084 -13.184  -3.071  1.00  0.00     0.017 A 
ENDBRANCH  20  25
ENDBRANCH  19  20
ENDBRANCH   3  19
TORSDOF 5
ENDMDL
MODEL 5
REMARK VINA RESULT:      -7.3      3.098      4.458
REMARK  5 active torsions:
REMARK  status: ('A' for Active; 'I' for Inactive)
REMARK    1  A    between atoms: C_11  and  N_12 
REMARK       I    between atoms: N_12  and  C_13 
REMARK       I    between atoms: C_13  and  N_14 
REMARK    2  A    between atoms: N_14  and  C_15 
REMARK    3  A    between atoms: C_15  and  C_16 
REMARK    4  A    between atoms: C_16  and  N_17 
REMARK    5  A    between atoms: C_16  and  C_21 
ROOT
HETATM    1  N   UNL     1      39.076 -15.886   1.943  1.00  0.00    -0.309 N 
HETATM    2  C   UNL     1      38.873 -14.714   1.294  1.00  0.00     0.320 C 
HETATM    3  N   UNL     1      39.950 -13.994   0.899  1.00  0.00    -0.341 N 
HETATM    4  O   UNL     1      37.727 -14.312   1.090  1.00  0.00    -0.247 OA
HETATM    5  H   UNL     1      38.209 -16.256   2.322  1.00  0.00     0.170 HD
HETATM    6  H   UNL     1      40.741 -14.109   1.521  1.00  0.00     0.164 HD
ENDROOT
BRANCH   1   7
HETATM    7  C   UNL     1      40.216 -16.683   2.174  1.00  0.00     0.038 A 
HETATM    8  C   UNL     1      40.959 -17.328   1.190  1.00  0.00     0.032 A 
HETATM    9  C   UNL     1      42.100 -18.061   1.541  1.00  0.00     0.036 A 
HETATM   10  C   UNL     1      42.500 -18.197   2.862  1.00  0.00     0.086 A 
HETATM   11  N   UNL     1      43.609 -18.897   3.155  1.00  0.00    -0.250 NA
HETATM   12  C   UNL     1      41.718 -17.601   3.871  1.00  0.00     0.088 A 
HETATM   13  C   UNL     1      43.939 -19.016   4.467  1.00  0.00     0.055 A 
HETATM   14  C   UNL     1      45.187 -19.789   4.775  1.00  0.00     0.072 C 
HETATM   15  C   UNL     1      43.150 -18.451   5.469  1.00  0.00     0.055 A 
HETATM   16  N   UNL     1      42.038 -17.730   5.170  1.00  0.00    -0.250 NA
HETATM   17  C   UNL     1      43.477 -18.603   6.923  1.00  0.00     0.072 C 
HETATM   18  C   UNL     1      40.598 -16.859   3.511  1.00  0.00     0.063 A 
ENDBRANCH   1   7
BRANCH   3  19
HETATM   19  C   UNL     1      39.893 -12.695   0.225  1.00  0.00     0.163 C 
BRANCH  19  20
HETATM   20  C   UNL     1      40.573 -12.581  -1.184  1.00  0.00     0.244 C 
BRANCH  20  21
HETATM   21  N   UNL     1      42.060 -12.224  -1.076  1.00  0.00    -0.068 N 
HETATM   22  H   UNL     1      42.504 -13.137  -0.844  1.00  0.00     0.279 HD
HETATM   23  C   UNL     1      42.738 -11.737  -2.315  1.00  0.00     0.270 C 
HETATM   24  C   UNL     1      42.369 -11.347   0.102  1.00  0.00     0.270 C 
ENDBRANCH  20  21
BRANCH  20  25
HETATM   25  C   UNL     1      40.320 -13.814  -2.023  1.00  0.00     0.015 A 
HETATM   26  S   UNL     1      38.880 -13.908  -2.961  1.00  0.00    -0.104 SA
HETATM   27  C   UNL     1      39.285 -15.451  -3.562  1.00  0.00     0.050 A 
HETATM   28  C   UNL     1      40.482 -15.903  -3.056  1.00  0.00     0.008 A 
HETATM   29  C   UNL     1      41.078 -14.963  -2.165  1.00  0.00     0.017 A 
ENDBRANCH  20  25
ENDBRANCH  19  20
ENDBRANCH   3  19
TORSDOF 5
ENDMDL
MODEL 6
REMARK VINA RESULT:      -7.1      3.498      4.787
REMARK  5 active torsions:
REMARK  status: ('A' for Active; 'I' for Inactive)
REMARK    1  A    between atoms: C_11  and  N_12 
REMARK       I    between atoms: N_12  and  C_13 
REMARK       I    between atoms: C_13  and  N_14 
REMARK    2  A    between atoms: N_14  and  C_15 
REMARK    3  A    between atoms: C_15  and  C_16 
REMARK    4  A    between atoms: C_16  and  N_17 
REMARK    5  A    between atoms: C_16  and  C_21 
ROOT
HETATM    1  N   UNL     1      39.479 -15.889   2.238  1.00  0.00    -0.309 N 
HETATM    2  C   UNL     1      39.198 -14.904   1.350  1.00  0.00     0.320 C 
HETATM    3  N   UNL     1      40.161 -14.519   0.479  1.00  0.00    -0.341 N 
HETATM    4  O   UNL     1      38.091 -14.365   1.356  1.00  0.00    -0.247 OA
HETATM    5  H   UNL     1      38.743 -15.984   2.932  1.00  0.00     0.170 HD
HETATM    6  H   UNL     1      41.092 -14.614   0.867  1.00  0.00     0.164 HD
ENDROOT
BRANCH   1   7
HETATM    7  C   UNL     1      40.551 -16.795   2.376  1.00  0.00     0.038 A 
HETATM    8  C   UNL     1      41.179 -17.462   1.330  1.00  0.00     0.032 A 
HETATM    9  C   UNL     1      42.263 -18.310   1.589  1.00  0.00     0.036 A 
HETATM   10  C   UNL     1      42.717 -18.536   2.880  1.00  0.00     0.086 A 
HETATM   11  N   UNL     1      43.771 -19.345   3.086  1.00  0.00    -0.250 NA
HETATM   12  C   UNL     1      42.048 -17.913   3.952  1.00  0.00     0.088 A 
HETATM   13  C   UNL     1      44.156 -19.548   4.372  1.00  0.00     0.055 A 
HETATM   14  C   UNL     1      45.341 -20.442   4.582  1.00  0.00     0.072 C 
HETATM   15  C   UNL     1      43.476 -18.955   5.436  1.00  0.00     0.055 A 
HETATM   16  N   UNL     1      42.422 -18.124   5.226  1.00  0.00    -0.250 NA
HETATM   17  C   UNL     1      43.863 -19.196   6.863  1.00  0.00     0.072 C 
HETATM   18  C   UNL     1      40.984 -17.059   3.683  1.00  0.00     0.063 A 
ENDBRANCH   1   7
BRANCH   3  19
HETATM   19  C   UNL     1      40.022 -13.447  -0.510  1.00  0.00     0.163 C 
BRANCH  19  20
HETATM   20  C   UNL     1      40.658 -13.682  -1.924  1.00  0.00     0.244 C 
BRANCH  20  21
HETATM   21  N   UNL     1      39.632 -14.209  -2.934  1.00  0.00    -0.068 N 
HETATM   22  H   UNL     1      39.733 -13.552  -3.736  1.00  0.00     0.279 HD
HETATM   23  C   UNL     1      39.859 -15.577  -3.491  1.00  0.00     0.270 C 
HETATM   24  C   UNL     1      38.213 -14.028  -2.479  1.00  0.00     0.270 C 
ENDBRANCH  20  21
BRANCH  20  25
HETATM   25  C   UNL     1      41.392 -12.454  -2.413  1.00  0.00     0.015 A 
HETATM   26  S   UNL     1      42.618 -11.761  -1.422  1.00  0.00    -0.104 SA
HETATM   27  C   UNL     1      42.939 -10.528  -2.555  1.00  0.00     0.050 A 
HETATM   28  C   UNL     1      42.128 -10.623  -3.663  1.00  0.00     0.008 A 
HETATM   29  C   UNL     1      41.233 -11.730  -3.581  1.00  0.00     0.017 A 
ENDBRANCH  20  25
ENDBRANCH  19  20
ENDBRANCH   3  19
TORSDOF 5
ENDMDL
MODEL 7
REMARK VINA RESULT:      -7.0      3.230      3.985
REMARK  5 active torsions:
REMARK  status: ('A' for Active; 'I' for Inactive)
REMARK    1  A    between atoms: C_11  and  N_12 
REMARK       I    between atoms: N_12  and  C_13 
REMARK       I    between atoms: C_13  and  N_14 
REMARK    2  A    between atoms: N_14  and  C_15 
REMARK    3  A    between atoms: C_15  and  C_16 
REMARK    4  A    between atoms: C_16  and  N_17 
REMARK    5  A    between atoms: C_16  and  C_21 
ROOT
HETATM    1  N   UNL     1      39.977 -15.555   3.117  1.00  0.00    -0.309 N 
HETATM    2  C   UNL     1      39.901 -14.669   2.094  1.00  0.00     0.320 C 
HETATM    3  N   UNL     1      41.043 -14.298   1.468  1.00  0.00    -0.341 N 
HETATM    4  O   UNL     1      38.811 -14.203   1.760  1.00  0.00    -0.247 OA
HETATM    5  H   UNL     1      39.088 -15.638   3.602  1.00  0.00     0.170 HD
HETATM    6  H   UNL     1      41.842 -14.300   2.091  1.00  0.00     0.164 HD
ENDROOT
BRANCH   1   7
HETATM    7  C   UNL     1      41.009 -16.375   3.617  1.00  0.00     0.038 A 
HETATM    8  C   UNL     1      41.648 -16.207   4.841  1.00  0.00     0.032 A 
HETATM    9  C   UNL     1      42.634 -17.114   5.248  1.00  0.00     0.036 A 
HETATM   10  C   UNL     1      43.026 -18.172   4.442  1.00  0.00     0.086 A 
HETATM   11  N   UNL     1      43.966 -19.030   4.875  1.00  0.00    -0.250 NA
HETATM   12  C   UNL     1      42.430 -18.314   3.173  1.00  0.00     0.088 A 
HETATM   13  C   UNL     1      44.327 -20.032   4.033  1.00  0.00     0.055 A 
HETATM   14  C   UNL     1      45.367 -20.987   4.538  1.00  0.00     0.072 C 
HETATM   15  C   UNL     1      43.758 -20.157   2.765  1.00  0.00     0.055 A 
HETATM   16  N   UNL     1      42.796 -19.300   2.336  1.00  0.00    -0.250 NA
HETATM   17  C   UNL     1      44.170 -21.235   1.810  1.00  0.00     0.072 C 
HETATM   18  C   UNL     1      41.438 -17.420   2.786  1.00  0.00     0.063 A 
ENDBRANCH   1   7
BRANCH   3  19
HETATM   19  C   UNL     1      41.128 -13.325   0.377  1.00  0.00     0.163 C 
BRANCH  19  20
HETATM   20  C   UNL     1      41.382 -13.880  -1.068  1.00  0.00     0.244 C 
BRANCH  20  21
HETATM   21  N   UNL     1      40.230 -14.766  -1.553  1.00  0.00    -0.068 N 
HETATM   22  H   UNL     1      40.023 -15.359  -0.722  1.00  0.00     0.279 HD
HETATM   23  C   UNL     1      38.946 -14.088  -1.906  1.00  0.00     0.270 C 
HETATM   24  C   UNL     1      40.646 -15.742  -2.614  1.00  0.00     0.270 C 
ENDBRANCH  20  21
BRANCH  20  25
HETATM   25  C   UNL     1      41.724 -12.770  -2.036  1.00  0.00     0.015 A 
HETATM   26  S   UNL     1      41.719 -11.141  -1.479  1.00  0.00    -0.104 SA
HETATM   27  C   UNL     1      42.159 -10.539  -3.013  1.00  0.00     0.050 A 
HETATM   28  C   UNL     1      42.296 -11.545  -3.942  1.00  0.00     0.008 A 
HETATM   29  C   UNL     1      42.042 -12.831  -3.382  1.00  0.00     0.017 A 
ENDBRANCH  20  25
ENDBRANCH  19  20
ENDBRANCH   3  19
TORSDOF 5
ENDMDL
MODEL 8
REMARK VINA RESULT:      -6.9      4.261      8.276
REMARK  5 active torsions:
REMARK  status: ('A' for Active; 'I' for Inactive)
REMARK    1  A    between atoms: C_11  and  N_12 
REMARK       I    between atoms: N_12  and  C_13 
REMARK       I    between atoms: C_13  and  N_14 
REMARK    2  A    between atoms: N_14  and  C_15 
REMARK    3  A    between atoms: C_15  and  C_16 
REMARK    4  A    between atoms: C_16  and  N_17 
REMARK    5  A    between atoms: C_16  and  C_21 
ROOT
HETATM    1  N   UNL     1      40.845 -16.460  -0.463  1.00  0.00    -0.309 N 
HETATM    2  C   UNL     1      41.539 -16.906   0.613  1.00  0.00     0.320 C 
HETATM    3  N   UNL     1      42.802 -16.456   0.803  1.00  0.00    -0.341 N 
HETATM    4  O   UNL     1      41.028 -17.717   1.384  1.00  0.00    -0.247 OA
HETATM    5  H   UNL     1      39.979 -16.977  -0.586  1.00  0.00     0.170 HD
HETATM    6  H   UNL     1      43.276 -16.254  -0.069  1.00  0.00     0.164 HD
ENDROOT
BRANCH   1   7
HETATM    7  C   UNL     1      41.069 -15.438  -1.408  1.00  0.00     0.038 A 
HETATM    8  C   UNL     1      40.749 -15.510  -2.760  1.00  0.00     0.032 A 
HETATM    9  C   UNL     1      40.984 -14.410  -3.596  1.00  0.00     0.036 A 
HETATM   10  C   UNL     1      41.567 -13.246  -3.119  1.00  0.00     0.086 A 
HETATM   11  N   UNL     1      41.761 -12.207  -3.949  1.00  0.00    -0.250 NA
HETATM   12  C   UNL     1      41.952 -13.187  -1.765  1.00  0.00     0.088 A 
HETATM   13  C   UNL     1      42.358 -11.102  -3.433  1.00  0.00     0.055 A 
HETATM   14  C   UNL     1      42.555  -9.949  -4.370  1.00  0.00     0.072 C 
HETATM   15  C   UNL     1      42.767 -11.053  -2.100  1.00  0.00     0.055 A 
HETATM   16  N   UNL     1      42.554 -12.097  -1.257  1.00  0.00    -0.250 NA
HETATM   17  C   UNL     1      43.459  -9.857  -1.522  1.00  0.00     0.072 C 
HETATM   18  C   UNL     1      41.698 -14.276  -0.939  1.00  0.00     0.063 A 
ENDBRANCH   1   7
BRANCH   3  19
HETATM   19  C   UNL     1      43.689 -16.874   1.892  1.00  0.00     0.163 C 
BRANCH  19  20
HETATM   20  C   UNL     1      43.599 -16.079   3.242  1.00  0.00     0.244 C 
BRANCH  20  21
HETATM   21  N   UNL     1      42.569 -14.946   3.173  1.00  0.00    -0.068 N 
HETATM   22  H   UNL     1      42.344 -14.894   2.157  1.00  0.00     0.279 HD
HETATM   23  C   UNL     1      41.267 -15.159   3.874  1.00  0.00     0.270 C 
HETATM   24  C   UNL     1      43.154 -13.602   3.494  1.00  0.00     0.270 C 
ENDBRANCH  20  21
BRANCH  20  25
HETATM   25  C   UNL     1      43.381 -17.006   4.417  1.00  0.00     0.015 A 
HETATM   26  S   UNL     1      43.766 -16.455   6.001  1.00  0.00    -0.104 SA
HETATM   27  C   UNL     1      43.292 -17.932   6.710  1.00  0.00     0.050 A 
HETATM   28  C   UNL     1      42.861 -18.839   5.769  1.00  0.00     0.008 A 
HETATM   29  C   UNL     1      42.915 -18.309   4.446  1.00  0.00     0.017 A 
ENDBRANCH  20  25
ENDBRANCH  19  20
ENDBRANCH   3  19
TORSDOF 5
ENDMDL
MODEL 9
REMARK VINA RESULT:      -6.8      4.149      8.329
REMARK  5 active torsions:
REMARK  status: ('A' for Active; 'I' for Inactive)
REMARK    1  A    between atoms: C_11  and  N_12 
REMARK       I    between atoms: N_12  and  C_13 
REMARK       I    between atoms: C_13  and  N_14 
REMARK    2  A    between atoms: N_14  and  C_15 
REMARK    3  A    between atoms: C_15  and  C_16 
REMARK    4  A    between atoms: C_16  and  N_17 
REMARK    5  A    between atoms: C_16  and  C_21 
ROOT
HETATM    1  N   UNL     1      40.712 -15.887   0.125  1.00  0.00    -0.309 N 
HETATM    2  C   UNL     1      41.473 -16.909   0.588  1.00  0.00     0.320 C 
HETATM    3  N   UNL     1      42.810 -16.726   0.701  1.00  0.00    -0.341 N 
HETATM    4  O   UNL     1      40.950 -17.985   0.880  1.00  0.00    -0.247 OA
HETATM    5  H   UNL     1      39.760 -16.188  -0.061  1.00  0.00     0.170 HD
HETATM    6  H   UNL     1      43.172 -16.087   0.003  1.00  0.00     0.164 HD
ENDROOT
BRANCH   1   7
HETATM    7  C   UNL     1      40.967 -14.523  -0.125  1.00  0.00     0.038 A 
HETATM    8  C   UNL     1      40.896 -13.506   0.822  1.00  0.00     0.032 A 
HETATM    9  C   UNL     1      41.211 -12.190   0.461  1.00  0.00     0.036 A 
HETATM   10  C   UNL     1      41.565 -11.856  -0.838  1.00  0.00     0.086 A 
HETATM   11  N   UNL     1      41.875 -10.584  -1.140  1.00  0.00    -0.250 NA
HETATM   12  C   UNL     1      41.579 -12.869  -1.817  1.00  0.00     0.088 A 
HETATM   13  C   UNL     1      42.190 -10.312  -2.433  1.00  0.00     0.055 A 
HETATM   14  C   UNL     1      42.547  -8.890  -2.749  1.00  0.00     0.072 C 
HETATM   15  C   UNL     1      42.176 -11.308  -3.409  1.00  0.00     0.055 A 
HETATM   16  N   UNL     1      41.878 -12.597  -3.099  1.00  0.00    -0.250 NA
HETATM   17  C   UNL     1      42.485 -11.020  -4.846  1.00  0.00     0.072 C 
HETATM   18  C   UNL     1      41.281 -14.175  -1.446  1.00  0.00     0.063 A 
ENDBRANCH   1   7
BRANCH   3  19
HETATM   19  C   UNL     1      43.765 -17.743   1.147  1.00  0.00     0.163 C 
BRANCH  19  20
HETATM   20  C   UNL     1      43.972 -17.912   2.692  1.00  0.00     0.244 C 
BRANCH  20  21
HETATM   21  N   UNL     1      42.833 -17.275   3.497  1.00  0.00    -0.068 N 
HETATM   22  H   UNL     1      42.203 -16.902   2.757  1.00  0.00     0.279 HD
HETATM   23  C   UNL     1      41.995 -18.185   4.334  1.00  0.00     0.270 C 
HETATM   24  C   UNL     1      43.266 -16.062   4.267  1.00  0.00     0.270 C 
ENDBRANCH  20  21
BRANCH  20  25
HETATM   25  C   UNL     1      44.224 -19.356   3.063  1.00  0.00     0.015 A 
HETATM   26  S   UNL     1      43.689 -20.600   2.001  1.00  0.00    -0.104 SA
HETATM   27  C   UNL     1      44.283 -21.829   3.022  1.00  0.00     0.050 A 
HETATM   28  C   UNL     1      44.867 -21.317   4.158  1.00  0.00     0.008 A 
HETATM   29  C   UNL     1      44.831 -19.892   4.186  1.00  0.00     0.017 A 
ENDBRANCH  20  25
ENDBRANCH  19  20
ENDBRANCH   3  19
TORSDOF 5
ENDMDL
MODEL 10
REMARK VINA RESULT:      -6.8      1.667      2.965
REMARK  5 active torsions:
REMARK  status: ('A' for Active; 'I' for Inactive)
REMARK    1  A    between atoms: C_11  and  N_12 
REMARK       I    between atoms: N_12  and  C_13 
REMARK       I    between atoms: C_13  and  N_14 
REMARK    2  A    between atoms: N_14  and  C_15 
REMARK    3  A    between atoms: C_15  and  C_16 
REMARK    4  A    between atoms: C_16  and  N_17 
REMARK    5  A    between atoms: C_16  and  C_21 
ROOT
HETATM    1  N   UNL     1      41.654 -15.284   5.491  1.00  0.00    -0.309 N 
HETATM    2  C   UNL     1      40.738 -14.879   4.578  1.00  0.00     0.320 C 
HETATM    3  N   UNL     1      40.438 -15.703   3.546  1.00  0.00    -0.341 N 
HETATM    4  O   UNL     1      40.207 -13.773   4.685  1.00  0.00    -0.247 OA
HETATM    5  H   UNL     1      41.907 -14.530   6.123  1.00  0.00     0.170 HD
HETATM    6  H   UNL     1      41.228 -16.274   3.267  1.00  0.00     0.164 HD
ENDROOT
BRANCH   1   7
HETATM    7  C   UNL     1      42.294 -16.514   5.743  1.00  0.00     0.038 A 
HETATM    8  C   UNL     1      42.537 -17.050   7.005  1.00  0.00     0.032 A 
HETATM    9  C   UNL     1      43.147 -18.305   7.128  1.00  0.00     0.036 A 
HETATM   10  C   UNL     1      43.556 -19.027   6.017  1.00  0.00     0.086 A 
HETATM   11  N   UNL     1      44.125 -20.234   6.177  1.00  0.00    -0.250 NA
HETATM   12  C   UNL     1      43.372 -18.465   4.738  1.00  0.00     0.088 A 
HETATM   13  C   UNL     1      44.527 -20.885   5.055  1.00  0.00     0.055 A 
HETATM   14  C   UNL     1      45.147 -22.236   5.251  1.00  0.00     0.072 C 
HETATM   15  C   UNL     1      44.372 -20.317   3.790  1.00  0.00     0.055 A 
HETATM   16  N   UNL     1      43.781 -19.104   3.629  1.00  0.00    -0.250 NA
HETATM   17  C   UNL     1      44.842 -21.003   2.545  1.00  0.00     0.072 C 
HETATM   18  C   UNL     1      42.748 -17.227   4.625  1.00  0.00     0.063 A 
ENDBRANCH   1   7
BRANCH   3  19
HETATM   19  C   UNL     1      39.502 -15.391   2.463  1.00  0.00     0.163 C 
BRANCH  19  20
HETATM   20  C   UNL     1      40.043 -14.536   1.265  1.00  0.00     0.244 C 
BRANCH  20  21
HETATM   21  N   UNL     1      40.366 -15.401   0.041  1.00  0.00    -0.068 N 
HETATM   22  H   UNL     1      39.496 -15.960  -0.086  1.00  0.00     0.279 HD
HETATM   23  C   UNL     1      40.597 -14.695  -1.255  1.00  0.00     0.270 C 
HETATM   24  C   UNL     1      41.431 -16.423   0.309  1.00  0.00     0.270 C 
ENDBRANCH  20  21
BRANCH  20  25
HETATM   25  C   UNL     1      39.120 -13.381   0.947  1.00  0.00     0.015 A 
HETATM   26  S   UNL     1      37.450 -13.696   0.669  1.00  0.00    -0.104 SA
HETATM   27  C   UNL     1      37.110 -12.047   0.397  1.00  0.00     0.050 A 
HETATM   28  C   UNL     1      38.237 -11.264   0.500  1.00  0.00     0.008 A 
HETATM   29  C   UNL     1      39.398 -12.032   0.813  1.00  0.00     0.017 A 
ENDBRANCH  20  25
ENDBRANCH  19  20
ENDBRANCH   3  19
TORSDOF 5
ENDMDL
