MODEL 1
REMARK VINA RESULT:      -8.9      0.000      0.000
REMARK  5 active torsions:
REMARK  status: ('A' for Active; 'I' for Inactive)
REMARK    1  A    between atoms: C_9  and  C_10 
REMARK       I    between atoms: C_10  and  N_11 
REMARK    2  A    between atoms: N_11  and  C_12 
REMARK    3  A    between atoms: C_12  and  C_13 
REMARK    4  A    between atoms: C_16  and  N_17 
REMARK       I    between atoms: N_17  and  C_18 
REMARK       I    between atoms: C_18  and  N_19 
REMARK    5  A    between atoms: N_19  and  C_20 
ROOT
HETATM    1  C   UNL     1      40.969 -15.830   4.294  1.00  0.00     0.161 C 
ENDROOT
BRANCH   1   2
HETATM    2  N   UNL     1      41.658 -16.972   4.831  1.00  0.00    -0.351 N 
HETATM    3  C   UNL     1      42.951 -16.922   5.291  1.00  0.00     0.273 C 
HETATM    4  O   UNL     1      43.626 -15.898   5.296  1.00  0.00    -0.266 OA
HETATM    5  H   UNL     1      41.202 -17.879   4.890  1.00  0.00     0.163 HD
BRANCH   3   6
HETATM    6  C   UNL     1      43.435 -18.229   5.769  1.00  0.00     0.157 A 
HETATM    7  C   UNL     1      43.827 -19.354   4.984  1.00  0.00     0.029 A 
HETATM    8  C   UNL     1      43.913 -19.654   3.611  1.00  0.00     0.023 A 
HETATM    9  C   UNL     1      44.188 -20.328   5.907  1.00  0.00     0.063 A 
HETATM   10  C   UNL     1      44.357 -20.925   3.207  1.00  0.00    -0.061 A 
HETATM   11  C   UNL     1      44.463 -21.267   1.750  1.00  0.00     0.048 C 
HETATM   12  C   UNL     1      44.713 -21.878   4.172  1.00  0.00     0.009 A 
HETATM   13  C   UNL     1      44.636 -21.600   5.540  1.00  0.00     0.032 A 
HETATM   14  N   UNL     1      44.003 -19.753   7.132  1.00  0.00    -0.277 N 
HETATM   15  H   UNL     1      44.167 -20.175   8.038  1.00  0.00     0.189 HD
HETATM   16  N   UNL     1      43.551 -18.488   7.092  1.00  0.00    -0.168 NA
ENDBRANCH   3   6
ENDBRANCH   1   2
BRANCH   1  17
HETATM   17  C   UNL     1      41.046 -15.842   2.792  1.00  0.00    -0.040 A 
HETATM   18  C   UNL     1      40.858 -17.028   2.071  1.00  0.00     0.011 A 
HETATM   19  C   UNL     1      41.024 -17.052   0.682  1.00  0.00     0.030 A 
HETATM   20  C   UNL     1      41.409 -15.900  -0.008  1.00  0.00     0.036 A 
HETATM   21  C   UNL     1      41.548 -14.704   0.706  1.00  0.00     0.030 A 
HETATM   22  C   UNL     1      41.381 -14.676   2.093  1.00  0.00     0.011 A 
BRANCH  20  23
HETATM   23  N   UNL     1      41.647 -15.844  -1.392  1.00  0.00    -0.309 N 
HETATM   24  C   UNL     1      40.952 -15.298  -2.431  1.00  0.00     0.321 C 
HETATM   25  N   UNL     1      39.667 -14.919  -2.189  1.00  0.00    -0.339 N 
HETATM   26  O   UNL     1      41.489 -15.235  -3.534  1.00  0.00    -0.247 OA
HETATM   27  H   UNL     1      39.230 -15.459  -1.456  1.00  0.00     0.164 HD
HETATM   28  H   UNL     1      42.494 -16.290  -1.724  1.00  0.00     0.170 HD
BRANCH  25  29
HETATM   29  C   UNL     1      38.756 -14.418  -3.212  1.00  0.00     0.078 C 
HETATM   30  C   UNL     1      37.693 -15.435  -3.623  1.00  0.00     0.032 C 
HETATM   31  C   UNL     1      38.133 -13.084  -2.809  1.00  0.00     0.032 C 
ENDBRANCH  25  29
ENDBRANCH  20  23
ENDBRANCH   1  17
TORSDOF 5
ENDMDL
MODEL 2
REMARK VINA RESULT:      -8.3      1.455      1.830
REMARK  5 active torsions:
REMARK  status: ('A' for Active; 'I' for Inactive)
REMARK    1  A    between atoms: C_9  and  C_10 
REMARK       I    between atoms: C_10  and  N_11 
REMARK    2  A    between atoms: N_11  and  C_12 
REMARK    3  A    between atoms: C_12  and  C_13 
REMARK    4  A    between atoms: C_16  and  N_17 
REMARK       I    between atoms: N_17  and  C_18 
REMARK       I    between atoms: C_18  and  N_19 
REMARK    5  A    between atoms: N_19  and  C_20 
ROOT
HETATM    1  C   UNL     1      41.351 -14.620   4.607  1.00  0.00     0.161 C 
ENDROOT
BRANCH   1   2
HETATM    2  N   UNL     1      41.831 -15.812   5.249  1.00  0.00    -0.351 N 
HETATM    3  C   UNL     1      43.023 -15.872   5.931  1.00  0.00     0.273 C 
HETATM    4  O   UNL     1      43.774 -14.911   6.061  1.00  0.00    -0.266 OA
HETATM    5  H   UNL     1      41.295 -16.675   5.220  1.00  0.00     0.163 HD
BRANCH   3   6
HETATM    6  C   UNL     1      43.298 -17.211   6.477  1.00  0.00     0.157 A 
HETATM    7  C   UNL     1      43.714 -18.375   5.765  1.00  0.00     0.029 A 
HETATM    8  C   UNL     1      44.006 -18.697   4.426  1.00  0.00     0.023 A 
HETATM    9  C   UNL     1      43.824 -19.368   6.732  1.00  0.00     0.063 A 
HETATM   10  C   UNL     1      44.395 -20.007   4.097  1.00  0.00    -0.061 A 
HETATM   11  C   UNL     1      44.717 -20.373   2.677  1.00  0.00     0.048 C 
HETATM   12  C   UNL     1      44.495 -20.977   5.103  1.00  0.00     0.009 A 
HETATM   13  C   UNL     1      44.211 -20.679   6.440  1.00  0.00     0.032 A 
HETATM   14  N   UNL     1      43.486 -18.766   7.910  1.00  0.00    -0.277 N 
HETATM   15  H   UNL     1      43.454 -19.192   8.829  1.00  0.00     0.189 HD
HETATM   16  N   UNL     1      43.163 -17.466   7.799  1.00  0.00    -0.168 NA
ENDBRANCH   3   6
ENDBRANCH   1   2
BRANCH   1  17
HETATM   17  C   UNL     1      41.198 -14.857   3.129  1.00  0.00    -0.040 A 
HETATM   18  C   UNL     1      39.963 -14.674   2.495  1.00  0.00     0.011 A 
HETATM   19  C   UNL     1      39.803 -14.987   1.141  1.00  0.00     0.030 A 
HETATM   20  C   UNL     1      40.866 -15.515   0.404  1.00  0.00     0.036 A 
HETATM   21  C   UNL     1      42.113 -15.649   1.023  1.00  0.00     0.030 A 
HETATM   22  C   UNL     1      42.277 -15.336   2.376  1.00  0.00     0.011 A 
BRANCH  20  23
HETATM   23  N   UNL     1      40.782 -15.903  -0.945  1.00  0.00    -0.309 N 
HETATM   24  C   UNL     1      41.049 -15.254  -2.115  1.00  0.00     0.321 C 
HETATM   25  N   UNL     1      41.213 -13.904  -2.054  1.00  0.00    -0.339 N 
HETATM   26  O   UNL     1      41.065 -15.900  -3.160  1.00  0.00    -0.247 OA
HETATM   27  H   UNL     1      40.702 -13.480  -1.293  1.00  0.00     0.164 HD
HETATM   28  H   UNL     1      40.461 -16.846  -1.126  1.00  0.00     0.170 HD
BRANCH  25  29
HETATM   29  C   UNL     1      41.398 -13.050  -3.222  1.00  0.00     0.078 C 
HETATM   30  C   UNL     1      40.120 -12.332  -3.653  1.00  0.00     0.032 C 
HETATM   31  C   UNL     1      42.554 -12.072  -3.029  1.00  0.00     0.032 C 
ENDBRANCH  25  29
ENDBRANCH  20  23
ENDBRANCH   1  17
TORSDOF 5
ENDMDL
MODEL 3
REMARK VINA RESULT:      -8.1      5.789      8.881
REMARK  5 active torsions:
REMARK  status: ('A' for Active; 'I' for Inactive)
REMARK    1  A    between atoms: C_9  and  C_10 
REMARK       I    between atoms: C_10  and  N_11 
REMARK    2  A    between atoms: N_11  and  C_12 
REMARK    3  A    between atoms: C_12  and  C_13 
REMARK    4  A    between atoms: C_16  and  N_17 
REMARK       I    between atoms: N_17  and  C_18 
REMARK       I    between atoms: C_18  and  N_19 
REMARK    5  A    between atoms: N_19  and  C_20 
ROOT
HETATM    1  C   UNL     1      40.016 -12.676   6.007  1.00  0.00     0.161 C 
ENDROOT
BRANCH   1   2
HETATM    2  N   UNL     1      40.224 -12.112   7.312  1.00  0.00    -0.351 N 
HETATM    3  C   UNL     1      40.636 -10.817   7.515  1.00  0.00     0.273 C 
HETATM    4  O   UNL     1      40.850 -10.027   6.601  1.00  0.00    -0.266 OA
HETATM    5  H   UNL     1      40.071 -12.663   8.152  1.00  0.00     0.163 HD
BRANCH   3   6
HETATM    6  C   UNL     1      40.797 -10.488   8.941  1.00  0.00     0.157 A 
HETATM    7  C   UNL     1      41.997 -10.513   9.712  1.00  0.00     0.029 A 
HETATM    8  C   UNL     1      43.352 -10.813   9.473  1.00  0.00     0.023 A 
HETATM    9  C   UNL     1      41.611 -10.132  10.992  1.00  0.00     0.063 A 
HETATM   10  C   UNL     1      44.276 -10.725  10.528  1.00  0.00    -0.061 A 
HETATM   11  C   UNL     1      45.727 -11.034  10.297  1.00  0.00     0.048 C 
HETATM   12  C   UNL     1      43.844 -10.336  11.803  1.00  0.00     0.009 A 
HETATM   13  C   UNL     1      42.504 -10.033  12.062  1.00  0.00     0.032 A 
HETATM   14  N   UNL     1      40.265  -9.911  10.913  1.00  0.00    -0.277 N 
HETATM   15  H   UNL     1      39.648  -9.618  11.661  1.00  0.00     0.189 HD
HETATM   16  N   UNL     1      39.737 -10.113   9.694  1.00  0.00    -0.168 NA
ENDBRANCH   3   6
ENDBRANCH   1   2
BRANCH   1  17
HETATM   17  C   UNL     1      40.861 -13.910   5.839  1.00  0.00    -0.040 A 
HETATM   18  C   UNL     1      40.290 -15.187   5.898  1.00  0.00     0.011 A 
HETATM   19  C   UNL     1      41.093 -16.331   5.836  1.00  0.00     0.030 A 
HETATM   20  C   UNL     1      42.482 -16.219   5.744  1.00  0.00     0.036 A 
HETATM   21  C   UNL     1      43.049 -14.945   5.634  1.00  0.00     0.030 A 
HETATM   22  C   UNL     1      42.249 -13.799   5.693  1.00  0.00     0.011 A 
BRANCH  20  23
HETATM   23  N   UNL     1      43.368 -17.311   5.726  1.00  0.00    -0.309 N 
HETATM   24  C   UNL     1      43.975 -17.997   4.715  1.00  0.00     0.321 C 
HETATM   25  N   UNL     1      43.505 -17.790   3.454  1.00  0.00    -0.339 N 
HETATM   26  O   UNL     1      44.858 -18.803   4.993  1.00  0.00    -0.247 OA
HETATM   27  H   UNL     1      42.530 -17.529   3.436  1.00  0.00     0.164 HD
HETATM   28  H   UNL     1      43.631 -17.695   6.626  1.00  0.00     0.170 HD
BRANCH  25  29
HETATM   29  C   UNL     1      43.969 -18.519   2.279  1.00  0.00     0.078 C 
HETATM   30  C   UNL     1      43.310 -19.888   2.120  1.00  0.00     0.032 C 
HETATM   31  C   UNL     1      43.842 -17.683   1.008  1.00  0.00     0.032 C 
ENDBRANCH  25  29
ENDBRANCH  20  23
ENDBRANCH   1  17
TORSDOF 5
ENDMDL
MODEL 4
REMARK VINA RESULT:      -8.0      1.343      1.942
REMARK  5 active torsions:
REMARK  status: ('A' for Active; 'I' for Inactive)
REMARK    1  A    between atoms: C_9  and  C_10 
REMARK       I    between atoms: C_10  and  N_11 
REMARK    2  A    between atoms: N_11  and  C_12 
REMARK    3  A    between atoms: C_12  and  C_13 
REMARK    4  A    between atoms: C_16  and  N_17 
REMARK       I    between atoms: N_17  and  C_18 
REMARK       I    between atoms: C_18  and  N_19 
REMARK    5  A    between atoms: N_19  and  C_20 
ROOT
HETATM    1  C   UNL     1      41.822 -13.805   3.721  1.00  0.00     0.161 C 
ENDROOT
BRANCH   1   2
HETATM    2  N   UNL     1      42.313 -14.946   4.444  1.00  0.00    -0.351 N 
HETATM    3  C   UNL     1      41.535 -15.687   5.300  1.00  0.00     0.273 C 
HETATM    4  O   UNL     1      40.350 -15.448   5.512  1.00  0.00    -0.266 OA
HETATM    5  H   UNL     1      43.278 -15.252   4.347  1.00  0.00     0.163 HD
BRANCH   3   6
HETATM    6  C   UNL     1      42.278 -16.789   5.934  1.00  0.00     0.157 A 
HETATM    7  C   UNL     1      42.951 -17.870   5.292  1.00  0.00     0.029 A 
HETATM    8  C   UNL     1      43.169 -18.287   3.965  1.00  0.00     0.023 A 
HETATM    9  C   UNL     1      43.479 -18.631   6.328  1.00  0.00     0.063 A 
HETATM   10  C   UNL     1      43.908 -19.457   3.719  1.00  0.00    -0.061 A 
HETATM   11  C   UNL     1      44.160 -19.918   2.313  1.00  0.00     0.048 C 
HETATM   12  C   UNL     1      44.424 -20.194   4.794  1.00  0.00     0.009 A 
HETATM   13  C   UNL     1      44.220 -19.798   6.119  1.00  0.00     0.032 A 
HETATM   14  N   UNL     1      43.110 -17.988   7.475  1.00  0.00    -0.277 N 
HETATM   15  H   UNL     1      43.322 -18.263   8.427  1.00  0.00     0.189 HD
HETATM   16  N   UNL     1      42.385 -16.873   7.280  1.00  0.00    -0.168 NA
ENDBRANCH   3   6
ENDBRANCH   1   2
BRANCH   1  17
HETATM   17  C   UNL     1      41.843 -14.085   2.243  1.00  0.00    -0.040 A 
HETATM   18  C   UNL     1      41.841 -13.038   1.313  1.00  0.00     0.011 A 
HETATM   19  C   UNL     1      41.765 -13.303  -0.059  1.00  0.00     0.030 A 
HETATM   20  C   UNL     1      41.662 -14.616  -0.524  1.00  0.00     0.036 A 
HETATM   21  C   UNL     1      41.716 -15.664   0.402  1.00  0.00     0.030 A 
HETATM   22  C   UNL     1      41.793 -15.403   1.773  1.00  0.00     0.011 A 
BRANCH  20  23
HETATM   23  N   UNL     1      41.532 -14.972  -1.878  1.00  0.00    -0.309 N 
HETATM   24  C   UNL     1      40.590 -14.692  -2.824  1.00  0.00     0.321 C 
HETATM   25  N   UNL     1      39.410 -14.168  -2.391  1.00  0.00    -0.339 N 
HETATM   26  O   UNL     1      40.822 -14.983  -3.995  1.00  0.00    -0.247 OA
HETATM   27  H   UNL     1      39.179 -14.445  -1.448  1.00  0.00     0.164 HD
HETATM   28  H   UNL     1      42.265 -15.553  -2.266  1.00  0.00     0.170 HD
BRANCH  25  29
HETATM   29  C   UNL     1      38.264 -13.912  -3.255  1.00  0.00     0.078 C 
HETATM   30  C   UNL     1      37.315 -15.104  -3.367  1.00  0.00     0.032 C 
HETATM   31  C   UNL     1      37.524 -12.640  -2.850  1.00  0.00     0.032 C 
ENDBRANCH  25  29
ENDBRANCH  20  23
ENDBRANCH   1  17
TORSDOF 5
ENDMDL
MODEL 5
REMARK VINA RESULT:      -7.9      1.965      2.506
REMARK  5 active torsions:
REMARK  status: ('A' for Active; 'I' for Inactive)
REMARK    1  A    between atoms: C_9  and  C_10 
REMARK       I    between atoms: C_10  and  N_11 
REMARK    2  A    between atoms: N_11  and  C_12 
REMARK    3  A    between atoms: C_12  and  C_13 
REMARK    4  A    between atoms: C_16  and  N_17 
REMARK       I    between atoms: N_17  and  C_18 
REMARK       I    between atoms: C_18  and  N_19 
REMARK    5  A    between atoms: N_19  and  C_20 
ROOT
HETATM    1  C   UNL     1      41.038 -14.248   5.256  1.00  0.00     0.161 C 
ENDROOT
BRANCH   1   2
HETATM    2  N   UNL     1      41.862 -15.402   5.487  1.00  0.00    -0.351 N 
HETATM    3  C   UNL     1      43.210 -15.325   5.738  1.00  0.00     0.273 C 
HETATM    4  O   UNL     1      43.826 -14.265   5.799  1.00  0.00    -0.266 OA
HETATM    5  H   UNL     1      41.468 -16.339   5.473  1.00  0.00     0.163 HD
BRANCH   3   6
HETATM    6  C   UNL     1      43.831 -16.648   5.918  1.00  0.00     0.157 A 
HETATM    7  C   UNL     1      43.923 -17.706   4.965  1.00  0.00     0.029 A 
HETATM    8  C   UNL     1      43.522 -17.908   3.630  1.00  0.00     0.023 A 
HETATM    9  C   UNL     1      44.586 -18.732   5.628  1.00  0.00     0.063 A 
HETATM   10  C   UNL     1      43.797 -19.136   3.004  1.00  0.00    -0.061 A 
HETATM   11  C   UNL     1      43.385 -19.373   1.580  1.00  0.00     0.048 C 
HETATM   12  C   UNL     1      44.469 -20.143   3.709  1.00  0.00     0.009 A 
HETATM   13  C   UNL     1      44.876 -19.963   5.035  1.00  0.00     0.032 A 
HETATM   14  N   UNL     1      44.841 -18.248   6.880  1.00  0.00    -0.277 N 
HETATM   15  H   UNL     1      45.313 -18.728   7.637  1.00  0.00     0.189 HD
HETATM   16  N   UNL     1      44.403 -16.996   7.094  1.00  0.00    -0.168 NA
ENDBRANCH   3   6
ENDBRANCH   1   2
BRANCH   1  17
HETATM   17  C   UNL     1      40.366 -14.355   3.914  1.00  0.00    -0.040 A 
HETATM   18  C   UNL     1      40.507 -15.506   3.129  1.00  0.00     0.011 A 
HETATM   19  C   UNL     1      39.959 -15.563   1.842  1.00  0.00     0.030 A 
HETATM   20  C   UNL     1      39.287 -14.462   1.307  1.00  0.00     0.036 A 
HETATM   21  C   UNL     1      39.102 -13.332   2.110  1.00  0.00     0.030 A 
HETATM   22  C   UNL     1      39.647 -13.272   3.396  1.00  0.00     0.011 A 
BRANCH  20  23
HETATM   23  N   UNL     1      38.750 -14.414   0.009  1.00  0.00    -0.309 N 
HETATM   24  C   UNL     1      39.268 -14.041  -1.196  1.00  0.00     0.321 C 
HETATM   25  N   UNL     1      40.448 -13.361  -1.182  1.00  0.00    -0.339 N 
HETATM   26  O   UNL     1      38.625 -14.275  -2.216  1.00  0.00    -0.247 OA
HETATM   27  H   UNL     1      40.585 -12.829  -0.334  1.00  0.00     0.164 HD
HETATM   28  H   UNL     1      37.785 -14.706  -0.093  1.00  0.00     0.170 HD
BRANCH  25  29
HETATM   29  C   UNL     1      41.082 -12.799  -2.369  1.00  0.00     0.078 C 
HETATM   30  C   UNL     1      40.652 -11.363  -2.661  1.00  0.00     0.032 C 
HETATM   31  C   UNL     1      42.602 -12.931  -2.314  1.00  0.00     0.032 C 
ENDBRANCH  25  29
ENDBRANCH  20  23
ENDBRANCH   1  17
TORSDOF 5
ENDMDL
MODEL 6
REMARK VINA RESULT:      -7.9      6.468      9.841
REMARK  5 active torsions:
REMARK  status: ('A' for Active; 'I' for Inactive)
REMARK    1  A    between atoms: C_9  and  C_10 
REMARK       I    between atoms: C_10  and  N_11 
REMARK    2  A    between atoms: N_11  and  C_12 
REMARK    3  A    between atoms: C_12  and  C_13 
REMARK    4  A    between atoms: C_16  and  N_17 
REMARK       I    between atoms: N_17  and  C_18 
REMARK       I    between atoms: C_18  and  N_19 
REMARK    5  A    between atoms: N_19  and  C_20 
ROOT
HETATM    1  C   UNL     1      44.878 -13.594   7.807  1.00  0.00     0.161 C 
ENDROOT
BRANCH   1   2
HETATM    2  N   UNL     1      43.974 -12.549   8.201  1.00  0.00    -0.351 N 
HETATM    3  C   UNL     1      44.300 -11.576   9.115  1.00  0.00     0.273 C 
HETATM    4  O   UNL     1      45.395 -11.508   9.665  1.00  0.00    -0.266 OA
HETATM    5  H   UNL     1      43.037 -12.490   7.810  1.00  0.00     0.163 HD
BRANCH   3   6
HETATM    6  C   UNL     1      43.195 -10.636   9.365  1.00  0.00     0.157 A 
HETATM    7  C   UNL     1      42.838 -10.017  10.599  1.00  0.00     0.029 A 
HETATM    8  C   UNL     1      43.325 -10.031  11.921  1.00  0.00     0.023 A 
HETATM    9  C   UNL     1      41.728  -9.236  10.303  1.00  0.00     0.063 A 
HETATM   10  C   UNL     1      42.679  -9.263  12.904  1.00  0.00    -0.061 A 
HETATM   11  C   UNL     1      43.182  -9.256  14.318  1.00  0.00     0.048 C 
HETATM   12  C   UNL     1      41.562  -8.488  12.561  1.00  0.00     0.009 A 
HETATM   13  C   UNL     1      41.063  -8.459  11.255  1.00  0.00     0.032 A 
HETATM   14  N   UNL     1      41.499  -9.424   8.969  1.00  0.00    -0.277 N 
HETATM   15  H   UNL     1      40.764  -9.007   8.410  1.00  0.00     0.189 HD
HETATM   16  N   UNL     1      42.361 -10.260   8.368  1.00  0.00    -0.168 NA
ENDBRANCH   3   6
ENDBRANCH   1   2
BRANCH   1  17
HETATM   17  C   UNL     1      44.226 -14.477   6.778  1.00  0.00    -0.040 A 
HETATM   18  C   UNL     1      43.962 -15.824   7.050  1.00  0.00     0.011 A 
HETATM   19  C   UNL     1      43.443 -16.664   6.057  1.00  0.00     0.030 A 
HETATM   20  C   UNL     1      43.208 -16.179   4.769  1.00  0.00     0.036 A 
HETATM   21  C   UNL     1      43.424 -14.821   4.511  1.00  0.00     0.030 A 
HETATM   22  C   UNL     1      43.940 -13.979   5.501  1.00  0.00     0.011 A 
BRANCH  20  23
HETATM   23  N   UNL     1      42.736 -16.960   3.699  1.00  0.00    -0.309 N 
HETATM   24  C   UNL     1      42.881 -18.279   3.379  1.00  0.00     0.321 C 
HETATM   25  N   UNL     1      43.836 -18.980   4.050  1.00  0.00    -0.339 N 
HETATM   26  O   UNL     1      42.199 -18.746   2.471  1.00  0.00    -0.247 OA
HETATM   27  H   UNL     1      44.601 -18.401   4.364  1.00  0.00     0.164 HD
HETATM   28  H   UNL     1      42.173 -16.485   3.005  1.00  0.00     0.170 HD
BRANCH  25  29
HETATM   29  C   UNL     1      44.190 -20.364   3.758  1.00  0.00     0.078 C 
HETATM   30  C   UNL     1      45.023 -20.517   2.486  1.00  0.00     0.032 C 
HETATM   31  C   UNL     1      44.857 -21.041   4.952  1.00  0.00     0.032 C 
ENDBRANCH  25  29
ENDBRANCH  20  23
ENDBRANCH   1  17
TORSDOF 5
ENDMDL
MODEL 7
REMARK VINA RESULT:      -7.9      3.378      9.267
REMARK  5 active torsions:
REMARK  status: ('A' for Active; 'I' for Inactive)
REMARK    1  A    between atoms: C_9  and  C_10 
REMARK       I    between atoms: C_10  and  N_11 
REMARK    2  A    between atoms: N_11  and  C_12 
REMARK    3  A    between atoms: C_12  and  C_13 
REMARK    4  A    between atoms: C_16  and  N_17 
REMARK       I    between atoms: N_17  and  C_18 
REMARK       I    between atoms: C_18  and  N_19 
REMARK    5  A    between atoms: N_19  and  C_20 
ROOT
HETATM    1  C   UNL     1      41.494 -16.284  -0.270  1.00  0.00     0.161 C 
ENDROOT
BRANCH   1   2
HETATM    2  N   UNL     1      41.861 -14.897  -0.199  1.00  0.00    -0.351 N 
HETATM    3  C   UNL     1      40.945 -13.882  -0.061  1.00  0.00     0.273 C 
HETATM    4  O   UNL     1      39.736 -14.073   0.026  1.00  0.00    -0.266 OA
HETATM    5  H   UNL     1      42.835 -14.609  -0.250  1.00  0.00     0.163 HD
BRANCH   3   6
HETATM    6  C   UNL     1      41.571 -12.550  -0.036  1.00  0.00     0.157 A 
HETATM    7  C   UNL     1      41.962 -11.749  -1.150  1.00  0.00     0.029 A 
HETATM    8  C   UNL     1      41.918 -11.868  -2.552  1.00  0.00     0.023 A 
HETATM    9  C   UNL     1      42.508 -10.599  -0.592  1.00  0.00     0.063 A 
HETATM   10  C   UNL     1      42.426 -10.830  -3.351  1.00  0.00    -0.061 A 
HETATM   11  C   UNL     1      42.384 -10.930  -4.849  1.00  0.00     0.048 C 
HETATM   12  C   UNL     1      42.966  -9.686  -2.748  1.00  0.00     0.009 A 
HETATM   13  C   UNL     1      43.019  -9.547  -1.357  1.00  0.00     0.032 A 
HETATM   14  N   UNL     1      42.412 -10.771   0.759  1.00  0.00    -0.277 N 
HETATM   15  H   UNL     1      42.714 -10.128   1.482  1.00  0.00     0.189 HD
HETATM   16  N   UNL     1      41.853 -11.933   1.135  1.00  0.00    -0.168 NA
ENDBRANCH   3   6
ENDBRANCH   1   2
BRANCH   1  17
HETATM   17  C   UNL     1      42.122 -17.042   0.868  1.00  0.00    -0.040 A 
HETATM   18  C   UNL     1      41.419 -17.267   2.058  1.00  0.00     0.011 A 
HETATM   19  C   UNL     1      42.041 -17.889   3.147  1.00  0.00     0.030 A 
HETATM   20  C   UNL     1      43.383 -18.269   3.076  1.00  0.00     0.036 A 
HETATM   21  C   UNL     1      44.070 -18.090   1.871  1.00  0.00     0.030 A 
HETATM   22  C   UNL     1      43.452 -17.471   0.781  1.00  0.00     0.011 A 
BRANCH  20  23
HETATM   23  N   UNL     1      44.100 -18.853   4.135  1.00  0.00    -0.309 N 
HETATM   24  C   UNL     1      44.312 -18.478   5.430  1.00  0.00     0.321 C 
HETATM   25  N   UNL     1      43.992 -17.198   5.767  1.00  0.00    -0.339 N 
HETATM   26  O   UNL     1      44.833 -19.280   6.201  1.00  0.00    -0.247 OA
HETATM   27  H   UNL     1      44.061 -16.558   4.989  1.00  0.00     0.164 HD
HETATM   28  H   UNL     1      44.569 -19.728   3.936  1.00  0.00     0.170 HD
BRANCH  25  29
HETATM   29  C   UNL     1      44.254 -16.607   7.074  1.00  0.00     0.078 C 
HETATM   30  C   UNL     1      44.338 -15.083   7.041  1.00  0.00     0.032 C 
HETATM   31  C   UNL     1      43.257 -17.093   8.124  1.00  0.00     0.032 C 
ENDBRANCH  25  29
ENDBRANCH  20  23
ENDBRANCH   1  17
TORSDOF 5
ENDMDL
MODEL 8
REMARK VINA RESULT:      -7.8      2.786      4.176
REMARK  5 active torsions:
REMARK  status: ('A' for Active; 'I' for Inactive)
REMARK    1  A    between atoms: C_9  and  C_10 
REMARK       I    between atoms: C_10  and  N_11 
REMARK    2  A    between atoms: N_11  and  C_12 
REMARK    3  A    between atoms: C_12  and  C_13 
REMARK    4  A    between atoms: C_16  and  N_17 
REMARK       I    between atoms: N_17  and  C_18 
REMARK       I    between atoms: C_18  and  N_19 
REMARK    5  A    between atoms: N_19  and  C_20 
ROOT
HETATM    1  C   UNL     1      42.836 -17.448   7.388  1.00  0.00     0.161 C 
ENDROOT
BRANCH   1   2
HETATM    2  N   UNL     1      43.244 -18.476   6.471  1.00  0.00    -0.351 N 
HETATM    3  C   UNL     1      43.802 -19.665   6.873  1.00  0.00     0.273 C 
HETATM    4  O   UNL     1      43.990 -19.957   8.050  1.00  0.00    -0.266 OA
HETATM    5  H   UNL     1      43.132 -18.358   5.467  1.00  0.00     0.163 HD
BRANCH   3   6
HETATM    6  C   UNL     1      44.154 -20.540   5.742  1.00  0.00     0.157 A 
HETATM    7  C   UNL     1      44.095 -20.232   4.350  1.00  0.00     0.029 A 
HETATM    8  C   UNL     1      43.733 -19.116   3.571  1.00  0.00     0.023 A 
HETATM    9  C   UNL     1      44.518 -21.389   3.708  1.00  0.00     0.063 A 
HETATM   10  C   UNL     1      43.805 -19.198   2.170  1.00  0.00    -0.061 A 
HETATM   11  C   UNL     1      43.431 -18.020   1.317  1.00  0.00     0.048 C 
HETATM   12  C   UNL     1      44.239 -20.384   1.562  1.00  0.00     0.009 A 
HETATM   13  C   UNL     1      44.603 -21.504   2.318  1.00  0.00     0.032 A 
HETATM   14  N   UNL     1      44.795 -22.278   4.707  1.00  0.00    -0.277 N 
HETATM   15  H   UNL     1      45.128 -23.229   4.605  1.00  0.00     0.189 HD
HETATM   16  N   UNL     1      44.589 -21.804   5.947  1.00  0.00    -0.168 NA
ENDBRANCH   3   6
ENDBRANCH   1   2
BRANCH   1  17
HETATM   17  C   UNL     1      42.368 -16.236   6.628  1.00  0.00    -0.040 A 
HETATM   18  C   UNL     1      41.020 -16.079   6.283  1.00  0.00     0.011 A 
HETATM   19  C   UNL     1      40.607 -14.999   5.496  1.00  0.00     0.030 A 
HETATM   20  C   UNL     1      41.536 -14.074   5.015  1.00  0.00     0.036 A 
HETATM   21  C   UNL     1      42.875 -14.202   5.402  1.00  0.00     0.030 A 
HETATM   22  C   UNL     1      43.291 -15.279   6.190  1.00  0.00     0.011 A 
BRANCH  20  23
HETATM   23  N   UNL     1      41.218 -12.989   4.179  1.00  0.00    -0.309 N 
HETATM   24  C   UNL     1      40.801 -12.908   2.883  1.00  0.00     0.321 C 
HETATM   25  N   UNL     1      40.912 -14.032   2.123  1.00  0.00    -0.339 N 
HETATM   26  O   UNL     1      40.414 -11.825   2.452  1.00  0.00    -0.247 OA
HETATM   27  H   UNL     1      41.660 -14.639   2.424  1.00  0.00     0.164 HD
HETATM   28  H   UNL     1      41.305 -12.064   4.584  1.00  0.00     0.170 HD
BRANCH  25  29
HETATM   29  C   UNL     1      40.612 -14.087   0.697  1.00  0.00     0.078 C 
HETATM   30  C   UNL     1      41.388 -15.177  -0.041  1.00  0.00     0.032 C 
HETATM   31  C   UNL     1      39.112 -14.192   0.438  1.00  0.00     0.032 C 
ENDBRANCH  25  29
ENDBRANCH  20  23
ENDBRANCH   1  17
TORSDOF 5
ENDMDL
MODEL 9
REMARK VINA RESULT:      -7.5      4.004      5.368
REMARK  5 active torsions:
REMARK  status: ('A' for Active; 'I' for Inactive)
REMARK    1  A    between atoms: C_9  and  C_10 
REMARK       I    between atoms: C_10  and  N_11 
REMARK    2  A    between atoms: N_11  and  C_12 
REMARK    3  A    between atoms: C_12  and  C_13 
REMARK    4  A    between atoms: C_16  and  N_17 
REMARK       I    between atoms: N_17  and  C_18 
REMARK       I    between atoms: C_18  and  N_19 
REMARK    5  A    between atoms: N_19  and  C_20 
ROOT
HETATM    1  C   UNL     1      42.532 -17.056   7.212  1.00  0.00     0.161 C 
ENDROOT
BRANCH   1   2
HETATM    2  N   UNL     1      42.992 -18.144   6.394  1.00  0.00    -0.351 N 
HETATM    3  C   UNL     1      43.709 -19.206   6.890  1.00  0.00     0.273 C 
HETATM    4  O   UNL     1      44.009 -19.324   8.074  1.00  0.00    -0.266 OA
HETATM    5  H   UNL     1      42.799 -18.168   5.397  1.00  0.00     0.163 HD
BRANCH   3   6
HETATM    6  C   UNL     1      44.082 -20.177   5.846  1.00  0.00     0.157 A 
HETATM    7  C   UNL     1      44.078 -19.983   4.433  1.00  0.00     0.029 A 
HETATM    8  C   UNL     1      43.766 -18.928   3.553  1.00  0.00     0.023 A 
HETATM    9  C   UNL     1      44.499 -21.196   3.902  1.00  0.00     0.063 A 
HETATM   10  C   UNL     1      43.885 -19.126   2.167  1.00  0.00    -0.061 A 
HETATM   11  C   UNL     1      43.565 -18.015   1.209  1.00  0.00     0.048 C 
HETATM   12  C   UNL     1      44.314 -20.365   1.674  1.00  0.00     0.009 A 
HETATM   13  C   UNL     1      44.629 -21.425   2.530  1.00  0.00     0.032 A 
HETATM   14  N   UNL     1      44.722 -22.005   4.980  1.00  0.00    -0.277 N 
HETATM   15  H   UNL     1      45.039 -22.967   4.968  1.00  0.00     0.189 HD
HETATM   16  N   UNL     1      44.483 -21.428   6.169  1.00  0.00    -0.168 NA
ENDBRANCH   3   6
ENDBRANCH   1   2
BRANCH   1  17
HETATM   17  C   UNL     1      42.128 -15.895   6.344  1.00  0.00    -0.040 A 
HETATM   18  C   UNL     1      40.779 -15.598   6.122  1.00  0.00     0.011 A 
HETATM   19  C   UNL     1      40.409 -14.577   5.239  1.00  0.00     0.030 A 
HETATM   20  C   UNL     1      41.380 -13.855   4.542  1.00  0.00     0.036 A 
HETATM   21  C   UNL     1      42.729 -14.118   4.802  1.00  0.00     0.030 A 
HETATM   22  C   UNL     1      43.102 -15.136   5.684  1.00  0.00     0.011 A 
BRANCH  20  23
HETATM   23  N   UNL     1      41.099 -12.849   3.601  1.00  0.00    -0.309 N 
HETATM   24  C   UNL     1      40.906 -11.503   3.712  1.00  0.00     0.321 C 
HETATM   25  N   UNL     1      40.705 -11.005   4.963  1.00  0.00    -0.339 N 
HETATM   26  O   UNL     1      40.858 -10.825   2.689  1.00  0.00    -0.247 OA
HETATM   27  H   UNL     1      40.286 -11.676   5.591  1.00  0.00     0.164 HD
HETATM   28  H   UNL     1      41.015 -13.143   2.635  1.00  0.00     0.170 HD
BRANCH  25  29
HETATM   29  C   UNL     1      40.379  -9.612   5.246  1.00  0.00     0.078 C 
HETATM   30  C   UNL     1      39.358  -9.448   6.371  1.00  0.00     0.032 C 
HETATM   31  C   UNL     1      41.632  -8.778   5.497  1.00  0.00     0.032 C 
ENDBRANCH  25  29
ENDBRANCH  20  23
ENDBRANCH   1  17
TORSDOF 5
ENDMDL
MODEL 10
REMARK VINA RESULT:      -7.5      6.337      8.882
REMARK  5 active torsions:
REMARK  status: ('A' for Active; 'I' for Inactive)
REMARK    1  A    between atoms: C_9  and  C_10 
REMARK       I    between atoms: C_10  and  N_11 
REMARK    2  A    between atoms: N_11  and  C_12 
REMARK    3  A    between atoms: C_12  and  C_13 
REMARK    4  A    between atoms: C_16  and  N_17 
REMARK       I    between atoms: N_17  and  C_18 
REMARK       I    between atoms: C_18  and  N_19 
REMARK    5  A    between atoms: N_19  and  C_20 
ROOT
HETATM    1  C   UNL     1      44.952 -13.833   7.551  1.00  0.00     0.161 C 
ENDROOT
BRANCH   1   2
HETATM    2  N   UNL     1      44.130 -12.714   7.921  1.00  0.00    -0.351 N 
HETATM    3  C   UNL     1      44.210 -12.094   9.145  1.00  0.00     0.273 C 
HETATM    4  O   UNL     1      44.997 -12.433  10.023  1.00  0.00    -0.266 OA
HETATM    5  H   UNL     1      43.444 -12.332   7.276  1.00  0.00     0.163 HD
BRANCH   3   6
HETATM    6  C   UNL     1      43.248 -10.988   9.286  1.00  0.00     0.157 A 
HETATM    7  C   UNL     1      42.954 -10.232  10.459  1.00  0.00     0.029 A 
HETATM    8  C   UNL     1      43.399 -10.215  11.795  1.00  0.00     0.023 A 
HETATM    9  C   UNL     1      41.977  -9.324  10.067  1.00  0.00     0.063 A 
HETATM   10  C   UNL     1      42.847  -9.289  12.697  1.00  0.00    -0.061 A 
HETATM   11  C   UNL     1      43.309  -9.247  14.124  1.00  0.00     0.048 C 
HETATM   12  C   UNL     1      41.865  -8.390  12.259  1.00  0.00     0.009 A 
HETATM   13  C   UNL     1      41.409  -8.390  10.936  1.00  0.00     0.032 A 
HETATM   14  N   UNL     1      41.758  -9.578   8.743  1.00  0.00    -0.277 N 
HETATM   15  H   UNL     1      41.106  -9.104   8.129  1.00  0.00     0.189 HD
HETATM   16  N   UNL     1      42.504 -10.573   8.235  1.00  0.00    -0.168 NA
ENDBRANCH   3   6
ENDBRANCH   1   2
BRANCH   1  17
HETATM   17  C   UNL     1      44.280 -14.627   6.464  1.00  0.00    -0.040 A 
HETATM   18  C   UNL     1      44.004 -14.052   5.218  1.00  0.00     0.011 A 
HETATM   19  C   UNL     1      43.295 -14.765   4.245  1.00  0.00     0.030 A 
HETATM   20  C   UNL     1      42.825 -16.053   4.509  1.00  0.00     0.036 A 
HETATM   21  C   UNL     1      43.145 -16.647   5.735  1.00  0.00     0.030 A 
HETATM   22  C   UNL     1      43.854 -15.939   6.709  1.00  0.00     0.011 A 
BRANCH  20  23
HETATM   23  N   UNL     1      42.064 -16.821   3.611  1.00  0.00    -0.309 N 
HETATM   24  C   UNL     1      41.309 -16.497   2.522  1.00  0.00     0.321 C 
HETATM   25  N   UNL     1      41.002 -15.182   2.347  1.00  0.00    -0.339 N 
HETATM   26  O   UNL     1      40.895 -17.399   1.799  1.00  0.00    -0.247 OA
HETATM   27  H   UNL     1      40.967 -14.668   3.215  1.00  0.00     0.164 HD
HETATM   28  H   UNL     1      42.047 -17.821   3.772  1.00  0.00     0.170 HD
BRANCH  25  29
HETATM   29  C   UNL     1      40.121 -14.681   1.299  1.00  0.00     0.078 C 
HETATM   30  C   UNL     1      38.639 -14.800   1.649  1.00  0.00     0.032 C 
HETATM   31  C   UNL     1      40.488 -13.259   0.884  1.00  0.00     0.032 C 
ENDBRANCH  25  29
ENDBRANCH  20  23
ENDBRANCH   1  17
TORSDOF 5
ENDMDL
