MODEL 1
REMARK VINA RESULT:      -9.1      0.000      0.000
REMARK  4 active torsions:
REMARK  status: ('A' for Active; 'I' for Inactive)
REMARK    1  A    between atoms: C_4  and  C_5 
REMARK    2  A    between atoms: C_8  and  C_9 
REMARK    3  A    between atoms: C_9  and  N_10 
REMARK    4  A    between atoms: N_10  and  C_11 
ROOT
HETATM    1  C   UNL     1      43.092 -14.402   5.985  1.00  0.00     0.158 C 
ENDROOT
BRANCH   1   2
HETATM    2  C   UNL     1      43.396 -15.738   5.357  1.00  0.00    -0.041 A 
HETATM    3  C   UNL     1      43.943 -16.777   6.119  1.00  0.00     0.009 A 
HETATM    4  C   UNL     1      44.178 -18.031   5.543  1.00  0.00     0.013 A 
HETATM    5  C   UNL     1      43.879 -18.282   4.194  1.00  0.00    -0.026 A 
HETATM    6  C   UNL     1      43.369 -17.219   3.430  1.00  0.00     0.013 A 
HETATM    7  C   UNL     1      43.136 -15.962   4.001  1.00  0.00     0.009 A 
BRANCH   5   8
HETATM    8  C   UNL     1      44.067 -19.621   3.606  1.00  0.00    -0.026 A 
HETATM    9  C   UNL     1      44.667 -20.656   4.346  1.00  0.00     0.012 A 
HETATM   10  C   UNL     1      44.832 -21.934   3.804  1.00  0.00     0.001 A 
HETATM   11  C   UNL     1      44.396 -22.202   2.509  1.00  0.00     0.000 A 
HETATM   12  C   UNL     1      43.800 -21.194   1.757  1.00  0.00     0.001 A 
HETATM   13  C   UNL     1      43.638 -19.915   2.301  1.00  0.00     0.012 A 
ENDBRANCH   5   8
ENDBRANCH   1   2
BRANCH   1  14
HETATM   14  N   UNL     1      43.689 -14.326   7.310  1.00  0.00    -0.384 N 
HETATM   15  H   UNL     1      42.964 -14.325   8.031  1.00  0.00     0.160 HD
BRANCH  14  16
HETATM   16  C   UNL     1      44.761 -13.488   7.605  1.00  0.00     0.060 A 
HETATM   17  C   UNL     1      44.812 -12.451   8.548  1.00  0.00     0.106 A 
HETATM   18  C   UNL     1      45.924 -11.634   8.704  1.00  0.00     0.158 A 
HETATM   19  N   UNL     1      43.935 -11.945   9.482  1.00  0.00    -0.346 N 
HETATM   20  N   UNL     1      45.765 -10.699   9.678  1.00  0.00    -0.224 NA
HETATM   21  N   UNL     1      47.022 -11.817   7.908  1.00  0.00    -0.349 N 
HETATM   22  C   UNL     1      44.550 -10.908  10.132  1.00  0.00     0.210 A 
HETATM   23  H   UNL     1      47.815 -11.196   8.051  1.00  0.00     0.167 HD
HETATM   24  C   UNL     1      47.025 -12.764   6.974  1.00  0.00     0.092 A 
HETATM   25  C   UNL     1      45.917 -13.591   6.803  1.00  0.00     0.048 A 
HETATM   26  H   UNL     1      42.996 -12.266   9.670  1.00  0.00     0.167 HD
ENDBRANCH  14  16
ENDBRANCH   1  14
TORSDOF 4
ENDMDL
MODEL 2
REMARK VINA RESULT:      -8.9      5.184      7.520
REMARK  4 active torsions:
REMARK  status: ('A' for Active; 'I' for Inactive)
REMARK    1  A    between atoms: C_4  and  C_5 
REMARK    2  A    between atoms: C_8  and  C_9 
REMARK    3  A    between atoms: C_9  and  N_10 
REMARK    4  A    between atoms: N_10  and  C_11 
ROOT
HETATM    1  C   UNL     1      42.516 -14.405   2.156  1.00  0.00     0.158 C 
ENDROOT
BRANCH   1   2
HETATM    2  C   UNL     1      42.985 -15.814   2.415  1.00  0.00    -0.041 A 
HETATM    3  C   UNL     1      43.165 -16.278   3.723  1.00  0.00     0.009 A 
HETATM    4  C   UNL     1      43.554 -17.601   3.960  1.00  0.00     0.013 A 
HETATM    5  C   UNL     1      43.778 -18.496   2.901  1.00  0.00    -0.026 A 
HETATM    6  C   UNL     1      43.633 -18.008   1.592  1.00  0.00     0.013 A 
HETATM    7  C   UNL     1      43.249 -16.683   1.350  1.00  0.00     0.009 A 
BRANCH   5   8
HETATM    8  C   UNL     1      44.124 -19.907   3.154  1.00  0.00    -0.026 A 
HETATM    9  C   UNL     1      44.586 -20.322   4.416  1.00  0.00     0.012 A 
HETATM   10  C   UNL     1      44.899 -21.660   4.670  1.00  0.00     0.001 A 
HETATM   11  C   UNL     1      44.752 -22.612   3.664  1.00  0.00     0.000 A 
HETATM   12  C   UNL     1      44.297 -22.226   2.407  1.00  0.00     0.001 A 
HETATM   13  C   UNL     1      43.987 -20.885   2.154  1.00  0.00     0.012 A 
ENDBRANCH   5   8
ENDBRANCH   1   2
BRANCH   1  14
HETATM   14  N   UNL     1      41.420 -14.412   1.198  1.00  0.00    -0.384 N 
HETATM   15  H   UNL     1      40.912 -15.298   1.240  1.00  0.00     0.160 HD
BRANCH  14  16
HETATM   16  C   UNL     1      41.547 -13.909  -0.093  1.00  0.00     0.060 A 
HETATM   17  C   UNL     1      41.248 -14.551  -1.303  1.00  0.00     0.106 A 
HETATM   18  C   UNL     1      41.482 -13.966  -2.541  1.00  0.00     0.158 A 
HETATM   19  N   UNL     1      40.722 -15.777  -1.647  1.00  0.00    -0.346 N 
HETATM   20  N   UNL     1      41.113 -14.757  -3.582  1.00  0.00    -0.224 NA
HETATM   21  N   UNL     1      42.042 -12.719  -2.611  1.00  0.00    -0.349 N 
HETATM   22  C   UNL     1      40.657 -15.851  -3.013  1.00  0.00     0.210 A 
HETATM   23  H   UNL     1      42.202 -12.327  -3.535  1.00  0.00     0.167 HD
HETATM   24  C   UNL     1      42.377 -12.069  -1.499  1.00  0.00     0.092 A 
HETATM   25  C   UNL     1      42.149 -12.643  -0.251  1.00  0.00     0.048 A 
HETATM   26  H   UNL     1      40.431 -16.511  -1.016  1.00  0.00     0.167 HD
ENDBRANCH  14  16
ENDBRANCH   1  14
TORSDOF 4
ENDMDL
MODEL 3
REMARK VINA RESULT:      -8.6      5.482      7.477
REMARK  4 active torsions:
REMARK  status: ('A' for Active; 'I' for Inactive)
REMARK    1  A    between atoms: C_4  and  C_5 
REMARK    2  A    between atoms: C_8  and  C_9 
REMARK    3  A    between atoms: C_9  and  N_10 
REMARK    4  A    between atoms: N_10  and  C_11 
ROOT
HETATM    1  C   UNL     1      42.104 -14.649   1.619  1.00  0.00     0.158 C 
ENDROOT
BRANCH   1   2
HETATM    2  C   UNL     1      42.656 -15.998   2.003  1.00  0.00    -0.041 A 
HETATM    3  C   UNL     1      42.720 -16.388   3.345  1.00  0.00     0.009 A 
HETATM    4  C   UNL     1      43.188 -17.660   3.693  1.00  0.00     0.013 A 
HETATM    5  C   UNL     1      43.609 -18.576   2.715  1.00  0.00    -0.026 A 
HETATM    6  C   UNL     1      43.578 -18.158   1.374  1.00  0.00     0.013 A 
HETATM    7  C   UNL     1      43.114 -16.885   1.022  1.00  0.00     0.009 A 
BRANCH   5   8
HETATM    8  C   UNL     1      44.040 -19.938   3.079  1.00  0.00    -0.026 A 
HETATM    9  C   UNL     1      44.524 -20.222   4.369  1.00  0.00     0.012 A 
HETATM   10  C   UNL     1      44.917 -21.514   4.728  1.00  0.00     0.001 A 
HETATM   11  C   UNL     1      44.831 -22.550   3.802  1.00  0.00     0.000 A 
HETATM   12  C   UNL     1      44.357 -22.294   2.519  1.00  0.00     0.001 A 
HETATM   13  C   UNL     1      43.966 -21.000   2.161  1.00  0.00     0.012 A 
ENDBRANCH   5   8
ENDBRANCH   1   2
BRANCH   1  14
HETATM   14  N   UNL     1      41.118 -14.797   0.559  1.00  0.00    -0.384 N 
HETATM   15  H   UNL     1      40.592 -15.665   0.675  1.00  0.00     0.160 HD
BRANCH  14  16
HETATM   16  C   UNL     1      41.394 -14.493  -0.772  1.00  0.00     0.060 A 
HETATM   17  C   UNL     1      41.942 -13.311  -1.291  1.00  0.00     0.106 A 
HETATM   18  C   UNL     1      42.108 -13.097  -2.653  1.00  0.00     0.158 A 
HETATM   19  N   UNL     1      42.417 -12.140  -0.745  1.00  0.00    -0.346 N 
HETATM   20  N   UNL     1      42.664 -11.890  -2.939  1.00  0.00    -0.224 NA
HETATM   21  N   UNL     1      41.714 -14.055  -3.548  1.00  0.00    -0.349 N 
HETATM   22  C   UNL     1      42.839 -11.328  -1.764  1.00  0.00     0.210 A 
HETATM   23  H   UNL     1      41.848 -13.859  -4.536  1.00  0.00     0.167 HD
HETATM   24  C   UNL     1      41.158 -15.186  -3.120  1.00  0.00     0.092 A 
HETATM   25  C   UNL     1      40.984 -15.415  -1.757  1.00  0.00     0.048 A 
HETATM   26  H   UNL     1      42.454 -11.898   0.236  1.00  0.00     0.167 HD
ENDBRANCH  14  16
ENDBRANCH   1  14
TORSDOF 4
ENDMDL
MODEL 4
REMARK VINA RESULT:      -8.5      4.531      6.991
REMARK  4 active torsions:
REMARK  status: ('A' for Active; 'I' for Inactive)
REMARK    1  A    between atoms: C_4  and  C_5 
REMARK    2  A    between atoms: C_8  and  C_9 
REMARK    3  A    between atoms: C_9  and  N_10 
REMARK    4  A    between atoms: N_10  and  C_11 
ROOT
HETATM    1  C   UNL     1      42.722 -14.146   3.256  1.00  0.00     0.158 C 
ENDROOT
BRANCH   1   2
HETATM    2  C   UNL     1      43.133 -15.596   3.276  1.00  0.00    -0.041 A 
HETATM    3  C   UNL     1      43.026 -16.353   4.449  1.00  0.00     0.009 A 
HETATM    4  C   UNL     1      43.364 -17.711   4.450  1.00  0.00     0.013 A 
HETATM    5  C   UNL     1      43.820 -18.350   3.286  1.00  0.00    -0.026 A 
HETATM    6  C   UNL     1      43.962 -17.571   2.126  1.00  0.00     0.013 A 
HETATM    7  C   UNL     1      43.630 -16.211   2.121  1.00  0.00     0.009 A 
BRANCH   5   8
HETATM    8  C   UNL     1      44.113 -19.796   3.274  1.00  0.00    -0.026 A 
HETATM    9  C   UNL     1      44.610 -20.442   4.420  1.00  0.00     0.012 A 
HETATM   10  C   UNL     1      44.872 -21.814   4.423  1.00  0.00     0.001 A 
HETATM   11  C   UNL     1      44.640 -22.570   3.277  1.00  0.00     0.000 A 
HETATM   12  C   UNL     1      44.150 -21.953   2.130  1.00  0.00     0.001 A 
HETATM   13  C   UNL     1      43.890 -20.578   2.128  1.00  0.00     0.012 A 
ENDBRANCH   5   8
ENDBRANCH   1   2
BRANCH   1  14
HETATM   14  N   UNL     1      42.482 -13.714   1.887  1.00  0.00    -0.384 N 
HETATM   15  H   UNL     1      42.825 -12.762   1.746  1.00  0.00     0.160 HD
BRANCH  14  16
HETATM   16  C   UNL     1      41.294 -13.979   1.212  1.00  0.00     0.060 A 
HETATM   17  C   UNL     1      41.107 -14.167  -0.165  1.00  0.00     0.106 A 
HETATM   18  C   UNL     1      39.855 -14.359  -0.732  1.00  0.00     0.158 A 
HETATM   19  N   UNL     1      41.941 -14.210  -1.260  1.00  0.00    -0.346 N 
HETATM   20  N   UNL     1      39.901 -14.529  -2.080  1.00  0.00    -0.224 NA
HETATM   21  N   UNL     1      38.738 -14.351   0.060  1.00  0.00    -0.349 N 
HETATM   22  C   UNL     1      41.178 -14.432  -2.375  1.00  0.00     0.210 A 
HETATM   23  H   UNL     1      37.839 -14.491  -0.394  1.00  0.00     0.167 HD
HETATM   24  C   UNL     1      38.845 -14.147   1.370  1.00  0.00     0.092 A 
HETATM   25  C   UNL     1      40.094 -13.952   1.954  1.00  0.00     0.048 A 
HETATM   26  H   UNL     1      42.946 -14.096  -1.263  1.00  0.00     0.167 HD
ENDBRANCH  14  16
ENDBRANCH   1  14
TORSDOF 4
ENDMDL
MODEL 5
REMARK VINA RESULT:      -8.5      6.325      8.972
REMARK  4 active torsions:
REMARK  status: ('A' for Active; 'I' for Inactive)
REMARK    1  A    between atoms: C_4  and  C_5 
REMARK    2  A    between atoms: C_8  and  C_9 
REMARK    3  A    between atoms: C_9  and  N_10 
REMARK    4  A    between atoms: N_10  and  C_11 
ROOT
HETATM    1  C   UNL     1      41.660 -14.589   0.491  1.00  0.00     0.158 C 
ENDROOT
BRANCH   1   2
HETATM    2  C   UNL     1      42.163 -15.878   1.088  1.00  0.00    -0.041 A 
HETATM    3  C   UNL     1      41.343 -17.012   1.134  1.00  0.00     0.009 A 
HETATM    4  C   UNL     1      41.830 -18.219   1.645  1.00  0.00     0.013 A 
HETATM    5  C   UNL     1      43.145 -18.330   2.128  1.00  0.00    -0.026 A 
HETATM    6  C   UNL     1      43.944 -17.175   2.114  1.00  0.00     0.013 A 
HETATM    7  C   UNL     1      43.459 -15.963   1.608  1.00  0.00     0.009 A 
BRANCH   5   8
HETATM    8  C   UNL     1      43.677 -19.620   2.606  1.00  0.00    -0.026 A 
HETATM    9  C   UNL     1      43.605 -20.772   1.803  1.00  0.00     0.012 A 
HETATM   10  C   UNL     1      44.124 -21.994   2.241  1.00  0.00     0.001 A 
HETATM   11  C   UNL     1      44.728 -22.086   3.491  1.00  0.00     0.000 A 
HETATM   12  C   UNL     1      44.810 -20.959   4.304  1.00  0.00     0.001 A 
HETATM   13  C   UNL     1      44.288 -19.738   3.865  1.00  0.00     0.012 A 
ENDBRANCH   5   8
ENDBRANCH   1   2
BRANCH   1  14
HETATM   14  N   UNL     1      41.843 -14.602  -0.952  1.00  0.00    -0.384 N 
HETATM   15  H   UNL     1      42.776 -14.267  -1.199  1.00  0.00     0.160 HD
BRANCH  14  16
HETATM   16  C   UNL     1      40.855 -14.186  -1.840  1.00  0.00     0.060 A 
HETATM   17  C   UNL     1      40.064 -14.979  -2.684  1.00  0.00     0.106 A 
HETATM   18  C   UNL     1      39.152 -14.439  -3.582  1.00  0.00     0.158 A 
HETATM   19  N   UNL     1      39.935 -16.332  -2.904  1.00  0.00    -0.346 N 
HETATM   20  N   UNL     1      38.486 -15.384  -4.296  1.00  0.00    -0.224 NA
HETATM   21  N   UNL     1      39.010 -13.081  -3.678  1.00  0.00    -0.349 N 
HETATM   22  C   UNL     1      38.981 -16.524  -3.868  1.00  0.00     0.210 A 
HETATM   23  H   UNL     1      38.335 -12.726  -4.349  1.00  0.00     0.167 HD
HETATM   24  C   UNL     1      39.753 -12.274  -2.926  1.00  0.00     0.092 A 
HETATM   25  C   UNL     1      40.673 -12.799  -2.022  1.00  0.00     0.048 A 
HETATM   26  H   UNL     1      40.448 -17.074  -2.447  1.00  0.00     0.167 HD
ENDBRANCH  14  16
ENDBRANCH   1  14
TORSDOF 4
ENDMDL
MODEL 6
REMARK VINA RESULT:      -8.3      6.343      8.160
REMARK  4 active torsions:
REMARK  status: ('A' for Active; 'I' for Inactive)
REMARK    1  A    between atoms: C_4  and  C_5 
REMARK    2  A    between atoms: C_8  and  C_9 
REMARK    3  A    between atoms: C_9  and  N_10 
REMARK    4  A    between atoms: N_10  and  C_11 
ROOT
HETATM    1  C   UNL     1      41.873 -15.395   0.720  1.00  0.00     0.158 C 
ENDROOT
BRANCH   1   2
HETATM    2  C   UNL     1      42.455 -16.584   1.440  1.00  0.00    -0.041 A 
HETATM    3  C   UNL     1      41.893 -17.039   2.638  1.00  0.00     0.009 A 
HETATM    4  C   UNL     1      42.407 -18.172   3.278  1.00  0.00     0.013 A 
HETATM    5  C   UNL     1      43.497 -18.880   2.745  1.00  0.00    -0.026 A 
HETATM    6  C   UNL     1      44.078 -18.389   1.564  1.00  0.00     0.013 A 
HETATM    7  C   UNL     1      43.570 -17.253   0.923  1.00  0.00     0.009 A 
BRANCH   5   8
HETATM    8  C   UNL     1      43.996 -20.110   3.386  1.00  0.00    -0.026 A 
HETATM    9  C   UNL     1      44.331 -20.128   4.752  1.00  0.00     0.012 A 
HETATM   10  C   UNL     1      44.786 -21.295   5.372  1.00  0.00     0.001 A 
HETATM   11  C   UNL     1      44.912 -22.470   4.636  1.00  0.00     0.000 A 
HETATM   12  C   UNL     1      44.587 -22.478   3.283  1.00  0.00     0.001 A 
HETATM   13  C   UNL     1      44.134 -21.308   2.664  1.00  0.00     0.012 A 
ENDBRANCH   5   8
ENDBRANCH   1   2
BRANCH   1  14
HETATM   14  N   UNL     1      41.551 -15.752  -0.654  1.00  0.00    -0.384 N 
HETATM   15  H   UNL     1      42.335 -16.240  -1.091  1.00  0.00     0.160 HD
BRANCH  14  16
HETATM   16  C   UNL     1      40.887 -14.888  -1.520  1.00  0.00     0.060 A 
HETATM   17  C   UNL     1      39.647 -14.260  -1.330  1.00  0.00     0.106 A 
HETATM   18  C   UNL     1      39.052 -13.468  -2.302  1.00  0.00     0.158 A 
HETATM   19  N   UNL     1      38.728 -14.218  -0.305  1.00  0.00    -0.346 N 
HETATM   20  N   UNL     1      37.858 -12.951  -1.909  1.00  0.00    -0.224 NA
HETATM   21  N   UNL     1      39.670 -13.289  -3.510  1.00  0.00    -0.349 N 
HETATM   22  C   UNL     1      37.684 -13.423  -0.696  1.00  0.00     0.210 A 
HETATM   23  H   UNL     1      39.200 -12.705  -4.197  1.00  0.00     0.167 HD
HETATM   24  C   UNL     1      40.834 -13.882  -3.764  1.00  0.00     0.092 A 
HETATM   25  C   UNL     1      41.444 -14.681  -2.800  1.00  0.00     0.048 A 
HETATM   26  H   UNL     1      38.792 -14.687   0.588  1.00  0.00     0.167 HD
ENDBRANCH  14  16
ENDBRANCH   1  14
TORSDOF 4
ENDMDL
MODEL 7
REMARK VINA RESULT:      -8.2      4.308      5.105
REMARK  4 active torsions:
REMARK  status: ('A' for Active; 'I' for Inactive)
REMARK    1  A    between atoms: C_4  and  C_5 
REMARK    2  A    between atoms: C_8  and  C_9 
REMARK    3  A    between atoms: C_9  and  N_10 
REMARK    4  A    between atoms: N_10  and  C_11 
ROOT
HETATM    1  C   UNL     1      41.560 -14.370   1.617  1.00  0.00     0.158 C 
ENDROOT
BRANCH   1   2
HETATM    2  C   UNL     1      42.134 -15.746   1.837  1.00  0.00    -0.041 A 
HETATM    3  C   UNL     1      43.389 -15.909   2.434  1.00  0.00     0.009 A 
HETATM    4  C   UNL     1      43.897 -17.189   2.681  1.00  0.00     0.013 A 
HETATM    5  C   UNL     1      43.171 -18.341   2.336  1.00  0.00    -0.026 A 
HETATM    6  C   UNL     1      41.930 -18.164   1.701  1.00  0.00     0.013 A 
HETATM    7  C   UNL     1      41.421 -16.886   1.448  1.00  0.00     0.009 A 
BRANCH   5   8
HETATM    8  C   UNL     1      43.679 -19.688   2.656  1.00  0.00    -0.026 A 
HETATM    9  C   UNL     1      43.538 -20.748   1.743  1.00  0.00     0.012 A 
HETATM   10  C   UNL     1      44.033 -22.023   2.029  1.00  0.00     0.001 A 
HETATM   11  C   UNL     1      44.683 -22.262   3.237  1.00  0.00     0.000 A 
HETATM   12  C   UNL     1      44.834 -21.229   4.157  1.00  0.00     0.001 A 
HETATM   13  C   UNL     1      44.335 -19.954   3.869  1.00  0.00     0.012 A 
ENDBRANCH   5   8
ENDBRANCH   1   2
BRANCH   1  14
HETATM   14  N   UNL     1      40.240 -14.277   2.223  1.00  0.00    -0.384 N 
HETATM   15  H   UNL     1      39.599 -13.769   1.611  1.00  0.00     0.160 HD
BRANCH  14  16
HETATM   16  C   UNL     1      40.051 -13.999   3.573  1.00  0.00     0.060 A 
HETATM   17  C   UNL     1      39.597 -12.806   4.154  1.00  0.00     0.106 A 
HETATM   18  C   UNL     1      39.513 -12.624   5.528  1.00  0.00     0.158 A 
HETATM   19  N   UNL     1      39.160 -11.594   3.665  1.00  0.00    -0.346 N 
HETATM   20  N   UNL     1      39.041 -11.398   5.875  1.00  0.00    -0.224 NA
HETATM   21  N   UNL     1      39.899 -13.629   6.374  1.00  0.00    -0.349 N 
HETATM   22  C   UNL     1      38.837 -10.792   4.728  1.00  0.00     0.210 A 
HETATM   23  H   UNL     1      39.827 -13.456   7.373  1.00  0.00     0.167 HD
HETATM   24  C   UNL     1      40.368 -14.775   5.886  1.00  0.00     0.092 A 
HETATM   25  C   UNL     1      40.459 -14.972   4.510  1.00  0.00     0.048 A 
HETATM   26  H   UNL     1      39.086 -11.321   2.695  1.00  0.00     0.167 HD
ENDBRANCH  14  16
ENDBRANCH   1  14
TORSDOF 4
ENDMDL
MODEL 8
REMARK VINA RESULT:      -8.2      4.167      5.290
REMARK  4 active torsions:
REMARK  status: ('A' for Active; 'I' for Inactive)
REMARK    1  A    between atoms: C_4  and  C_5 
REMARK    2  A    between atoms: C_8  and  C_9 
REMARK    3  A    between atoms: C_9  and  N_10 
REMARK    4  A    between atoms: N_10  and  C_11 
ROOT
HETATM    1  C   UNL     1      42.353 -14.386   2.241  1.00  0.00     0.158 C 
ENDROOT
BRANCH   1   2
HETATM    2  C   UNL     1      42.850 -15.793   2.456  1.00  0.00    -0.041 A 
HETATM    3  C   UNL     1      43.040 -16.294   3.749  1.00  0.00     0.009 A 
HETATM    4  C   UNL     1      43.455 -17.616   3.944  1.00  0.00     0.013 A 
HETATM    5  C   UNL     1      43.695 -18.473   2.858  1.00  0.00    -0.026 A 
HETATM    6  C   UNL     1      43.539 -17.947   1.565  1.00  0.00     0.013 A 
HETATM    7  C   UNL     1      43.129 -16.624   1.365  1.00  0.00     0.009 A 
BRANCH   5   8
HETATM    8  C   UNL     1      44.069 -19.884   3.067  1.00  0.00    -0.026 A 
HETATM    9  C   UNL     1      44.579 -20.320   4.303  1.00  0.00     0.012 A 
HETATM   10  C   UNL     1      44.918 -21.660   4.516  1.00  0.00     0.001 A 
HETATM   11  C   UNL     1      44.751 -22.591   3.495  1.00  0.00     0.000 A 
HETATM   12  C   UNL     1      44.249 -22.183   2.263  1.00  0.00     0.001 A 
HETATM   13  C   UNL     1      43.912 -20.842   2.051  1.00  0.00     0.012 A 
ENDBRANCH   5   8
ENDBRANCH   1   2
BRANCH   1  14
HETATM   14  N   UNL     1      40.903 -14.382   2.122  1.00  0.00    -0.384 N 
HETATM   15  H   UNL     1      40.620 -14.628   1.172  1.00  0.00     0.160 HD
BRANCH  14  16
HETATM   16  C   UNL     1      40.104 -13.398   2.699  1.00  0.00     0.060 A 
HETATM   17  C   UNL     1      39.862 -13.172   4.061  1.00  0.00     0.106 A 
HETATM   18  C   UNL     1      38.986 -12.195   4.515  1.00  0.00     0.158 A 
HETATM   19  N   UNL     1      40.309 -13.740   5.233  1.00  0.00    -0.346 N 
HETATM   20  N   UNL     1      38.905 -12.141   5.871  1.00  0.00    -0.224 NA
HETATM   21  N   UNL     1      38.305 -11.418   3.617  1.00  0.00    -0.349 N 
HETATM   22  C   UNL     1      39.715 -13.090   6.282  1.00  0.00     0.210 A 
HETATM   23  H   UNL     1      37.670 -10.717   3.989  1.00  0.00     0.167 HD
HETATM   24  C   UNL     1      38.469 -11.603   2.310  1.00  0.00     0.092 A 
HETATM   25  C   UNL     1      39.342 -12.579   1.838  1.00  0.00     0.048 A 
HETATM   26  H   UNL     1      40.961 -14.508   5.326  1.00  0.00     0.167 HD
ENDBRANCH  14  16
ENDBRANCH   1  14
TORSDOF 4
ENDMDL
MODEL 9
REMARK VINA RESULT:      -8.1      5.948      8.063
REMARK  4 active torsions:
REMARK  status: ('A' for Active; 'I' for Inactive)
REMARK    1  A    between atoms: C_4  and  C_5 
REMARK    2  A    between atoms: C_8  and  C_9 
REMARK    3  A    between atoms: C_9  and  N_10 
REMARK    4  A    between atoms: N_10  and  C_11 
ROOT
HETATM    1  C   UNL     1      39.355 -14.698   2.041  1.00  0.00     0.158 C 
ENDROOT
BRANCH   1   2
HETATM    2  C   UNL     1      40.375 -15.783   2.273  1.00  0.00    -0.041 A 
HETATM    3  C   UNL     1      41.062 -15.870   3.489  1.00  0.00     0.009 A 
HETATM    4  C   UNL     1      41.973 -16.907   3.717  1.00  0.00     0.013 A 
HETATM    5  C   UNL     1      42.227 -17.883   2.739  1.00  0.00    -0.026 A 
HETATM    6  C   UNL     1      41.562 -17.762   1.508  1.00  0.00     0.013 A 
HETATM    7  C   UNL     1      40.654 -16.723   1.274  1.00  0.00     0.009 A 
BRANCH   5   8
HETATM    8  C   UNL     1      43.139 -19.012   3.006  1.00  0.00    -0.026 A 
HETATM    9  C   UNL     1      43.323 -20.031   2.054  1.00  0.00     0.012 A 
HETATM   10  C   UNL     1      44.199 -21.094   2.291  1.00  0.00     0.001 A 
HETATM   11  C   UNL     1      44.911 -21.156   3.485  1.00  0.00     0.000 A 
HETATM   12  C   UNL     1      44.745 -20.160   4.442  1.00  0.00     0.001 A 
HETATM   13  C   UNL     1      43.866 -19.098   4.205  1.00  0.00     0.012 A 
ENDBRANCH   5   8
ENDBRANCH   1   2
BRANCH   1  14
HETATM   14  N   UNL     1      38.901 -14.726   0.659  1.00  0.00    -0.384 N 
HETATM   15  H   UNL     1      38.685 -15.683   0.372  1.00  0.00     0.160 HD
BRANCH  14  16
HETATM   16  C   UNL     1      39.499 -13.970  -0.344  1.00  0.00     0.060 A 
HETATM   17  C   UNL     1      40.072 -14.423  -1.542  1.00  0.00     0.106 A 
HETATM   18  C   UNL     1      40.704 -13.572  -2.439  1.00  0.00     0.158 A 
HETATM   19  N   UNL     1      40.206 -15.652  -2.149  1.00  0.00    -0.346 N 
HETATM   20  N   UNL     1      41.182 -14.217  -3.537  1.00  0.00    -0.224 NA
HETATM   21  N   UNL     1      40.801 -12.236  -2.161  1.00  0.00    -0.349 N 
HETATM   22  C   UNL     1      40.869 -15.477  -3.335  1.00  0.00     0.210 A 
HETATM   23  H   UNL     1      41.274 -11.647  -2.841  1.00  0.00     0.167 HD
HETATM   24  C   UNL     1      40.304 -11.748  -1.027  1.00  0.00     0.092 A 
HETATM   25  C   UNL     1      39.668 -12.588  -0.116  1.00  0.00     0.048 A 
HETATM   26  H   UNL     1      39.883 -16.542  -1.796  1.00  0.00     0.167 HD
ENDBRANCH  14  16
ENDBRANCH   1  14
TORSDOF 4
ENDMDL
MODEL 10
REMARK VINA RESULT:      -7.9      2.717      9.945
REMARK  4 active torsions:
REMARK  status: ('A' for Active; 'I' for Inactive)
REMARK    1  A    between atoms: C_4  and  C_5 
REMARK    2  A    between atoms: C_8  and  C_9 
REMARK    3  A    between atoms: C_9  and  N_10 
REMARK    4  A    between atoms: N_10  and  C_11 
ROOT
HETATM    1  C   UNL     1      45.093 -13.144   7.770  1.00  0.00     0.158 C 
ENDROOT
BRANCH   1   2
HETATM    2  C   UNL     1      44.633 -12.186   8.839  1.00  0.00    -0.041 A 
HETATM    3  C   UNL     1      43.427 -11.489   8.703  1.00  0.00     0.009 A 
HETATM    4  C   UNL     1      42.981 -10.637   9.719  1.00  0.00     0.013 A 
HETATM    5  C   UNL     1      43.725 -10.454  10.896  1.00  0.00    -0.026 A 
HETATM    6  C   UNL     1      44.953 -11.128  11.004  1.00  0.00     0.013 A 
HETATM    7  C   UNL     1      45.405 -11.977   9.987  1.00  0.00     0.009 A 
BRANCH   5   8
HETATM    8  C   UNL     1      43.222  -9.607  11.994  1.00  0.00    -0.026 A 
HETATM    9  C   UNL     1      43.329 -10.022  13.333  1.00  0.00     0.012 A 
HETATM   10  C   UNL     1      42.872  -9.216  14.381  1.00  0.00     0.001 A 
HETATM   11  C   UNL     1      42.300  -7.977  14.107  1.00  0.00     0.000 A 
HETATM   12  C   UNL     1      42.182  -7.545  12.790  1.00  0.00     0.001 A 
HETATM   13  C   UNL     1      42.638  -8.353  11.743  1.00  0.00     0.012 A 
ENDBRANCH   5   8
ENDBRANCH   1   2
BRANCH   1  14
HETATM   14  N   UNL     1      44.266 -14.342   7.784  1.00  0.00    -0.384 N 
HETATM   15  H   UNL     1      44.610 -15.007   8.480  1.00  0.00     0.160 HD
BRANCH  14  16
HETATM   16  C   UNL     1      43.803 -14.949   6.621  1.00  0.00     0.060 A 
HETATM   17  C   UNL     1      43.966 -16.283   6.220  1.00  0.00     0.106 A 
HETATM   18  C   UNL     1      43.514 -16.759   4.996  1.00  0.00     0.158 A 
HETATM   19  N   UNL     1      44.540 -17.402   6.782  1.00  0.00    -0.346 N 
HETATM   20  N   UNL     1      43.768 -18.081   4.812  1.00  0.00    -0.224 NA
HETATM   21  N   UNL     1      42.896 -15.908   4.119  1.00  0.00    -0.349 N 
HETATM   22  C   UNL     1      44.393 -18.447   5.909  1.00  0.00     0.210 A 
HETATM   23  H   UNL     1      42.583 -16.294   3.232  1.00  0.00     0.167 HD
HETATM   24  C   UNL     1      42.738 -14.624   4.428  1.00  0.00     0.092 A 
HETATM   25  C   UNL     1      43.187 -14.131   5.650  1.00  0.00     0.048 A 
HETATM   26  H   UNL     1      44.999 -17.462   7.680  1.00  0.00     0.167 HD
ENDBRANCH  14  16
ENDBRANCH   1  14
TORSDOF 4
ENDMDL
