MODEL 1
REMARK VINA RESULT:      -8.2      0.000      0.000
REMARK  5 active torsions:
REMARK  status: ('A' for Active; 'I' for Inactive)
REMARK    1  A    between atoms: C_8  and  C_9 
REMARK    2  A    between atoms: N_10  and  N_11 
REMARK       I    between atoms: N_11  and  C_12 
REMARK    3  A    between atoms: C_12  and  C_13 
REMARK    4  A    between atoms: C_13  and  N_14 
REMARK    5  A    between atoms: N_14  and  C_15 
ROOT
HETATM    1  N   UNL     1      44.127 -17.134   6.044  1.00  0.00    -0.246 N 
HETATM    2  C   UNL     1      43.565 -18.043   6.951  1.00  0.00     0.250 C 
HETATM    3  O   UNL     1      43.027 -17.740   8.016  1.00  0.00    -0.270 OA
HETATM    4  H   UNL     1      44.972 -17.446   5.577  1.00  0.00     0.192 HD
ENDROOT
BRANCH   1   5
HETATM    5  N   UNL     1      44.115 -15.787   6.304  1.00  0.00    -0.184 NA
HETATM    6  C   UNL     1      43.152 -15.067   5.799  1.00  0.00     0.152 C 
BRANCH   6   7
HETATM    7  C   UNL     1      42.197 -15.478   4.784  1.00  0.00     0.011 A 
HETATM    8  C   UNL     1      42.411 -15.902   3.429  1.00  0.00     0.004 A 
HETATM    9  C   UNL     1      43.544 -16.038   2.597  1.00  0.00     0.014 A 
HETATM   10  C   UNL     1      41.162 -16.224   2.892  1.00  0.00     0.043 A 
HETATM   11  C   UNL     1      43.398 -16.526   1.294  1.00  0.00     0.001 A 
HETATM   12  C   UNL     1      42.141 -16.866   0.802  1.00  0.00     0.002 A 
HETATM   13  C   UNL     1      40.997 -16.714   1.591  1.00  0.00     0.030 A 
HETATM   14  N   UNL     1      40.224 -15.964   3.862  1.00  0.00    -0.364 N 
HETATM   15  H   UNL     1      39.230 -16.109   3.751  1.00  0.00     0.165 HD
HETATM   16  C   UNL     1      40.829 -15.475   4.987  1.00  0.00     0.102 A 
ENDBRANCH   6   7
ENDBRANCH   1   5
BRANCH   2  17
HETATM   17  C   UNL     1      43.706 -19.490   6.457  1.00  0.00     0.197 C 
BRANCH  17  18
HETATM   18  N   UNL     1      44.796 -19.624   5.485  1.00  0.00    -0.283 NA
HETATM   19  H   UNL     1      45.319 -18.751   5.375  1.00  0.00     0.128 HD
BRANCH  18  20
HETATM   20  C   UNL     1      44.502 -20.237   4.256  1.00  0.00     0.030 A 
HETATM   21  C   UNL     1      44.717 -21.616   4.061  1.00  0.00     0.055 A 
HETATM   22 CL   UNL     1      45.445 -22.580   5.300  1.00  0.00    -0.082 Cl
HETATM   23  C   UNL     1      44.382 -22.241   2.855  1.00  0.00     0.026 A 
HETATM   24  C   UNL     1      43.801 -21.502   1.826  1.00  0.00     0.002 A 
HETATM   25  C   UNL     1      43.550 -20.145   2.008  1.00  0.00     0.002 A 
HETATM   26  C   UNL     1      43.890 -19.522   3.214  1.00  0.00     0.025 A 
ENDBRANCH  18  20
ENDBRANCH  17  18
ENDBRANCH   2  17
TORSDOF 5
ENDMDL
MODEL 2
REMARK VINA RESULT:      -7.9      2.410      4.317
REMARK  5 active torsions:
REMARK  status: ('A' for Active; 'I' for Inactive)
REMARK    1  A    between atoms: C_8  and  C_9 
REMARK    2  A    between atoms: N_10  and  N_11 
REMARK       I    between atoms: N_11  and  C_12 
REMARK    3  A    between atoms: C_12  and  C_13 
REMARK    4  A    between atoms: C_13  and  N_14 
REMARK    5  A    between atoms: N_14  and  C_15 
ROOT
HETATM    1  N   UNL     1      41.772 -16.870   2.434  1.00  0.00    -0.246 N 
HETATM    2  C   UNL     1      42.297 -17.006   1.141  1.00  0.00     0.250 C 
HETATM    3  O   UNL     1      41.838 -16.476   0.130  1.00  0.00    -0.270 OA
HETATM    4  H   UNL     1      41.811 -17.701   3.014  1.00  0.00     0.192 HD
ENDROOT
BRANCH   1   5
HETATM    5  N   UNL     1      40.657 -16.102   2.659  1.00  0.00    -0.184 NA
HETATM    6  C   UNL     1      40.742 -15.123   3.517  1.00  0.00     0.152 C 
BRANCH   6   7
HETATM    7  C   UNL     1      41.824 -14.878   4.456  1.00  0.00     0.011 A 
HETATM    8  C   UNL     1      42.240 -15.631   5.606  1.00  0.00     0.004 A 
HETATM    9  C   UNL     1      41.771 -16.795   6.254  1.00  0.00     0.014 A 
HETATM   10  C   UNL     1      43.357 -14.987   6.142  1.00  0.00     0.043 A 
HETATM   11  C   UNL     1      42.452 -17.293   7.371  1.00  0.00     0.001 A 
HETATM   12  C   UNL     1      43.582 -16.643   7.859  1.00  0.00     0.002 A 
HETATM   13  C   UNL     1      44.052 -15.471   7.257  1.00  0.00     0.030 A 
HETATM   14  N   UNL     1      43.585 -13.867   5.379  1.00  0.00    -0.364 N 
HETATM   15  H   UNL     1      44.337 -13.210   5.536  1.00  0.00     0.165 HD
HETATM   16  C   UNL     1      42.645 -13.768   4.390  1.00  0.00     0.102 A 
ENDBRANCH   6   7
ENDBRANCH   1   5
BRANCH   2  17
HETATM   17  C   UNL     1      43.532 -17.919   1.130  1.00  0.00     0.197 C 
BRANCH  17  18
HETATM   18  N   UNL     1      43.944 -18.285   2.489  1.00  0.00    -0.283 NA
HETATM   19  H   UNL     1      44.694 -17.681   2.836  1.00  0.00     0.128 HD
BRANCH  18  20
HETATM   20  C   UNL     1      44.175 -19.644   2.757  1.00  0.00     0.030 A 
HETATM   21  C   UNL     1      44.608 -20.071   4.029  1.00  0.00     0.055 A 
HETATM   22 CL   UNL     1      44.966 -18.922   5.272  1.00  0.00    -0.082 Cl
HETATM   23  C   UNL     1      44.794 -21.428   4.315  1.00  0.00     0.026 A 
HETATM   24  C   UNL     1      44.526 -22.388   3.341  1.00  0.00     0.002 A 
HETATM   25  C   UNL     1      44.067 -21.991   2.089  1.00  0.00     0.002 A 
HETATM   26  C   UNL     1      43.886 -20.634   1.804  1.00  0.00     0.025 A 
ENDBRANCH  18  20
ENDBRANCH  17  18
ENDBRANCH   2  17
TORSDOF 5
ENDMDL
MODEL 3
REMARK VINA RESULT:      -7.8      6.345      9.541
REMARK  5 active torsions:
REMARK  status: ('A' for Active; 'I' for Inactive)
REMARK    1  A    between atoms: C_8  and  C_9 
REMARK    2  A    between atoms: N_10  and  N_11 
REMARK       I    between atoms: N_11  and  C_12 
REMARK    3  A    between atoms: C_12  and  C_13 
REMARK    4  A    between atoms: C_13  and  N_14 
REMARK    5  A    between atoms: N_14  and  C_15 
ROOT
HETATM    1  N   UNL     1      44.319 -12.584   8.635  1.00  0.00    -0.246 N 
HETATM    2  C   UNL     1      44.294 -11.339   9.280  1.00  0.00     0.250 C 
HETATM    3  O   UNL     1      45.265 -10.598   9.427  1.00  0.00    -0.270 OA
HETATM    4  H   UNL     1      43.728 -13.301   9.041  1.00  0.00     0.192 HD
ENDROOT
BRANCH   1   5
HETATM    5  N   UNL     1      45.486 -13.076   8.108  1.00  0.00    -0.184 NA
HETATM    6  C   UNL     1      45.427 -13.746   6.990  1.00  0.00     0.152 C 
BRANCH   6   7
HETATM    7  C   UNL     1      44.230 -14.247   6.337  1.00  0.00     0.011 A 
HETATM    8  C   UNL     1      43.457 -15.429   6.599  1.00  0.00     0.004 A 
HETATM    9  C   UNL     1      43.571 -16.511   7.500  1.00  0.00     0.014 A 
HETATM   10  C   UNL     1      42.378 -15.426   5.711  1.00  0.00     0.043 A 
HETATM   11  C   UNL     1      42.594 -17.512   7.513  1.00  0.00     0.001 A 
HETATM   12  C   UNL     1      41.516 -17.461   6.635  1.00  0.00     0.002 A 
HETATM   13  C   UNL     1      41.391 -16.419   5.711  1.00  0.00     0.030 A 
HETATM   14  N   UNL     1      42.513 -14.315   4.913  1.00  0.00    -0.364 N 
HETATM   15  H   UNL     1      41.869 -14.057   4.179  1.00  0.00     0.165 HD
HETATM   16  C   UNL     1      43.644 -13.623   5.250  1.00  0.00     0.102 A 
ENDBRANCH   6   7
ENDBRANCH   1   5
BRANCH   2  17
HETATM   17  C   UNL     1      42.889 -11.003   9.799  1.00  0.00     0.197 C 
BRANCH  17  18
HETATM   18  N   UNL     1      42.609 -11.676  11.072  1.00  0.00    -0.283 NA
HETATM   19  H   UNL     1      41.825 -12.329  10.996  1.00  0.00     0.128 HD
BRANCH  18  20
HETATM   20  C   UNL     1      42.541 -10.881  12.228  1.00  0.00     0.030 A 
HETATM   21  C   UNL     1      41.458 -10.989  13.123  1.00  0.00     0.055 A 
HETATM   22 CL   UNL     1      40.124 -12.036  12.773  1.00  0.00    -0.082 Cl
HETATM   23  C   UNL     1      41.408 -10.234  14.300  1.00  0.00     0.026 A 
HETATM   24  C   UNL     1      42.455  -9.372  14.618  1.00  0.00     0.002 A 
HETATM   25  C   UNL     1      43.551  -9.273  13.765  1.00  0.00     0.002 A 
HETATM   26  C   UNL     1      43.595 -10.026  12.587  1.00  0.00     0.025 A 
ENDBRANCH  18  20
ENDBRANCH  17  18
ENDBRANCH   2  17
TORSDOF 5
ENDMDL
MODEL 4
REMARK VINA RESULT:      -7.8      2.571      4.211
REMARK  5 active torsions:
REMARK  status: ('A' for Active; 'I' for Inactive)
REMARK    1  A    between atoms: C_8  and  C_9 
REMARK    2  A    between atoms: N_10  and  N_11 
REMARK       I    between atoms: N_11  and  C_12 
REMARK    3  A    between atoms: C_12  and  C_13 
REMARK    4  A    between atoms: C_13  and  N_14 
REMARK    5  A    between atoms: N_14  and  C_15 
ROOT
HETATM    1  N   UNL     1      43.199 -15.553   1.979  1.00  0.00    -0.246 N 
HETATM    2  C   UNL     1      42.758 -16.524   1.070  1.00  0.00     0.250 C 
HETATM    3  O   UNL     1      41.726 -16.455   0.403  1.00  0.00    -0.270 OA
HETATM    4  H   UNL     1      43.646 -15.906   2.818  1.00  0.00     0.192 HD
ENDROOT
BRANCH   1   5
HETATM    5  N   UNL     1      42.467 -14.412   2.194  1.00  0.00    -0.184 NA
HETATM    6  C   UNL     1      41.860 -14.272   3.340  1.00  0.00     0.152 C 
BRANCH   6   7
HETATM    7  C   UNL     1      41.664 -15.294   4.353  1.00  0.00     0.011 A 
HETATM    8  C   UNL     1      42.470 -15.637   5.491  1.00  0.00     0.004 A 
HETATM    9  C   UNL     1      43.701 -15.180   6.010  1.00  0.00     0.014 A 
HETATM   10  C   UNL     1      41.816 -16.669   6.169  1.00  0.00     0.043 A 
HETATM   11  C   UNL     1      44.205 -15.728   7.195  1.00  0.00     0.001 A 
HETATM   12  C   UNL     1      43.510 -16.733   7.861  1.00  0.00     0.002 A 
HETATM   13  C   UNL     1      42.305 -17.229   7.355  1.00  0.00     0.030 A 
HETATM   14  N   UNL     1      40.684 -16.972   5.451  1.00  0.00    -0.364 N 
HETATM   15  H   UNL     1      40.014 -17.682   5.712  1.00  0.00     0.165 HD
HETATM   16  C   UNL     1      40.604 -16.183   4.336  1.00  0.00     0.102 A 
ENDBRANCH   6   7
ENDBRANCH   1   5
BRANCH   2  17
HETATM   17  C   UNL     1      43.727 -17.714   1.007  1.00  0.00     0.197 C 
BRANCH  17  18
HETATM   18  N   UNL     1      43.138 -18.921   1.597  1.00  0.00    -0.283 NA
HETATM   19  H   UNL     1      42.117 -18.861   1.653  1.00  0.00     0.128 HD
BRANCH  18  20
HETATM   20  C   UNL     1      43.716 -19.419   2.776  1.00  0.00     0.030 A 
HETATM   21  C   UNL     1      44.206 -20.739   2.845  1.00  0.00     0.055 A 
HETATM   22 CL   UNL     1      44.021 -21.821   1.508  1.00  0.00    -0.082 Cl
HETATM   23  C   UNL     1      44.825 -21.225   4.002  1.00  0.00     0.026 A 
HETATM   24  C   UNL     1      44.988 -20.391   5.107  1.00  0.00     0.002 A 
HETATM   25  C   UNL     1      44.540 -19.075   5.049  1.00  0.00     0.002 A 
HETATM   26  C   UNL     1      43.918 -18.593   3.893  1.00  0.00     0.025 A 
ENDBRANCH  18  20
ENDBRANCH  17  18
ENDBRANCH   2  17
TORSDOF 5
ENDMDL
MODEL 5
REMARK VINA RESULT:      -7.7      6.328      9.450
REMARK  5 active torsions:
REMARK  status: ('A' for Active; 'I' for Inactive)
REMARK    1  A    between atoms: C_8  and  C_9 
REMARK    2  A    between atoms: N_10  and  N_11 
REMARK       I    between atoms: N_11  and  C_12 
REMARK    3  A    between atoms: C_12  and  C_13 
REMARK    4  A    between atoms: C_13  and  N_14 
REMARK    5  A    between atoms: N_14  and  C_15 
ROOT
HETATM    1  N   UNL     1      44.212 -12.588   8.594  1.00  0.00    -0.246 N 
HETATM    2  C   UNL     1      44.268 -11.331   9.211  1.00  0.00     0.250 C 
HETATM    3  O   UNL     1      45.272 -10.623   9.286  1.00  0.00    -0.270 OA
HETATM    4  H   UNL     1      43.620 -13.275   9.049  1.00  0.00     0.192 HD
ENDROOT
BRANCH   1   5
HETATM    5  N   UNL     1      45.329 -13.134   8.014  1.00  0.00    -0.184 NA
HETATM    6  C   UNL     1      45.169 -14.077   7.127  1.00  0.00     0.152 C 
BRANCH   6   7
HETATM    7  C   UNL     1      43.942 -14.801   6.836  1.00  0.00     0.011 A 
HETATM    8  C   UNL     1      42.867 -14.478   5.942  1.00  0.00     0.004 A 
HETATM    9  C   UNL     1      42.576 -13.391   5.089  1.00  0.00     0.014 A 
HETATM   10  C   UNL     1      41.945 -15.526   6.004  1.00  0.00     0.043 A 
HETATM   11  C   UNL     1      41.417 -13.409   4.305  1.00  0.00     0.001 A 
HETATM   12  C   UNL     1      40.537 -14.486   4.370  1.00  0.00     0.002 A 
HETATM   13  C   UNL     1      40.781 -15.562   5.227  1.00  0.00     0.030 A 
HETATM   14  N   UNL     1      42.417 -16.427   6.929  1.00  0.00    -0.364 N 
HETATM   15  H   UNL     1      41.953 -17.289   7.177  1.00  0.00     0.165 HD
HETATM   16  C   UNL     1      43.594 -15.981   7.467  1.00  0.00     0.102 A 
ENDBRANCH   6   7
ENDBRANCH   1   5
BRANCH   2  17
HETATM   17  C   UNL     1      42.907 -10.933   9.800  1.00  0.00     0.197 C 
BRANCH  17  18
HETATM   18  N   UNL     1      42.641 -11.631  11.062  1.00  0.00    -0.283 NA
HETATM   19  H   UNL     1      41.867 -12.295  10.976  1.00  0.00     0.128 HD
BRANCH  18  20
HETATM   20  C   UNL     1      42.562 -10.857  12.231  1.00  0.00     0.030 A 
HETATM   21  C   UNL     1      41.482 -10.999  13.126  1.00  0.00     0.055 A 
HETATM   22 CL   UNL     1      40.166 -12.063  12.761  1.00  0.00    -0.082 Cl
HETATM   23  C   UNL     1      41.421 -10.265  14.315  1.00  0.00     0.026 A 
HETATM   24  C   UNL     1      42.454  -9.390  14.646  1.00  0.00     0.002 A 
HETATM   25  C   UNL     1      43.546  -9.258  13.793  1.00  0.00     0.002 A 
HETATM   26  C   UNL     1      43.601  -9.990  12.603  1.00  0.00     0.025 A 
ENDBRANCH  18  20
ENDBRANCH  17  18
ENDBRANCH   2  17
TORSDOF 5
ENDMDL
MODEL 6
REMARK VINA RESULT:      -7.6      2.759      6.034
REMARK  5 active torsions:
REMARK  status: ('A' for Active; 'I' for Inactive)
REMARK    1  A    between atoms: C_8  and  C_9 
REMARK    2  A    between atoms: N_10  and  N_11 
REMARK       I    between atoms: N_11  and  C_12 
REMARK    3  A    between atoms: C_12  and  C_13 
REMARK    4  A    between atoms: C_13  and  N_14 
REMARK    5  A    between atoms: N_14  and  C_15 
ROOT
HETATM    1  N   UNL     1      41.799 -16.911   1.957  1.00  0.00    -0.246 N 
HETATM    2  C   UNL     1      41.644 -15.617   2.473  1.00  0.00     0.250 C 
HETATM    3  O   UNL     1      42.283 -14.629   2.113  1.00  0.00    -0.270 OA
HETATM    4  H   UNL     1      41.708 -17.666   2.628  1.00  0.00     0.192 HD
ENDROOT
BRANCH   1   5
HETATM    5  N   UNL     1      42.723 -17.167   0.975  1.00  0.00    -0.184 NA
HETATM    6  C   UNL     1      43.642 -18.063   1.208  1.00  0.00     0.152 C 
BRANCH   6   7
HETATM    7  C   UNL     1      43.961 -18.672   2.488  1.00  0.00     0.011 A 
HETATM    8  C   UNL     1      44.175 -20.050   2.830  1.00  0.00     0.004 A 
HETATM    9  C   UNL     1      44.122 -21.270   2.120  1.00  0.00     0.014 A 
HETATM   10  C   UNL     1      44.492 -20.097   4.189  1.00  0.00     0.043 A 
HETATM   11  C   UNL     1      44.427 -22.470   2.772  1.00  0.00     0.001 A 
HETATM   12  C   UNL     1      44.770 -22.475   4.121  1.00  0.00     0.002 A 
HETATM   13  C   UNL     1      44.801 -21.288   4.858  1.00  0.00     0.030 A 
HETATM   14  N   UNL     1      44.430 -18.809   4.665  1.00  0.00    -0.364 N 
HETATM   15  H   UNL     1      44.618 -18.542   5.622  1.00  0.00     0.165 HD
HETATM   16  C   UNL     1      44.071 -17.951   3.663  1.00  0.00     0.102 A 
ENDBRANCH   6   7
ENDBRANCH   1   5
BRANCH   2  17
HETATM   17  C   UNL     1      40.567 -15.574   3.566  1.00  0.00     0.197 C 
BRANCH  17  18
HETATM   18  N   UNL     1      41.037 -14.860   4.758  1.00  0.00    -0.283 NA
HETATM   19  H   UNL     1      41.366 -13.917   4.534  1.00  0.00     0.128 HD
BRANCH  18  20
HETATM   20  C   UNL     1      41.904 -15.543   5.628  1.00  0.00     0.030 A 
HETATM   21  C   UNL     1      43.214 -15.080   5.861  1.00  0.00     0.055 A 
HETATM   22 CL   UNL     1      43.833 -13.709   5.004  1.00  0.00    -0.082 Cl
HETATM   23  C   UNL     1      44.066 -15.729   6.761  1.00  0.00     0.026 A 
HETATM   24  C   UNL     1      43.613 -16.842   7.468  1.00  0.00     0.002 A 
HETATM   25  C   UNL     1      42.312 -17.297   7.278  1.00  0.00     0.002 A 
HETATM   26  C   UNL     1      41.465 -16.648   6.373  1.00  0.00     0.025 A 
ENDBRANCH  18  20
ENDBRANCH  17  18
ENDBRANCH   2  17
TORSDOF 5
ENDMDL
MODEL 7
REMARK VINA RESULT:      -7.5      2.835      4.294
REMARK  5 active torsions:
REMARK  status: ('A' for Active; 'I' for Inactive)
REMARK    1  A    between atoms: C_8  and  C_9 
REMARK    2  A    between atoms: N_10  and  N_11 
REMARK       I    between atoms: N_11  and  C_12 
REMARK    3  A    between atoms: C_12  and  C_13 
REMARK    4  A    between atoms: C_13  and  N_14 
REMARK    5  A    between atoms: N_14  and  C_15 
ROOT
HETATM    1  N   UNL     1      42.342 -13.319   3.461  1.00  0.00    -0.246 N 
HETATM    2  C   UNL     1      43.475 -13.689   4.199  1.00  0.00     0.250 C 
HETATM    3  O   UNL     1      44.630 -13.684   3.775  1.00  0.00    -0.270 OA
HETATM    4  H   UNL     1      41.505 -13.863   3.639  1.00  0.00     0.192 HD
ENDROOT
BRANCH   1   5
HETATM    5  N   UNL     1      42.459 -12.913   2.155  1.00  0.00    -0.184 NA
HETATM    6  C   UNL     1      42.026 -13.710   1.218  1.00  0.00     0.152 C 
BRANCH   6   7
HETATM    7  C   UNL     1      41.637 -15.102   1.368  1.00  0.00     0.011 A 
HETATM    8  C   UNL     1      42.443 -16.273   1.568  1.00  0.00     0.004 A 
HETATM    9  C   UNL     1      43.831 -16.522   1.648  1.00  0.00     0.014 A 
HETATM   10  C   UNL     1      41.575 -17.361   1.690  1.00  0.00     0.043 A 
HETATM   11  C   UNL     1      44.294 -17.820   1.890  1.00  0.00     0.001 A 
HETATM   12  C   UNL     1      43.398 -18.875   2.038  1.00  0.00     0.002 A 
HETATM   13  C   UNL     1      42.020 -18.666   1.933  1.00  0.00     0.030 A 
HETATM   14  N   UNL     1      40.297 -16.880   1.527  1.00  0.00    -0.364 N 
HETATM   15  H   UNL     1      39.462 -17.448   1.570  1.00  0.00     0.165 HD
HETATM   16  C   UNL     1      40.325 -15.533   1.290  1.00  0.00     0.102 A 
ENDBRANCH   6   7
ENDBRANCH   1   5
BRANCH   2  17
HETATM   17  C   UNL     1      43.100 -14.118   5.625  1.00  0.00     0.197 C 
BRANCH  17  18
HETATM   18  N   UNL     1      42.352 -15.380   5.630  1.00  0.00    -0.283 NA
HETATM   19  H   UNL     1      41.505 -15.320   6.202  1.00  0.00     0.128 HD
BRANCH  18  20
HETATM   20  C   UNL     1      43.073 -16.565   5.851  1.00  0.00     0.030 A 
HETATM   21  C   UNL     1      42.501 -17.825   5.583  1.00  0.00     0.055 A 
HETATM   22 CL   UNL     1      40.854 -17.956   5.066  1.00  0.00    -0.082 Cl
HETATM   23  C   UNL     1      43.229 -19.006   5.758  1.00  0.00     0.026 A 
HETATM   24  C   UNL     1      44.556 -18.949   6.180  1.00  0.00     0.002 A 
HETATM   25  C   UNL     1      45.151 -17.714   6.420  1.00  0.00     0.002 A 
HETATM   26  C   UNL     1      44.419 -16.535   6.249  1.00  0.00     0.025 A 
ENDBRANCH  18  20
ENDBRANCH  17  18
ENDBRANCH   2  17
TORSDOF 5
ENDMDL
MODEL 8
REMARK VINA RESULT:      -7.3      2.828      4.433
REMARK  5 active torsions:
REMARK  status: ('A' for Active; 'I' for Inactive)
REMARK    1  A    between atoms: C_8  and  C_9 
REMARK    2  A    between atoms: N_10  and  N_11 
REMARK       I    between atoms: N_11  and  C_12 
REMARK    3  A    between atoms: C_12  and  C_13 
REMARK    4  A    between atoms: C_13  and  N_14 
REMARK    5  A    between atoms: N_14  and  C_15 
ROOT
HETATM    1  N   UNL     1      39.594 -16.246   2.049  1.00  0.00    -0.246 N 
HETATM    2  C   UNL     1      40.741 -16.545   1.300  1.00  0.00     0.250 C 
HETATM    3  O   UNL     1      41.300 -15.773   0.522  1.00  0.00    -0.270 OA
HETATM    4  H   UNL     1      38.934 -17.008   2.164  1.00  0.00     0.192 HD
ENDROOT
BRANCH   1   5
HETATM    5  N   UNL     1      38.993 -15.017   1.949  1.00  0.00    -0.184 NA
HETATM    6  C   UNL     1      39.360 -14.079   2.777  1.00  0.00     0.152 C 
BRANCH   6   7
HETATM    7  C   UNL     1      40.178 -14.238   3.968  1.00  0.00     0.011 A 
HETATM    8  C   UNL     1      41.602 -14.161   4.131  1.00  0.00     0.004 A 
HETATM    9  C   UNL     1      42.693 -13.958   3.257  1.00  0.00     0.014 A 
HETATM   10  C   UNL     1      41.876 -14.349   5.488  1.00  0.00     0.043 A 
HETATM   11  C   UNL     1      43.995 -13.906   3.767  1.00  0.00     0.001 A 
HETATM   12  C   UNL     1      44.228 -14.067   5.129  1.00  0.00     0.002 A 
HETATM   13  C   UNL     1      43.172 -14.300   6.016  1.00  0.00     0.030 A 
HETATM   14  N   UNL     1      40.675 -14.576   6.117  1.00  0.00    -0.364 N 
HETATM   15  H   UNL     1      40.571 -14.742   7.108  1.00  0.00     0.165 HD
HETATM   16  C   UNL     1      39.653 -14.554   5.208  1.00  0.00     0.102 A 
ENDBRANCH   6   7
ENDBRANCH   1   5
BRANCH   2  17
HETATM   17  C   UNL     1      41.227 -17.978   1.564  1.00  0.00     0.197 C 
BRANCH  17  18
HETATM   18  N   UNL     1      42.691 -18.051   1.609  1.00  0.00    -0.283 NA
HETATM   19  H   UNL     1      43.074 -18.556   0.805  1.00  0.00     0.128 HD
BRANCH  18  20
HETATM   20  C   UNL     1      43.288 -18.432   2.822  1.00  0.00     0.030 A 
HETATM   21  C   UNL     1      43.876 -19.704   2.975  1.00  0.00     0.055 A 
HETATM   22 CL   UNL     1      43.791 -20.875   1.704  1.00  0.00    -0.082 Cl
HETATM   23  C   UNL     1      44.513 -20.072   4.165  1.00  0.00     0.026 A 
HETATM   24  C   UNL     1      44.597 -19.163   5.219  1.00  0.00     0.002 A 
HETATM   25  C   UNL     1      44.053 -17.890   5.077  1.00  0.00     0.002 A 
HETATM   26  C   UNL     1      43.413 -17.527   3.888  1.00  0.00     0.025 A 
ENDBRANCH  18  20
ENDBRANCH  17  18
ENDBRANCH   2  17
TORSDOF 5
ENDMDL
MODEL 9
REMARK VINA RESULT:      -7.3      2.874      4.476
REMARK  5 active torsions:
REMARK  status: ('A' for Active; 'I' for Inactive)
REMARK    1  A    between atoms: C_8  and  C_9 
REMARK    2  A    between atoms: N_10  and  N_11 
REMARK       I    between atoms: N_11  and  C_12 
REMARK    3  A    between atoms: C_12  and  C_13 
REMARK    4  A    between atoms: C_13  and  N_14 
REMARK    5  A    between atoms: N_14  and  C_15 
ROOT
HETATM    1  N   UNL     1      42.219 -16.044   0.126  1.00  0.00    -0.246 N 
HETATM    2  C   UNL     1      42.243 -17.184   0.942  1.00  0.00     0.250 C 
HETATM    3  O   UNL     1      41.253 -17.820   1.301  1.00  0.00    -0.270 OA
HETATM    4  H   UNL     1      42.896 -15.325   0.356  1.00  0.00     0.192 HD
ENDROOT
BRANCH   1   5
HETATM    5  N   UNL     1      41.031 -15.542  -0.341  1.00  0.00    -0.184 NA
HETATM    6  C   UNL     1      40.608 -14.405   0.138  1.00  0.00     0.152 C 
BRANCH   6   7
HETATM    7  C   UNL     1      41.130 -13.699   1.296  1.00  0.00     0.011 A 
HETATM    8  C   UNL     1      40.983 -13.981   2.697  1.00  0.00     0.004 A 
HETATM    9  C   UNL     1      40.290 -14.957   3.446  1.00  0.00     0.014 A 
HETATM   10  C   UNL     1      41.715 -13.017   3.394  1.00  0.00     0.043 A 
HETATM   11  C   UNL     1      40.389 -14.964   4.842  1.00  0.00     0.001 A 
HETATM   12  C   UNL     1      41.154 -14.007   5.502  1.00  0.00     0.002 A 
HETATM   13  C   UNL     1      41.826 -13.009   4.790  1.00  0.00     0.030 A 
HETATM   14  N   UNL     1      42.248 -12.159   2.461  1.00  0.00    -0.364 N 
HETATM   15  H   UNL     1      42.831 -11.364   2.682  1.00  0.00     0.165 HD
HETATM   16  C   UNL     1      41.868 -12.533   1.202  1.00  0.00     0.102 A 
ENDBRANCH   6   7
ENDBRANCH   1   5
BRANCH   2  17
HETATM   17  C   UNL     1      43.677 -17.551   1.352  1.00  0.00     0.197 C 
BRANCH  17  18
HETATM   18  N   UNL     1      43.723 -18.114   2.706  1.00  0.00    -0.283 NA
HETATM   19  H   UNL     1      44.277 -17.535   3.343  1.00  0.00     0.128 HD
BRANCH  18  20
HETATM   20  C   UNL     1      44.009 -19.483   2.833  1.00  0.00     0.030 A 
HETATM   21  C   UNL     1      44.562 -20.004   4.021  1.00  0.00     0.055 A 
HETATM   22 CL   UNL     1      44.998 -18.954   5.326  1.00  0.00    -0.082 Cl
HETATM   23  C   UNL     1      44.806 -21.373   4.171  1.00  0.00     0.026 A 
HETATM   24  C   UNL     1      44.478 -22.255   3.142  1.00  0.00     0.002 A 
HETATM   25  C   UNL     1      43.902 -21.767   1.973  1.00  0.00     0.002 A 
HETATM   26  C   UNL     1      43.663 -20.397   1.825  1.00  0.00     0.025 A 
ENDBRANCH  18  20
ENDBRANCH  17  18
ENDBRANCH   2  17
TORSDOF 5
ENDMDL
MODEL 10
REMARK VINA RESULT:      -7.2      1.825      2.385
REMARK  5 active torsions:
REMARK  status: ('A' for Active; 'I' for Inactive)
REMARK    1  A    between atoms: C_8  and  C_9 
REMARK    2  A    between atoms: N_10  and  N_11 
REMARK       I    between atoms: N_11  and  C_12 
REMARK    3  A    between atoms: C_12  and  C_13 
REMARK    4  A    between atoms: C_13  and  N_14 
REMARK    5  A    between atoms: N_14  and  C_15 
ROOT
HETATM    1  N   UNL     1      42.423 -16.348   5.814  1.00  0.00    -0.246 N 
HETATM    2  C   UNL     1      43.036 -17.283   6.660  1.00  0.00     0.250 C 
HETATM    3  O   UNL     1      42.598 -17.644   7.752  1.00  0.00    -0.270 OA
HETATM    4  H   UNL     1      43.053 -15.730   5.313  1.00  0.00     0.192 HD
ENDROOT
BRANCH   1   5
HETATM    5  N   UNL     1      41.244 -15.746   6.173  1.00  0.00    -0.184 NA
HETATM    6  C   UNL     1      40.568 -15.111   5.256  1.00  0.00     0.152 C 
BRANCH   6   7
HETATM    7  C   UNL     1      41.028 -14.754   3.924  1.00  0.00     0.011 A 
HETATM    8  C   UNL     1      41.115 -15.548   2.731  1.00  0.00     0.004 A 
HETATM    9  C   UNL     1      40.848 -16.898   2.414  1.00  0.00     0.014 A 
HETATM   10  C   UNL     1      41.586 -14.717   1.712  1.00  0.00     0.043 A 
HETATM   11  C   UNL     1      41.015 -17.352   1.101  1.00  0.00     0.001 A 
HETATM   12  C   UNL     1      41.457 -16.487   0.104  1.00  0.00     0.002 A 
HETATM   13  C   UNL     1      41.758 -15.153   0.393  1.00  0.00     0.030 A 
HETATM   14  N   UNL     1      41.819 -13.482   2.270  1.00  0.00    -0.364 N 
HETATM   15  H   UNL     1      42.163 -12.680   1.762  1.00  0.00     0.165 HD
HETATM   16  C   UNL     1      41.529 -13.504   3.607  1.00  0.00     0.102 A 
ENDBRANCH   6   7
ENDBRANCH   1   5
BRANCH   2  17
HETATM   17  C   UNL     1      44.347 -17.811   6.059  1.00  0.00     0.197 C 
BRANCH  17  18
HETATM   18  N   UNL     1      44.161 -18.266   4.677  1.00  0.00    -0.283 NA
HETATM   19  H   UNL     1      43.321 -17.864   4.252  1.00  0.00     0.128 HD
BRANCH  18  20
HETATM   20  C   UNL     1      44.294 -19.640   4.419  1.00  0.00     0.030 A 
HETATM   21  C   UNL     1      44.263 -20.139   3.101  1.00  0.00     0.055 A 
HETATM   22 CL   UNL     1      43.959 -19.084   1.763  1.00  0.00    -0.082 Cl
HETATM   23  C   UNL     1      44.442 -21.501   2.835  1.00  0.00     0.026 A 
HETATM   24  C   UNL     1      44.682 -22.389   3.882  1.00  0.00     0.002 A 
HETATM   25  C   UNL     1      44.749 -21.913   5.189  1.00  0.00     0.002 A 
HETATM   26  C   UNL     1      44.565 -20.551   5.452  1.00  0.00     0.025 A 
ENDBRANCH  18  20
ENDBRANCH  17  18
ENDBRANCH   2  17
TORSDOF 5
ENDMDL
