MODEL 1
REMARK VINA RESULT:      -8.5      0.000      0.000
REMARK  6 active torsions:
REMARK  status: ('A' for Active; 'I' for Inactive)
REMARK    1  A    between atoms: O_2  and  C_3 
REMARK    2  A    between atoms: C_4  and  O_5 
REMARK    3  A    between atoms: O_5  and  C_6 
REMARK    4  A    between atoms: C_9  and  N_10 
REMARK       I    between atoms: N_10  and  C_11 
REMARK    5  A    between atoms: C_11  and  C_12 
REMARK    6  A    between atoms: C_12  and  C_13 
ROOT
HETATM    1  C   UNL     1      42.248 -17.999   2.156  1.00  0.00     0.103 A 
HETATM    2  C   UNL     1      42.895 -17.413   3.257  1.00  0.00     0.109 A 
HETATM    3  C   UNL     1      43.937 -18.081   3.909  1.00  0.00     0.041 A 
HETATM    4  C   UNL     1      44.303 -19.363   3.501  1.00  0.00     0.025 A 
HETATM    5  C   UNL     1      43.642 -19.969   2.428  1.00  0.00     0.047 A 
HETATM    6  C   UNL     1      44.018 -21.288   2.007  1.00  0.00     0.099 C 
HETATM    7  N   UNL     1      44.317 -22.355   1.662  1.00  0.00    -0.191 NA
HETATM    8  C   UNL     1      42.617 -19.288   1.755  1.00  0.00     0.062 A 
ENDROOT
BRANCH   1   9
HETATM    9  O   UNL     1      41.265 -17.252   1.563  1.00  0.00    -0.353 OA
HETATM   10  C   UNL     1      41.589 -16.602   0.340  1.00  0.00     0.210 C 
ENDBRANCH   1   9
BRANCH   2  11
HETATM   11  O   UNL     1      42.550 -16.120   3.588  1.00  0.00    -0.308 OA
BRANCH  11  12
HETATM   12  C   UNL     1      43.086 -15.554   4.720  1.00  0.00     0.076 A 
HETATM   13  C   UNL     1      43.321 -14.181   4.656  1.00  0.00     0.039 A 
HETATM   14  C   UNL     1      43.811 -13.491   5.769  1.00  0.00     0.032 A 
HETATM   15  C   UNL     1      44.066 -14.165   6.964  1.00  0.00     0.034 A 
HETATM   16  C   UNL     1      43.824 -15.545   7.024  1.00  0.00     0.032 A 
HETATM   17  C   UNL     1      43.321 -16.235   5.913  1.00  0.00     0.039 A 
BRANCH  15  18
HETATM   18  N   UNL     1      44.555 -13.540   8.131  1.00  0.00    -0.327 N 
HETATM   19  C   UNL     1      44.205 -12.291   8.625  1.00  0.00     0.227 C 
HETATM   20  O   UNL     1      43.349 -11.548   8.147  1.00  0.00    -0.273 OA
HETATM   21  H   UNL     1      45.197 -14.090   8.689  1.00  0.00     0.169 HD
BRANCH  19  22
HETATM   22  C   UNL     1      44.959 -11.940   9.912  1.00  0.00     0.159 C 
BRANCH  22  23
HETATM   23  C   UNL     1      44.087 -11.377  10.995  1.00  0.00     0.017 A 
HETATM   24  N   UNL     1      42.857 -11.908  11.318  1.00  0.00    -0.369 N 
HETATM   25  H   UNL     1      42.426 -12.689  10.827  1.00  0.00     0.165 HD
HETATM   26  C   UNL     1      42.304 -11.207  12.353  1.00  0.00     0.088 A 
HETATM   27  C   UNL     1      43.185 -10.214  12.712  1.00  0.00     0.019 A 
HETATM   28  C   UNL     1      44.310 -10.320  11.859  1.00  0.00     0.027 A 
ENDBRANCH  22  23
ENDBRANCH  19  22
ENDBRANCH  15  18
ENDBRANCH  11  12
ENDBRANCH   2  11
TORSDOF 6
ENDMDL
MODEL 2
REMARK VINA RESULT:      -8.5      3.865      9.943
REMARK  6 active torsions:
REMARK  status: ('A' for Active; 'I' for Inactive)
REMARK    1  A    between atoms: O_2  and  C_3 
REMARK    2  A    between atoms: C_4  and  O_5 
REMARK    3  A    between atoms: O_5  and  C_6 
REMARK    4  A    between atoms: C_9  and  N_10 
REMARK       I    between atoms: N_10  and  C_11 
REMARK    5  A    between atoms: C_11  and  C_12 
REMARK    6  A    between atoms: C_12  and  C_13 
ROOT
HETATM    1  C   UNL     1      43.297 -16.827   6.577  1.00  0.00     0.103 A 
HETATM    2  C   UNL     1      42.916 -16.457   5.276  1.00  0.00     0.109 A 
HETATM    3  C   UNL     1      43.218 -15.183   4.781  1.00  0.00     0.041 A 
HETATM    4  C   UNL     1      43.854 -14.252   5.602  1.00  0.00     0.025 A 
HETATM    5  C   UNL     1      44.207 -14.600   6.910  1.00  0.00     0.047 A 
HETATM    6  C   UNL     1      44.862 -13.644   7.755  1.00  0.00     0.099 C 
HETATM    7  N   UNL     1      45.392 -12.874   8.444  1.00  0.00    -0.191 NA
HETATM    8  C   UNL     1      43.931 -15.887   7.396  1.00  0.00     0.062 A 
ENDROOT
BRANCH   1   9
HETATM    9  O   UNL     1      42.989 -18.107   6.956  1.00  0.00    -0.353 OA
HETATM   10  C   UNL     1      43.961 -18.814   7.716  1.00  0.00     0.210 C 
ENDBRANCH   1   9
BRANCH   2  11
HETATM   11  O   UNL     1      42.350 -17.424   4.474  1.00  0.00    -0.308 OA
BRANCH  11  12
HETATM   12  C   UNL     1      42.033 -17.113   3.173  1.00  0.00     0.076 A 
HETATM   13  C   UNL     1      43.028 -17.368   2.232  1.00  0.00     0.039 A 
HETATM   14  C   UNL     1      42.794 -17.144   0.872  1.00  0.00     0.032 A 
HETATM   15  C   UNL     1      41.557 -16.668   0.435  1.00  0.00     0.034 A 
HETATM   16  C   UNL     1      40.558 -16.417   1.387  1.00  0.00     0.032 A 
HETATM   17  C   UNL     1      40.787 -16.654   2.749  1.00  0.00     0.039 A 
BRANCH  15  18
HETATM   18  N   UNL     1      41.241 -16.421  -0.918  1.00  0.00    -0.327 N 
HETATM   19  C   UNL     1      41.185 -15.190  -1.557  1.00  0.00     0.227 C 
HETATM   20  O   UNL     1      41.469 -14.107  -1.048  1.00  0.00    -0.273 OA
HETATM   21  H   UNL     1      41.086 -17.242  -1.491  1.00  0.00     0.169 HD
BRANCH  19  22
HETATM   22  C   UNL     1      40.791 -15.316  -3.032  1.00  0.00     0.159 C 
BRANCH  22  23
HETATM   23  C   UNL     1      39.363 -14.952  -3.314  1.00  0.00     0.017 A 
HETATM   24  N   UNL     1      38.823 -13.728  -2.984  1.00  0.00    -0.369 N 
HETATM   25  H   UNL     1      39.329 -12.995  -2.491  1.00  0.00     0.165 HD
HETATM   26  C   UNL     1      37.515 -13.673  -3.381  1.00  0.00     0.088 A 
HETATM   27  C   UNL     1      37.203 -14.870  -3.981  1.00  0.00     0.019 A 
HETATM   28  C   UNL     1      38.366 -15.677  -3.941  1.00  0.00     0.027 A 
ENDBRANCH  22  23
ENDBRANCH  19  22
ENDBRANCH  15  18
ENDBRANCH  11  12
ENDBRANCH   2  11
TORSDOF 6
ENDMDL
MODEL 3
REMARK VINA RESULT:      -8.2      4.011      9.643
REMARK  6 active torsions:
REMARK  status: ('A' for Active; 'I' for Inactive)
REMARK    1  A    between atoms: O_2  and  C_3 
REMARK    2  A    between atoms: C_4  and  O_5 
REMARK    3  A    between atoms: O_5  and  C_6 
REMARK    4  A    between atoms: C_9  and  N_10 
REMARK       I    between atoms: N_10  and  C_11 
REMARK    5  A    between atoms: C_11  and  C_12 
REMARK    6  A    between atoms: C_12  and  C_13 
ROOT
HETATM    1  C   UNL     1      44.006 -17.012   6.201  1.00  0.00     0.103 A 
HETATM    2  C   UNL     1      42.976 -16.627   5.326  1.00  0.00     0.109 A 
HETATM    3  C   UNL     1      42.581 -15.287   5.237  1.00  0.00     0.041 A 
HETATM    4  C   UNL     1      43.175 -14.332   6.060  1.00  0.00     0.025 A 
HETATM    5  C   UNL     1      44.178 -14.711   6.958  1.00  0.00     0.047 A 
HETATM    6  C   UNL     1      44.791 -13.729   7.805  1.00  0.00     0.099 C 
HETATM    7  N   UNL     1      45.290 -12.939   8.494  1.00  0.00    -0.191 NA
HETATM    8  C   UNL     1      44.595 -16.049   7.027  1.00  0.00     0.062 A 
ENDROOT
BRANCH   1   9
HETATM    9  O   UNL     1      44.345 -18.339   6.189  1.00  0.00    -0.353 OA
HETATM   10  C   UNL     1      43.889 -19.138   7.275  1.00  0.00     0.210 C 
ENDBRANCH   1   9
BRANCH   2  11
HETATM   11  O   UNL     1      42.459 -17.587   4.483  1.00  0.00    -0.308 OA
BRANCH  11  12
HETATM   12  C   UNL     1      42.227 -17.266   3.166  1.00  0.00     0.076 A 
HETATM   13  C   UNL     1      40.920 -16.896   2.856  1.00  0.00     0.039 A 
HETATM   14  C   UNL     1      40.583 -16.495   1.559  1.00  0.00     0.032 A 
HETATM   15  C   UNL     1      41.554 -16.453   0.557  1.00  0.00     0.034 A 
HETATM   16  C   UNL     1      42.868 -16.823   0.877  1.00  0.00     0.032 A 
HETATM   17  C   UNL     1      43.209 -17.212   2.179  1.00  0.00     0.039 A 
BRANCH  15  18
HETATM   18  N   UNL     1      41.296 -16.056  -0.772  1.00  0.00    -0.327 N 
HETATM   19  C   UNL     1      41.272 -14.761  -1.273  1.00  0.00     0.227 C 
HETATM   20  O   UNL     1      41.542 -13.744  -0.636  1.00  0.00    -0.273 OA
HETATM   21  H   UNL     1      41.160 -16.807  -1.438  1.00  0.00     0.169 HD
BRANCH  19  22
HETATM   22  C   UNL     1      40.938 -14.720  -2.767  1.00  0.00     0.159 C 
BRANCH  22  23
HETATM   23  C   UNL     1      41.113 -13.368  -3.393  1.00  0.00     0.017 A 
HETATM   24  N   UNL     1      42.347 -12.842  -3.707  1.00  0.00    -0.369 N 
HETATM   25  H   UNL     1      43.232 -13.302  -3.505  1.00  0.00     0.165 HD
HETATM   26  C   UNL     1      42.196 -11.611  -4.284  1.00  0.00     0.088 A 
HETATM   27  C   UNL     1      40.850 -11.336  -4.352  1.00  0.00     0.019 A 
HETATM   28  C   UNL     1      40.166 -12.442  -3.793  1.00  0.00     0.027 A 
ENDBRANCH  22  23
ENDBRANCH  19  22
ENDBRANCH  15  18
ENDBRANCH  11  12
ENDBRANCH   2  11
TORSDOF 6
ENDMDL
MODEL 4
REMARK VINA RESULT:      -8.2      5.047      8.945
REMARK  6 active torsions:
REMARK  status: ('A' for Active; 'I' for Inactive)
REMARK    1  A    between atoms: O_2  and  C_3 
REMARK    2  A    between atoms: C_4  and  O_5 
REMARK    3  A    between atoms: O_5  and  C_6 
REMARK    4  A    between atoms: C_9  and  N_10 
REMARK       I    between atoms: N_10  and  C_11 
REMARK    5  A    between atoms: C_11  and  C_12 
REMARK    6  A    between atoms: C_12  and  C_13 
ROOT
HETATM    1  C   UNL     1      43.896 -17.855   5.724  1.00  0.00     0.103 A 
HETATM    2  C   UNL     1      43.602 -17.383   4.434  1.00  0.00     0.109 A 
HETATM    3  C   UNL     1      43.680 -18.237   3.328  1.00  0.00     0.041 A 
HETATM    4  C   UNL     1      44.104 -19.554   3.496  1.00  0.00     0.025 A 
HETATM    5  C   UNL     1      44.431 -20.025   4.772  1.00  0.00     0.047 A 
HETATM    6  C   UNL     1      44.867 -21.380   4.947  1.00  0.00     0.099 C 
HETATM    7  N   UNL     1      45.222 -22.475   5.094  1.00  0.00    -0.191 NA
HETATM    8  C   UNL     1      44.325 -19.177   5.885  1.00  0.00     0.062 A 
ENDROOT
BRANCH   1   9
HETATM    9  O   UNL     1      43.756 -16.953   6.745  1.00  0.00    -0.353 OA
HETATM   10  C   UNL     1      43.199 -17.430   7.965  1.00  0.00     0.210 C 
ENDBRANCH   1   9
BRANCH   2  11
HETATM   11  O   UNL     1      43.124 -16.096   4.317  1.00  0.00    -0.308 OA
BRANCH  11  12
HETATM   12  C   UNL     1      42.291 -15.784   3.268  1.00  0.00     0.076 A 
HETATM   13  C   UNL     1      40.946 -16.101   3.450  1.00  0.00     0.039 A 
HETATM   14  C   UNL     1      40.001 -15.776   2.472  1.00  0.00     0.032 A 
HETATM   15  C   UNL     1      40.390 -15.123   1.301  1.00  0.00     0.034 A 
HETATM   16  C   UNL     1      41.743 -14.803   1.126  1.00  0.00     0.032 A 
HETATM   17  C   UNL     1      42.689 -15.116   2.111  1.00  0.00     0.039 A 
BRANCH  15  18
HETATM   18  N   UNL     1      39.497 -14.758   0.271  1.00  0.00    -0.327 N 
HETATM   19  C   UNL     1      38.899 -13.520   0.077  1.00  0.00     0.227 C 
HETATM   20  O   UNL     1      39.108 -12.512   0.750  1.00  0.00    -0.273 OA
HETATM   21  H   UNL     1      39.315 -15.469  -0.427  1.00  0.00     0.169 HD
BRANCH  19  22
HETATM   22  C   UNL     1      37.973 -13.505  -1.144  1.00  0.00     0.159 C 
BRANCH  22  23
HETATM   23  C   UNL     1      38.451 -14.357  -2.281  1.00  0.00     0.017 A 
HETATM   24  N   UNL     1      37.651 -15.286  -2.910  1.00  0.00    -0.369 N 
HETATM   25  H   UNL     1      36.695 -15.498  -2.631  1.00  0.00     0.165 HD
HETATM   26  C   UNL     1      38.345 -15.893  -3.920  1.00  0.00     0.088 A 
HETATM   27  C   UNL     1      39.608 -15.349  -3.953  1.00  0.00     0.019 A 
HETATM   28  C   UNL     1      39.677 -14.381  -2.923  1.00  0.00     0.027 A 
ENDBRANCH  22  23
ENDBRANCH  19  22
ENDBRANCH  15  18
ENDBRANCH  11  12
ENDBRANCH   2  11
TORSDOF 6
ENDMDL
MODEL 5
REMARK VINA RESULT:      -7.9      5.515      9.129
REMARK  6 active torsions:
REMARK  status: ('A' for Active; 'I' for Inactive)
REMARK    1  A    between atoms: O_2  and  C_3 
REMARK    2  A    between atoms: C_4  and  O_5 
REMARK    3  A    between atoms: O_5  and  C_6 
REMARK    4  A    between atoms: C_9  and  N_10 
REMARK       I    between atoms: N_10  and  C_11 
REMARK    5  A    between atoms: C_11  and  C_12 
REMARK    6  A    between atoms: C_12  and  C_13 
ROOT
HETATM    1  C   UNL     1      43.774 -18.459   4.465  1.00  0.00     0.103 A 
HETATM    2  C   UNL     1      43.213 -17.655   3.459  1.00  0.00     0.109 A 
HETATM    3  C   UNL     1      43.010 -18.165   2.171  1.00  0.00     0.041 A 
HETATM    4  C   UNL     1      43.418 -19.463   1.866  1.00  0.00     0.025 A 
HETATM    5  C   UNL     1      44.009 -20.259   2.852  1.00  0.00     0.047 A 
HETATM    6  C   UNL     1      44.429 -21.595   2.540  1.00  0.00     0.099 C 
HETATM    7  N   UNL     1      44.771 -22.676   2.293  1.00  0.00    -0.191 NA
HETATM    8  C   UNL     1      44.185 -19.758   4.151  1.00  0.00     0.062 A 
ENDROOT
BRANCH   1   9
HETATM    9  O   UNL     1      43.898 -17.881   5.701  1.00  0.00    -0.353 OA
HETATM   10  C   UNL     1      45.118 -18.093   6.401  1.00  0.00     0.210 C 
ENDBRANCH   1   9
BRANCH   2  11
HETATM   11  O   UNL     1      42.762 -16.402   3.815  1.00  0.00    -0.308 OA
BRANCH  11  12
HETATM   12  C   UNL     1      41.989 -15.692   2.929  1.00  0.00     0.076 A 
HETATM   13  C   UNL     1      42.639 -14.663   2.250  1.00  0.00     0.039 A 
HETATM   14  C   UNL     1      41.963 -13.912   1.283  1.00  0.00     0.032 A 
HETATM   15  C   UNL     1      40.628 -14.186   0.978  1.00  0.00     0.034 A 
HETATM   16  C   UNL     1      39.982 -15.225   1.662  1.00  0.00     0.032 A 
HETATM   17  C   UNL     1      40.661 -15.987   2.621  1.00  0.00     0.039 A 
BRANCH  15  18
HETATM   18  N   UNL     1      39.880 -13.478   0.013  1.00  0.00    -0.327 N 
HETATM   19  C   UNL     1      40.122 -13.407  -1.352  1.00  0.00     0.227 C 
HETATM   20  O   UNL     1      41.006 -14.016  -1.954  1.00  0.00    -0.273 OA
HETATM   21  H   UNL     1      39.050 -13.011   0.356  1.00  0.00     0.169 HD
BRANCH  19  22
HETATM   22  C   UNL     1      39.102 -12.526  -2.080  1.00  0.00     0.159 C 
BRANCH  22  23
HETATM   23  C   UNL     1      38.139 -13.291  -2.939  1.00  0.00     0.017 A 
HETATM   24  N   UNL     1      38.185 -14.661  -3.077  1.00  0.00    -0.369 N 
HETATM   25  H   UNL     1      38.892 -15.255  -2.648  1.00  0.00     0.165 HD
HETATM   26  C   UNL     1      37.175 -15.081  -3.898  1.00  0.00     0.088 A 
HETATM   27  C   UNL     1      36.461 -13.974  -4.293  1.00  0.00     0.019 A 
HETATM   28  C   UNL     1      37.066 -12.845  -3.689  1.00  0.00     0.027 A 
ENDBRANCH  22  23
ENDBRANCH  19  22
ENDBRANCH  15  18
ENDBRANCH  11  12
ENDBRANCH   2  11
TORSDOF 6
ENDMDL
MODEL 6
REMARK VINA RESULT:      -7.9      5.744      8.954
REMARK  6 active torsions:
REMARK  status: ('A' for Active; 'I' for Inactive)
REMARK    1  A    between atoms: O_2  and  C_3 
REMARK    2  A    between atoms: C_4  and  O_5 
REMARK    3  A    between atoms: O_5  and  C_6 
REMARK    4  A    between atoms: C_9  and  N_10 
REMARK       I    between atoms: N_10  and  C_11 
REMARK    5  A    between atoms: C_11  and  C_12 
REMARK    6  A    between atoms: C_12  and  C_13 
ROOT
HETATM    1  C   UNL     1      40.493 -13.735  -2.372  1.00  0.00     0.103 A 
HETATM    2  C   UNL     1      41.012 -13.431  -1.102  1.00  0.00     0.109 A 
HETATM    3  C   UNL     1      41.897 -12.360  -0.931  1.00  0.00     0.041 A 
HETATM    4  C   UNL     1      42.312 -11.619  -2.037  1.00  0.00     0.025 A 
HETATM    5  C   UNL     1      41.828 -11.935  -3.311  1.00  0.00     0.047 A 
HETATM    6  C   UNL     1      42.253 -11.174  -4.449  1.00  0.00     0.099 C 
HETATM    7  N   UNL     1      42.595 -10.561  -5.374  1.00  0.00    -0.191 NA
HETATM    8  C   UNL     1      40.918 -12.990  -3.478  1.00  0.00     0.062 A 
ENDROOT
BRANCH   1   9
HETATM    9  O   UNL     1      39.608 -14.778  -2.431  1.00  0.00    -0.353 OA
HETATM   10  C   UNL     1      39.758 -15.702  -3.502  1.00  0.00     0.210 C 
ENDBRANCH   1   9
BRANCH   2  11
HETATM   11  O   UNL     1      40.528 -14.143  -0.026  1.00  0.00    -0.308 OA
BRANCH  11  12
HETATM   12  C   UNL     1      41.377 -14.977   0.662  1.00  0.00     0.076 A 
HETATM   13  C   UNL     1      41.776 -14.527   1.920  1.00  0.00     0.039 A 
HETATM   14  C   UNL     1      42.594 -15.321   2.731  1.00  0.00     0.032 A 
HETATM   15  C   UNL     1      43.016 -16.578   2.297  1.00  0.00     0.034 A 
HETATM   16  C   UNL     1      42.607 -17.026   1.033  1.00  0.00     0.032 A 
HETATM   17  C   UNL     1      41.777 -16.238   0.224  1.00  0.00     0.039 A 
BRANCH  15  18
HETATM   18  N   UNL     1      43.836 -17.439   3.057  1.00  0.00    -0.327 N 
HETATM   19  C   UNL     1      43.455 -18.225   4.137  1.00  0.00     0.227 C 
HETATM   20  O   UNL     1      42.308 -18.344   4.565  1.00  0.00    -0.273 OA
HETATM   21  H   UNL     1      44.796 -17.523   2.745  1.00  0.00     0.169 HD
BRANCH  19  22
HETATM   22  C   UNL     1      44.628 -19.018   4.722  1.00  0.00     0.159 C 
BRANCH  22  23
HETATM   23  C   UNL     1      44.614 -20.476   4.370  1.00  0.00     0.017 A 
HETATM   24  N   UNL     1      44.407 -20.935   3.087  1.00  0.00    -0.369 N 
HETATM   25  H   UNL     1      44.208 -20.333   2.291  1.00  0.00     0.165 HD
HETATM   26  C   UNL     1      44.470 -22.301   3.065  1.00  0.00     0.088 A 
HETATM   27  C   UNL     1      44.727 -22.735   4.345  1.00  0.00     0.019 A 
HETATM   28  C   UNL     1      44.819 -21.587   5.168  1.00  0.00     0.027 A 
ENDBRANCH  22  23
ENDBRANCH  19  22
ENDBRANCH  15  18
ENDBRANCH  11  12
ENDBRANCH   2  11
TORSDOF 6
ENDMDL
MODEL 7
REMARK VINA RESULT:      -7.7      2.372      2.718
REMARK  6 active torsions:
REMARK  status: ('A' for Active; 'I' for Inactive)
REMARK    1  A    between atoms: O_2  and  C_3 
REMARK    2  A    between atoms: C_4  and  O_5 
REMARK    3  A    between atoms: O_5  and  C_6 
REMARK    4  A    between atoms: C_9  and  N_10 
REMARK       I    between atoms: N_10  and  C_11 
REMARK    5  A    between atoms: C_11  and  C_12 
REMARK    6  A    between atoms: C_12  and  C_13 
ROOT
HETATM    1  C   UNL     1      42.589 -16.948   2.815  1.00  0.00     0.103 A 
HETATM    2  C   UNL     1      41.666 -16.692   3.843  1.00  0.00     0.109 A 
HETATM    3  C   UNL     1      41.668 -17.464   5.011  1.00  0.00     0.041 A 
HETATM    4  C   UNL     1      42.555 -18.532   5.135  1.00  0.00     0.025 A 
HETATM    5  C   UNL     1      43.454 -18.817   4.102  1.00  0.00     0.047 A 
HETATM    6  C   UNL     1      44.368 -19.915   4.229  1.00  0.00     0.099 C 
HETATM    7  N   UNL     1      45.109 -20.803   4.326  1.00  0.00    -0.191 NA
HETATM    8  C   UNL     1      43.473 -18.025   2.945  1.00  0.00     0.062 A 
ENDROOT
BRANCH   1   9
HETATM    9  O   UNL     1      42.531 -16.115   1.729  1.00  0.00    -0.353 OA
HETATM   10  C   UNL     1      41.877 -16.605   0.565  1.00  0.00     0.210 C 
ENDBRANCH   1   9
BRANCH   2  11
HETATM   11  O   UNL     1      40.851 -15.588   3.713  1.00  0.00    -0.308 OA
BRANCH  11  12
HETATM   12  C   UNL     1      41.034 -14.517   4.554  1.00  0.00     0.076 A 
HETATM   13  C   UNL     1      39.874 -13.978   5.107  1.00  0.00     0.039 A 
HETATM   14  C   UNL     1      39.946 -12.922   6.021  1.00  0.00     0.032 A 
HETATM   15  C   UNL     1      41.182 -12.396   6.400  1.00  0.00     0.034 A 
HETATM   16  C   UNL     1      42.346 -12.946   5.844  1.00  0.00     0.032 A 
HETATM   17  C   UNL     1      42.276 -14.013   4.938  1.00  0.00     0.039 A 
BRANCH  15  18
HETATM   18  N   UNL     1      41.339 -11.337   7.319  1.00  0.00    -0.327 N 
HETATM   19  C   UNL     1      40.493 -11.003   8.369  1.00  0.00     0.227 C 
HETATM   20  O   UNL     1      39.491 -11.631   8.706  1.00  0.00    -0.273 OA
HETATM   21  H   UNL     1      42.188 -10.794   7.224  1.00  0.00     0.169 HD
BRANCH  19  22
HETATM   22  C   UNL     1      40.983  -9.776   9.143  1.00  0.00     0.159 C 
BRANCH  22  23
HETATM   23  C   UNL     1      41.820 -10.107  10.343  1.00  0.00     0.017 A 
HETATM   24  N   UNL     1      42.084 -11.400  10.738  1.00  0.00    -0.369 N 
HETATM   25  H   UNL     1      41.704 -12.226  10.280  1.00  0.00     0.165 HD
HETATM   26  C   UNL     1      42.888 -11.395  11.845  1.00  0.00     0.088 A 
HETATM   27  C   UNL     1      43.154 -10.086  12.169  1.00  0.00     0.019 A 
HETATM   28  C   UNL     1      42.484  -9.272  11.224  1.00  0.00     0.027 A 
ENDBRANCH  22  23
ENDBRANCH  19  22
ENDBRANCH  15  18
ENDBRANCH  11  12
ENDBRANCH   2  11
TORSDOF 6
ENDMDL
MODEL 8
REMARK VINA RESULT:      -7.7      5.694      9.128
REMARK  6 active torsions:
REMARK  status: ('A' for Active; 'I' for Inactive)
REMARK    1  A    between atoms: O_2  and  C_3 
REMARK    2  A    between atoms: C_4  and  O_5 
REMARK    3  A    between atoms: O_5  and  C_6 
REMARK    4  A    between atoms: C_9  and  N_10 
REMARK       I    between atoms: N_10  and  C_11 
REMARK    5  A    between atoms: C_11  and  C_12 
REMARK    6  A    between atoms: C_12  and  C_13 
ROOT
HETATM    1  C   UNL     1      38.025 -12.714  -2.570  1.00  0.00     0.103 A 
HETATM    2  C   UNL     1      38.919 -13.782  -2.386  1.00  0.00     0.109 A 
HETATM    3  C   UNL     1      38.776 -14.965  -3.120  1.00  0.00     0.041 A 
HETATM    4  C   UNL     1      37.706 -15.110  -4.002  1.00  0.00     0.025 A 
HETATM    5  C   UNL     1      36.791 -14.065  -4.167  1.00  0.00     0.047 A 
HETATM    6  C   UNL     1      35.690 -14.212  -5.074  1.00  0.00     0.099 C 
HETATM    7  N   UNL     1      34.796 -14.325  -5.806  1.00  0.00    -0.191 NA
HETATM    8  C   UNL     1      36.951 -12.868  -3.453  1.00  0.00     0.062 A 
ENDROOT
BRANCH   1   9
HETATM    9  O   UNL     1      38.271 -11.586  -1.833  1.00  0.00    -0.353 OA
HETATM   10  C   UNL     1      37.322 -11.243  -0.830  1.00  0.00     0.210 C 
ENDBRANCH   1   9
BRANCH   2  11
HETATM   11  O   UNL     1      40.001 -13.577  -1.556  1.00  0.00    -0.308 OA
BRANCH  11  12
HETATM   12  C   UNL     1      40.156 -14.377  -0.450  1.00  0.00     0.076 A 
HETATM   13  C   UNL     1      41.267 -15.219  -0.464  1.00  0.00     0.039 A 
HETATM   14  C   UNL     1      41.555 -16.035   0.634  1.00  0.00     0.032 A 
HETATM   15  C   UNL     1      40.738 -16.013   1.766  1.00  0.00     0.034 A 
HETATM   16  C   UNL     1      39.625 -15.161   1.776  1.00  0.00     0.032 A 
HETATM   17  C   UNL     1      39.342 -14.333   0.681  1.00  0.00     0.039 A 
BRANCH  15  18
HETATM   18  N   UNL     1      40.964 -16.801   2.915  1.00  0.00    -0.327 N 
HETATM   19  C   UNL     1      42.085 -16.792   3.733  1.00  0.00     0.227 C 
HETATM   20  O   UNL     1      43.048 -16.035   3.617  1.00  0.00    -0.273 OA
HETATM   21  H   UNL     1      40.198 -17.403   3.193  1.00  0.00     0.169 HD
BRANCH  19  22
HETATM   22  C   UNL     1      41.978 -17.801   4.880  1.00  0.00     0.159 C 
BRANCH  22  23
HETATM   23  C   UNL     1      43.067 -18.833   4.888  1.00  0.00     0.017 A 
HETATM   24  N   UNL     1      43.731 -19.229   3.747  1.00  0.00    -0.369 N 
HETATM   25  H   UNL     1      43.511 -18.892   2.812  1.00  0.00     0.165 HD
HETATM   26  C   UNL     1      44.682 -20.160   4.062  1.00  0.00     0.088 A 
HETATM   27  C   UNL     1      44.642 -20.366   5.421  1.00  0.00     0.019 A 
HETATM   28  C   UNL     1      43.627 -19.530   5.944  1.00  0.00     0.027 A 
ENDBRANCH  22  23
ENDBRANCH  19  22
ENDBRANCH  15  18
ENDBRANCH  11  12
ENDBRANCH   2  11
TORSDOF 6
ENDMDL
MODEL 9
REMARK VINA RESULT:      -7.7      5.069      7.054
REMARK  6 active torsions:
REMARK  status: ('A' for Active; 'I' for Inactive)
REMARK    1  A    between atoms: O_2  and  C_3 
REMARK    2  A    between atoms: C_4  and  O_5 
REMARK    3  A    between atoms: O_5  and  C_6 
REMARK    4  A    between atoms: C_9  and  N_10 
REMARK       I    between atoms: N_10  and  C_11 
REMARK    5  A    between atoms: C_11  and  C_12 
REMARK    6  A    between atoms: C_12  and  C_13 
ROOT
HETATM    1  C   UNL     1      43.855 -18.860   4.853  1.00  0.00     0.103 A 
HETATM    2  C   UNL     1      43.153 -17.911   4.091  1.00  0.00     0.109 A 
HETATM    3  C   UNL     1      42.819 -18.174   2.757  1.00  0.00     0.041 A 
HETATM    4  C   UNL     1      43.233 -19.364   2.160  1.00  0.00     0.025 A 
HETATM    5  C   UNL     1      43.963 -20.300   2.900  1.00  0.00     0.047 A 
HETATM    6  C   UNL     1      44.389 -21.525   2.287  1.00  0.00     0.099 C 
HETATM    7  N   UNL     1      44.737 -22.517   1.795  1.00  0.00    -0.191 NA
HETATM    8  C   UNL     1      44.271 -20.050   4.245  1.00  0.00     0.062 A 
ENDROOT
BRANCH   1   9
HETATM    9  O   UNL     1      44.102 -18.525   6.158  1.00  0.00    -0.353 OA
HETATM   10  C   UNL     1      45.383 -17.985   6.461  1.00  0.00     0.210 C 
ENDBRANCH   1   9
BRANCH   2  11
HETATM   11  O   UNL     1      42.704 -16.778   4.734  1.00  0.00    -0.308 OA
BRANCH  11  12
HETATM   12  C   UNL     1      42.475 -15.638   4.001  1.00  0.00     0.076 A 
HETATM   13  C   UNL     1      41.141 -15.372   3.698  1.00  0.00     0.039 A 
HETATM   14  C   UNL     1      40.788 -14.210   3.006  1.00  0.00     0.032 A 
HETATM   15  C   UNL     1      41.766 -13.294   2.614  1.00  0.00     0.034 A 
HETATM   16  C   UNL     1      43.105 -13.565   2.926  1.00  0.00     0.032 A 
HETATM   17  C   UNL     1      43.460 -14.723   3.630  1.00  0.00     0.039 A 
BRANCH  15  18
HETATM   18  N   UNL     1      41.489 -12.097   1.919  1.00  0.00    -0.327 N 
HETATM   19  C   UNL     1      41.720 -11.834   0.575  1.00  0.00     0.227 C 
HETATM   20  O   UNL     1      42.149 -12.642  -0.248  1.00  0.00    -0.273 OA
HETATM   21  H   UNL     1      41.029 -11.372   2.455  1.00  0.00     0.169 HD
BRANCH  19  22
HETATM   22  C   UNL     1      41.305 -10.413   0.180  1.00  0.00     0.159 C 
BRANCH  22  23
HETATM   23  C   UNL     1      42.454  -9.527  -0.198  1.00  0.00     0.017 A 
HETATM   24  N   UNL     1      42.891  -8.487   0.595  1.00  0.00    -0.369 N 
HETATM   25  H   UNL     1      42.449  -8.212   1.469  1.00  0.00     0.165 HD
HETATM   26  C   UNL     1      43.963  -7.873   0.009  1.00  0.00     0.088 A 
HETATM   27  C   UNL     1      44.232  -8.523  -1.173  1.00  0.00     0.019 A 
HETATM   28  C   UNL     1      43.284  -9.566  -1.304  1.00  0.00     0.027 A 
ENDBRANCH  22  23
ENDBRANCH  19  22
ENDBRANCH  15  18
ENDBRANCH  11  12
ENDBRANCH   2  11
TORSDOF 6
ENDMDL
MODEL 10
REMARK VINA RESULT:      -7.5      4.850      6.947
REMARK  6 active torsions:
REMARK  status: ('A' for Active; 'I' for Inactive)
REMARK    1  A    between atoms: O_2  and  C_3 
REMARK    2  A    between atoms: C_4  and  O_5 
REMARK    3  A    between atoms: O_5  and  C_6 
REMARK    4  A    between atoms: C_9  and  N_10 
REMARK       I    between atoms: N_10  and  C_11 
REMARK    5  A    between atoms: C_11  and  C_12 
REMARK    6  A    between atoms: C_12  and  C_13 
ROOT
HETATM    1  C   UNL     1      44.266 -18.900   5.112  1.00  0.00     0.103 A 
HETATM    2  C   UNL     1      43.894 -17.767   4.368  1.00  0.00     0.109 A 
HETATM    3  C   UNL     1      43.663 -17.865   2.991  1.00  0.00     0.041 A 
HETATM    4  C   UNL     1      43.856 -19.082   2.339  1.00  0.00     0.025 A 
HETATM    5  C   UNL     1      44.259 -20.207   3.066  1.00  0.00     0.047 A 
HETATM    6  C   UNL     1      44.457 -21.460   2.397  1.00  0.00     0.099 C 
HETATM    7  N   UNL     1      44.619 -22.477   1.860  1.00  0.00    -0.191 NA
HETATM    8  C   UNL     1      44.461 -20.116   4.451  1.00  0.00     0.062 A 
ENDROOT
BRANCH   1   9
HETATM    9  O   UNL     1      44.433 -18.710   6.459  1.00  0.00    -0.353 OA
HETATM   10  C   UNL     1      43.778 -19.623   7.332  1.00  0.00     0.210 C 
ENDBRANCH   1   9
BRANCH   2  11
HETATM   11  O   UNL     1      43.650 -16.599   5.057  1.00  0.00    -0.308 OA
BRANCH  11  12
HETATM   12  C   UNL     1      42.816 -15.657   4.503  1.00  0.00     0.076 A 
HETATM   13  C   UNL     1      41.452 -15.921   4.607  1.00  0.00     0.039 A 
HETATM   14  C   UNL     1      40.512 -15.003   4.129  1.00  0.00     0.032 A 
HETATM   15  C   UNL     1      40.926 -13.804   3.547  1.00  0.00     0.034 A 
HETATM   16  C   UNL     1      42.299 -13.542   3.450  1.00  0.00     0.032 A 
HETATM   17  C   UNL     1      43.242 -14.455   3.940  1.00  0.00     0.039 A 
BRANCH  15  18
HETATM   18  N   UNL     1      40.040 -12.826   3.046  1.00  0.00    -0.327 N 
HETATM   19  C   UNL     1      39.109 -12.088   3.765  1.00  0.00     0.227 C 
HETATM   20  O   UNL     1      38.954 -12.128   4.985  1.00  0.00    -0.273 OA
HETATM   21  H   UNL     1      40.133 -12.610   2.061  1.00  0.00     0.169 HD
BRANCH  19  22
HETATM   22  C   UNL     1      38.312 -11.129   2.875  1.00  0.00     0.159 C 
BRANCH  22  23
HETATM   23  C   UNL     1      38.176 -11.589   1.454  1.00  0.00     0.017 A 
HETATM   24  N   UNL     1      38.916 -11.058   0.420  1.00  0.00    -0.369 N 
HETATM   25  H   UNL     1      39.576 -10.291   0.526  1.00  0.00     0.165 HD
HETATM   26  C   UNL     1      38.597 -11.686  -0.752  1.00  0.00     0.088 A 
HETATM   27  C   UNL     1      37.644 -12.639  -0.478  1.00  0.00     0.019 A 
HETATM   28  C   UNL     1      37.379 -12.581   0.911  1.00  0.00     0.027 A 
ENDBRANCH  22  23
ENDBRANCH  19  22
ENDBRANCH  15  18
ENDBRANCH  11  12
ENDBRANCH   2  11
TORSDOF 6
ENDMDL
