MODEL 1
REMARK VINA RESULT:      -8.2      0.000      0.000
REMARK  5 active torsions:
REMARK  status: ('A' for Active; 'I' for Inactive)
REMARK    1  A    between atoms: C_2  and  O_3 
REMARK    2  A    between atoms: O_3  and  C_4 
REMARK    3  A    between atoms: C_4  and  C_5 
REMARK    4  A    between atoms: C_6  and  C_7 
REMARK    5  A    between atoms: C_22  and  N_23 
ROOT
HETATM    1  C   UNL     1      43.436 -17.340   5.650  1.00  0.00     0.075 A 
HETATM    2  C   UNL     1      43.129 -17.423   4.275  1.00  0.00     0.011 A 
HETATM    3  C   UNL     1      43.448 -18.629   3.614  1.00  0.00     0.074 A 
HETATM    4  C   UNL     1      44.047 -19.664   4.335  1.00  0.00     0.096 A 
HETATM    5  N   UNL     1      44.335 -19.566   5.657  1.00  0.00    -0.250 NA
HETATM    6  C   UNL     1      44.037 -18.415   6.305  1.00  0.00     0.048 A 
HETATM    7  C   UNL     1      44.393 -18.372   7.763  1.00  0.00     0.071 C 
HETATM    8  C   UNL     1      43.184 -18.887   2.172  1.00  0.00     0.260 A 
HETATM    9  O   UNL     1      42.620 -18.092   1.434  1.00  0.00    -0.267 OA
HETATM   10  N   UNL     1      43.605 -20.097   1.671  1.00  0.00    -0.312 N 
HETATM   11  C   UNL     1      44.197 -21.112   2.371  1.00  0.00     0.102 A 
HETATM   12  C   UNL     1      44.416 -20.933   3.691  1.00  0.00     0.098 A 
HETATM   13  C   UNL     1      45.029 -22.038   4.536  1.00  0.00     0.025 C 
HETATM   14  N   UNL     1      45.536 -22.955   5.237  1.00  0.00    -0.096 N 
HETATM   15  H   UNL     1      43.379 -20.251   0.696  1.00  0.00     0.170 HD
ENDROOT
BRANCH  11  16
HETATM   16  N   UNL     1      44.505 -22.248   1.663  1.00  0.00    -0.287 NA
HETATM   17  H   UNL     1      45.320 -22.149   1.062  1.00  0.00     0.125 HD
HETATM   18  H   UNL     1      44.537 -23.114   2.199  1.00  0.00     0.125 HD
ENDBRANCH  11  16
BRANCH   2  19
HETATM   19  C   UNL     1      42.504 -16.277   3.593  1.00  0.00    -0.024 A 
HETATM   20  C   UNL     1      43.292 -15.261   3.027  1.00  0.00     0.014 A 
HETATM   21  C   UNL     1      42.698 -14.169   2.387  1.00  0.00     0.024 A 
HETATM   22  C   UNL     1      41.311 -14.079   2.317  1.00  0.00     0.034 A 
HETATM   23 CL   UNL     1      40.579 -12.733   1.532  1.00  0.00    -0.084 Cl
HETATM   24  C   UNL     1      40.511 -15.069   2.882  1.00  0.00     0.024 A 
HETATM   25  C   UNL     1      41.105 -16.164   3.516  1.00  0.00     0.014 A 
ENDBRANCH   2  19
BRANCH   1  26
HETATM   26  C   UNL     1      43.186 -16.104   6.405  1.00  0.00     0.296 C 
HETATM   27  O   UNL     1      42.098 -15.796   6.854  1.00  0.00    -0.259 OA
BRANCH  26  28
HETATM   28  O   UNL     1      44.343 -15.406   6.449  1.00  0.00    -0.318 OA
BRANCH  28  29
HETATM   29  C   UNL     1      44.222 -13.975   6.472  1.00  0.00     0.174 C 
HETATM   30  C   UNL     1      44.886 -13.449   7.729  1.00  0.00     0.034 C 
ENDBRANCH  28  29
ENDBRANCH  26  28
ENDBRANCH   1  26
TORSDOF 5
ENDMDL
MODEL 2
REMARK VINA RESULT:      -7.6      1.136      1.612
REMARK  5 active torsions:
REMARK  status: ('A' for Active; 'I' for Inactive)
REMARK    1  A    between atoms: C_2  and  O_3 
REMARK    2  A    between atoms: O_3  and  C_4 
REMARK    3  A    between atoms: C_4  and  C_5 
REMARK    4  A    between atoms: C_6  and  C_7 
REMARK    5  A    between atoms: C_22  and  N_23 
ROOT
HETATM    1  C   UNL     1      42.939 -17.086   5.201  1.00  0.00     0.075 A 
HETATM    2  C   UNL     1      42.755 -17.318   3.821  1.00  0.00     0.011 A 
HETATM    3  C   UNL     1      43.203 -18.556   3.309  1.00  0.00     0.074 A 
HETATM    4  C   UNL     1      43.802 -19.474   4.173  1.00  0.00     0.096 A 
HETATM    5  N   UNL     1      43.972 -19.233   5.497  1.00  0.00    -0.250 NA
HETATM    6  C   UNL     1      43.549 -18.050   6.003  1.00  0.00     0.048 A 
HETATM    7  C   UNL     1      43.779 -17.847   7.473  1.00  0.00     0.071 C 
HETATM    8  C   UNL     1      43.077 -18.965   1.884  1.00  0.00     0.260 A 
HETATM    9  O   UNL     1      42.528 -18.284   1.030  1.00  0.00    -0.267 OA
HETATM   10  N   UNL     1      43.613 -20.184   1.539  1.00  0.00    -0.312 N 
HETATM   11  C   UNL     1      44.205 -21.086   2.380  1.00  0.00     0.102 A 
HETATM   12  C   UNL     1      44.302 -20.769   3.689  1.00  0.00     0.098 A 
HETATM   13  C   UNL     1      44.908 -21.745   4.684  1.00  0.00     0.025 C 
HETATM   14  N   UNL     1      45.411 -22.554   5.509  1.00  0.00    -0.096 N 
HETATM   15  H   UNL     1      43.479 -20.444   0.570  1.00  0.00     0.170 HD
ENDROOT
BRANCH  11  16
HETATM   16  N   UNL     1      44.641 -22.258   1.813  1.00  0.00    -0.287 NA
HETATM   17  H   UNL     1      43.899 -22.932   1.639  1.00  0.00     0.125 HD
HETATM   18  H   UNL     1      45.257 -22.162   1.007  1.00  0.00     0.125 HD
ENDBRANCH  11  16
BRANCH   2  19
HETATM   19  C   UNL     1      42.119 -16.287   2.983  1.00  0.00    -0.024 A 
HETATM   20  C   UNL     1      42.841 -15.160   2.560  1.00  0.00     0.014 A 
HETATM   21  C   UNL     1      42.236 -14.177   1.772  1.00  0.00     0.024 A 
HETATM   22  C   UNL     1      40.899 -14.309   1.408  1.00  0.00     0.034 A 
HETATM   23 CL   UNL     1      40.151 -13.099   0.440  1.00  0.00    -0.084 Cl
HETATM   24  C   UNL     1      40.161 -15.414   1.826  1.00  0.00     0.024 A 
HETATM   25  C   UNL     1      40.769 -16.399   2.609  1.00  0.00     0.014 A 
ENDBRANCH   2  19
BRANCH   1  26
HETATM   26  C   UNL     1      42.551 -15.805   5.809  1.00  0.00     0.296 C 
HETATM   27  O   UNL     1      43.343 -14.927   6.094  1.00  0.00    -0.259 OA
BRANCH  26  28
HETATM   28  O   UNL     1      41.215 -15.832   6.012  1.00  0.00    -0.318 OA
BRANCH  28  29
HETATM   29  C   UNL     1      40.596 -14.579   6.344  1.00  0.00     0.174 C 
HETATM   30  C   UNL     1      39.806 -14.092   5.145  1.00  0.00     0.034 C 
ENDBRANCH  28  29
ENDBRANCH  26  28
ENDBRANCH   1  26
TORSDOF 5
ENDMDL
MODEL 3
REMARK VINA RESULT:      -7.5      2.057      4.506
REMARK  5 active torsions:
REMARK  status: ('A' for Active; 'I' for Inactive)
REMARK    1  A    between atoms: C_2  and  O_3 
REMARK    2  A    between atoms: O_3  and  C_4 
REMARK    3  A    between atoms: C_4  and  C_5 
REMARK    4  A    between atoms: C_6  and  C_7 
REMARK    5  A    between atoms: C_22  and  N_23 
ROOT
HETATM    1  C   UNL     1      42.752 -17.018   3.162  1.00  0.00     0.075 A 
HETATM    2  C   UNL     1      42.561 -16.643   4.508  1.00  0.00     0.011 A 
HETATM    3  C   UNL     1      42.934 -17.579   5.498  1.00  0.00     0.074 A 
HETATM    4  C   UNL     1      43.458 -18.812   5.108  1.00  0.00     0.096 A 
HETATM    5  N   UNL     1      43.634 -19.156   3.808  1.00  0.00    -0.250 NA
HETATM    6  C   UNL     1      43.280 -18.270   2.846  1.00  0.00     0.048 A 
HETATM    7  C   UNL     1      43.492 -18.722   1.430  1.00  0.00     0.071 C 
HETATM    8  C   UNL     1      42.809 -17.341   6.962  1.00  0.00     0.260 A 
HETATM    9  O   UNL     1      42.416 -16.289   7.446  1.00  0.00    -0.267 OA
HETATM   10  N   UNL     1      43.168 -18.377   7.792  1.00  0.00    -0.312 N 
HETATM   11  C   UNL     1      43.678 -19.589   7.415  1.00  0.00     0.102 A 
HETATM   12  C   UNL     1      43.845 -19.829   6.097  1.00  0.00     0.098 A 
HETATM   13  C   UNL     1      44.448 -21.138   5.614  1.00  0.00     0.025 C 
HETATM   14  N   UNL     1      44.948 -22.223   5.212  1.00  0.00    -0.096 N 
HETATM   15  H   UNL     1      43.102 -18.167   8.780  1.00  0.00     0.170 HD
ENDROOT
BRANCH  11  16
HETATM   16  N   UNL     1      43.995 -20.462   8.427  1.00  0.00    -0.287 NA
HETATM   17  H   UNL     1      43.837 -20.087   9.359  1.00  0.00     0.125 HD
HETATM   18  H   UNL     1      43.622 -21.406   8.335  1.00  0.00     0.125 HD
ENDBRANCH  11  16
BRANCH   2  19
HETATM   19  C   UNL     1      41.994 -15.322   4.827  1.00  0.00    -0.024 A 
HETATM   20  C   UNL     1      40.615 -15.168   5.050  1.00  0.00     0.014 A 
HETATM   21  C   UNL     1      40.075 -13.913   5.344  1.00  0.00     0.024 A 
HETATM   22  C   UNL     1      40.908 -12.799   5.409  1.00  0.00     0.034 A 
HETATM   23 CL   UNL     1      40.243 -11.253   5.769  1.00  0.00    -0.084 Cl
HETATM   24  C   UNL     1      42.275 -12.928   5.181  1.00  0.00     0.024 A 
HETATM   25  C   UNL     1      42.816 -14.184   4.892  1.00  0.00     0.014 A 
ENDBRANCH   2  19
BRANCH   1  26
HETATM   26  C   UNL     1      42.344 -16.128   2.065  1.00  0.00     0.296 C 
HETATM   27  O   UNL     1      43.071 -15.283   1.578  1.00  0.00    -0.259 OA
BRANCH  26  28
HETATM   28  O   UNL     1      41.055 -16.404   1.767  1.00  0.00    -0.318 OA
BRANCH  28  29
HETATM   29  C   UNL     1      40.319 -15.362   1.106  1.00  0.00     0.174 C 
HETATM   30  C   UNL     1      39.021 -15.131   1.855  1.00  0.00     0.034 C 
ENDBRANCH  28  29
ENDBRANCH  26  28
ENDBRANCH   1  26
TORSDOF 5
ENDMDL
MODEL 4
REMARK VINA RESULT:      -7.4      4.276      6.735
REMARK  5 active torsions:
REMARK  status: ('A' for Active; 'I' for Inactive)
REMARK    1  A    between atoms: C_2  and  O_3 
REMARK    2  A    between atoms: O_3  and  C_4 
REMARK    3  A    between atoms: C_4  and  C_5 
REMARK    4  A    between atoms: C_6  and  C_7 
REMARK    5  A    between atoms: C_22  and  N_23 
ROOT
HETATM    1  C   UNL     1      42.094 -14.146   4.636  1.00  0.00     0.075 A 
HETATM    2  C   UNL     1      41.699 -14.993   3.579  1.00  0.00     0.011 A 
HETATM    3  C   UNL     1      40.611 -14.570   2.784  1.00  0.00     0.074 A 
HETATM    4  C   UNL     1      39.984 -13.358   3.077  1.00  0.00     0.096 A 
HETATM    5  N   UNL     1      40.376 -12.556   4.098  1.00  0.00    -0.250 NA
HETATM    6  C   UNL     1      41.417 -12.949   4.871  1.00  0.00     0.048 A 
HETATM    7  C   UNL     1      41.790 -12.019   5.989  1.00  0.00     0.071 C 
HETATM    8  C   UNL     1      40.075 -15.336   1.626  1.00  0.00     0.260 A 
HETATM    9  O   UNL     1      40.559 -16.385   1.225  1.00  0.00    -0.267 OA
HETATM   10  N   UNL     1      38.976 -14.808   0.989  1.00  0.00    -0.312 N 
HETATM   11  C   UNL     1      38.353 -13.624   1.275  1.00  0.00     0.102 A 
HETATM   12  C   UNL     1      38.836 -12.880   2.292  1.00  0.00     0.098 A 
HETATM   13  C   UNL     1      38.219 -11.533   2.633  1.00  0.00     0.025 C 
HETATM   14  N   UNL     1      37.707 -10.416   2.916  1.00  0.00    -0.096 N 
HETATM   15  H   UNL     1      38.659 -15.339   0.187  1.00  0.00     0.170 HD
ENDROOT
BRANCH  11  16
HETATM   16  N   UNL     1      37.286 -13.284   0.480  1.00  0.00    -0.287 NA
HETATM   17  H   UNL     1      36.492 -12.912   0.994  1.00  0.00     0.125 HD
HETATM   18  H   UNL     1      37.503 -12.717  -0.339  1.00  0.00     0.125 HD
ENDBRANCH  11  16
BRANCH   2  19
HETATM   19  C   UNL     1      42.416 -16.259   3.348  1.00  0.00    -0.024 A 
HETATM   20  C   UNL     1      43.465 -16.330   2.417  1.00  0.00     0.014 A 
HETATM   21  C   UNL     1      44.140 -17.533   2.190  1.00  0.00     0.024 A 
HETATM   22  C   UNL     1      43.764 -18.678   2.886  1.00  0.00     0.034 A 
HETATM   23 CL   UNL     1      44.593 -20.160   2.606  1.00  0.00    -0.084 Cl
HETATM   24  C   UNL     1      42.719 -18.633   3.806  1.00  0.00     0.024 A 
HETATM   25  C   UNL     1      42.048 -17.428   4.036  1.00  0.00     0.014 A 
ENDBRANCH   2  19
BRANCH   1  26
HETATM   26  C   UNL     1      43.182 -14.532   5.546  1.00  0.00     0.296 C 
HETATM   27  O   UNL     1      44.342 -14.203   5.386  1.00  0.00    -0.259 OA
BRANCH  26  28
HETATM   28  O   UNL     1      42.654 -15.319   6.511  1.00  0.00    -0.318 OA
BRANCH  28  29
HETATM   29  C   UNL     1      43.588 -16.086   7.286  1.00  0.00     0.174 C 
HETATM   30  C   UNL     1      42.935 -17.396   7.681  1.00  0.00     0.034 C 
ENDBRANCH  28  29
ENDBRANCH  26  28
ENDBRANCH   1  26
TORSDOF 5
ENDMDL
MODEL 5
REMARK VINA RESULT:      -7.2      3.864      6.375
REMARK  5 active torsions:
REMARK  status: ('A' for Active; 'I' for Inactive)
REMARK    1  A    between atoms: C_2  and  O_3 
REMARK    2  A    between atoms: O_3  and  C_4 
REMARK    3  A    between atoms: C_4  and  C_5 
REMARK    4  A    between atoms: C_6  and  C_7 
REMARK    5  A    between atoms: C_22  and  N_23 
ROOT
HETATM    1  C   UNL     1      41.718 -14.002   3.621  1.00  0.00     0.075 A 
HETATM    2  C   UNL     1      41.810 -15.253   2.974  1.00  0.00     0.011 A 
HETATM    3  C   UNL     1      41.452 -15.301   1.609  1.00  0.00     0.074 A 
HETATM    4  C   UNL     1      41.026 -14.134   0.974  1.00  0.00     0.096 A 
HETATM    5  N   UNL     1      40.943 -12.940   1.612  1.00  0.00    -0.250 NA
HETATM    6  C   UNL     1      41.281 -12.877   2.922  1.00  0.00     0.048 A 
HETATM    7  C   UNL     1      41.154 -11.527   3.567  1.00  0.00     0.071 C 
HETATM    8  C   UNL     1      41.501 -16.533   0.775  1.00  0.00     0.260 A 
HETATM    9  O   UNL     1      41.903 -17.613   1.186  1.00  0.00    -0.267 OA
HETATM   10  N   UNL     1      41.068 -16.420  -0.525  1.00  0.00    -0.312 N 
HETATM   11  C   UNL     1      40.645 -15.280  -1.152  1.00  0.00     0.102 A 
HETATM   12  C   UNL     1      40.625 -14.132  -0.441  1.00  0.00     0.098 A 
HETATM   13  C   UNL     1      40.208 -12.822  -1.089  1.00  0.00     0.025 C 
HETATM   14  N   UNL     1      39.863 -11.735  -1.626  1.00  0.00    -0.096 N 
HETATM   15  H   UNL     1      41.147 -17.270  -1.071  1.00  0.00     0.170 HD
ENDROOT
BRANCH  11  16
HETATM   16  N   UNL     1      40.288 -15.402  -2.472  1.00  0.00    -0.287 NA
HETATM   17  H   UNL     1      40.835 -14.820  -3.101  1.00  0.00     0.125 HD
HETATM   18  H   UNL     1      40.199 -16.354  -2.824  1.00  0.00     0.125 HD
ENDBRANCH  11  16
BRANCH   2  19
HETATM   19  C   UNL     1      42.263 -16.435   3.726  1.00  0.00    -0.024 A 
HETATM   20  C   UNL     1      41.371 -17.155   4.538  1.00  0.00     0.014 A 
HETATM   21  C   UNL     1      41.803 -18.273   5.258  1.00  0.00     0.024 A 
HETATM   22  C   UNL     1      43.133 -18.673   5.181  1.00  0.00     0.034 A 
HETATM   23 CL   UNL     1      43.666 -20.047   6.070  1.00  0.00    -0.084 Cl
HETATM   24  C   UNL     1      44.037 -17.967   4.391  1.00  0.00     0.024 A 
HETATM   25  C   UNL     1      43.603 -16.853   3.666  1.00  0.00     0.014 A 
ENDBRANCH   2  19
BRANCH   1  26
HETATM   26  C   UNL     1      42.020 -13.870   5.053  1.00  0.00     0.296 C 
HETATM   27  O   UNL     1      41.172 -13.893   5.926  1.00  0.00    -0.259 OA
BRANCH  26  28
HETATM   28  O   UNL     1      43.353 -13.682   5.179  1.00  0.00    -0.318 OA
BRANCH  28  29
HETATM   29  C   UNL     1      43.879 -13.735   6.515  1.00  0.00     0.174 C 
HETATM   30  C   UNL     1      44.336 -15.151   6.803  1.00  0.00     0.034 C 
ENDBRANCH  28  29
ENDBRANCH  26  28
ENDBRANCH   1  26
TORSDOF 5
ENDMDL
MODEL 6
REMARK VINA RESULT:      -7.1      2.727      4.990
REMARK  5 active torsions:
REMARK  status: ('A' for Active; 'I' for Inactive)
REMARK    1  A    between atoms: C_2  and  O_3 
REMARK    2  A    between atoms: O_3  and  C_4 
REMARK    3  A    between atoms: C_4  and  C_5 
REMARK    4  A    between atoms: C_6  and  C_7 
REMARK    5  A    between atoms: C_22  and  N_23 
ROOT
HETATM    1  C   UNL     1      41.483 -15.510   2.436  1.00  0.00     0.075 A 
HETATM    2  C   UNL     1      41.729 -15.516   3.825  1.00  0.00     0.011 A 
HETATM    3  C   UNL     1      42.400 -16.640   4.357  1.00  0.00     0.074 A 
HETATM    4  C   UNL     1      42.778 -17.676   3.501  1.00  0.00     0.096 A 
HETATM    5  N   UNL     1      42.532 -17.653   2.167  1.00  0.00    -0.250 NA
HETATM    6  C   UNL     1      41.888 -16.583   1.642  1.00  0.00     0.048 A 
HETATM    7  C   UNL     1      41.640 -16.630   0.162  1.00  0.00     0.071 C 
HETATM    8  C   UNL     1      42.747 -16.803   5.794  1.00  0.00     0.260 A 
HETATM    9  O   UNL     1      42.524 -15.953   6.645  1.00  0.00    -0.267 OA
HETATM   10  N   UNL     1      43.354 -17.982   6.156  1.00  0.00    -0.312 N 
HETATM   11  C   UNL     1      43.722 -19.003   5.324  1.00  0.00     0.102 A 
HETATM   12  C   UNL     1      43.462 -18.876   4.005  1.00  0.00     0.098 A 
HETATM   13  C   UNL     1      43.885 -19.953   3.020  1.00  0.00     0.025 C 
HETATM   14  N   UNL     1      44.235 -20.847   2.203  1.00  0.00    -0.096 N 
HETATM   15  H   UNL     1      43.606 -18.043   7.136  1.00  0.00     0.170 HD
ENDROOT
BRANCH  11  16
HETATM   16  N   UNL     1      44.347 -20.077   5.909  1.00  0.00    -0.287 NA
HETATM   17  H   UNL     1      43.752 -20.895   6.008  1.00  0.00     0.125 HD
HETATM   18  H   UNL     1      45.261 -20.322   5.530  1.00  0.00     0.125 HD
ENDBRANCH  11  16
BRANCH   2  19
HETATM   19  C   UNL     1      41.288 -14.381   4.653  1.00  0.00    -0.024 A 
HETATM   20  C   UNL     1      42.130 -13.277   4.863  1.00  0.00     0.014 A 
HETATM   21  C   UNL     1      41.715 -12.202   5.656  1.00  0.00     0.024 A 
HETATM   22  C   UNL     1      40.458 -12.229   6.253  1.00  0.00     0.034 A 
HETATM   23 CL   UNL     1      39.947 -10.908   7.231  1.00  0.00    -0.084 Cl
HETATM   24  C   UNL     1      39.611 -13.319   6.067  1.00  0.00     0.024 A 
HETATM   25  C   UNL     1      40.025 -14.390   5.269  1.00  0.00     0.014 A 
ENDBRANCH   2  19
BRANCH   1  26
HETATM   26  C   UNL     1      40.745 -14.406   1.805  1.00  0.00     0.296 C 
HETATM   27  O   UNL     1      41.276 -13.399   1.374  1.00  0.00    -0.259 OA
BRANCH  26  28
HETATM   28  O   UNL     1      39.429 -14.711   1.848  1.00  0.00    -0.318 OA
BRANCH  28  29
HETATM   29  C   UNL     1      38.516 -13.618   1.663  1.00  0.00     0.174 C 
HETATM   30  C   UNL     1      37.423 -14.051   0.706  1.00  0.00     0.034 C 
ENDBRANCH  28  29
ENDBRANCH  26  28
ENDBRANCH   1  26
TORSDOF 5
ENDMDL
MODEL 7
REMARK VINA RESULT:      -7.1      1.934      2.769
REMARK  5 active torsions:
REMARK  status: ('A' for Active; 'I' for Inactive)
REMARK    1  A    between atoms: C_2  and  O_3 
REMARK    2  A    between atoms: O_3  and  C_4 
REMARK    3  A    between atoms: C_4  and  C_5 
REMARK    4  A    between atoms: C_6  and  C_7 
REMARK    5  A    between atoms: C_22  and  N_23 
ROOT
HETATM    1  C   UNL     1      42.301 -15.464   4.685  1.00  0.00     0.075 A 
HETATM    2  C   UNL     1      41.934 -15.879   3.387  1.00  0.00     0.011 A 
HETATM    3  C   UNL     1      42.366 -17.158   2.972  1.00  0.00     0.074 A 
HETATM    4  C   UNL     1      43.128 -17.937   3.846  1.00  0.00     0.096 A 
HETATM    5  N   UNL     1      43.473 -17.520   5.090  1.00  0.00    -0.250 NA
HETATM    6  C   UNL     1      43.067 -16.295   5.502  1.00  0.00     0.048 A 
HETATM    7  C   UNL     1      43.493 -15.895   6.885  1.00  0.00     0.071 C 
HETATM    8  C   UNL     1      42.059 -17.754   1.644  1.00  0.00     0.260 A 
HETATM    9  O   UNL     1      41.360 -17.208   0.802  1.00  0.00    -0.267 OA
HETATM   10  N   UNL     1      42.602 -18.990   1.378  1.00  0.00    -0.312 N 
HETATM   11  C   UNL     1      43.353 -19.755   2.227  1.00  0.00     0.102 A 
HETATM   12  C   UNL     1      43.619 -19.267   3.457  1.00  0.00     0.098 A 
HETATM   13  C   UNL     1      44.410 -20.085   4.465  1.00  0.00     0.025 C 
HETATM   14  N   UNL     1      45.066 -20.763   5.301  1.00  0.00    -0.096 N 
HETATM   15  H   UNL     1      42.344 -19.378   0.478  1.00  0.00     0.170 HD
ENDROOT
BRANCH  11  16
HETATM   16  N   UNL     1      43.763 -20.976   1.752  1.00  0.00    -0.287 NA
HETATM   17  H   UNL     1      44.442 -20.917   0.997  1.00  0.00     0.125 HD
HETATM   18  H   UNL     1      44.043 -21.658   2.456  1.00  0.00     0.125 HD
ENDBRANCH  11  16
BRANCH   2  19
HETATM   19  C   UNL     1      41.134 -14.988   2.531  1.00  0.00    -0.024 A 
HETATM   20  C   UNL     1      39.732 -15.081   2.510  1.00  0.00     0.014 A 
HETATM   21  C   UNL     1      38.972 -14.240   1.691  1.00  0.00     0.024 A 
HETATM   22  C   UNL     1      39.609 -13.307   0.878  1.00  0.00     0.034 A 
HETATM   23 CL   UNL     1      38.675 -12.274  -0.133  1.00  0.00    -0.084 Cl
HETATM   24  C   UNL     1      40.998 -13.205   0.875  1.00  0.00     0.024 A 
HETATM   25  C   UNL     1      41.757 -14.042   1.698  1.00  0.00     0.014 A 
ENDBRANCH   2  19
BRANCH   1  26
HETATM   26  C   UNL     1      41.939 -14.128   5.179  1.00  0.00     0.296 C 
HETATM   27  O   UNL     1      42.633 -13.141   5.024  1.00  0.00    -0.259 OA
BRANCH  26  28
HETATM   28  O   UNL     1      40.766 -14.236   5.843  1.00  0.00    -0.318 OA
BRANCH  28  29
HETATM   29  C   UNL     1      39.777 -13.235   5.553  1.00  0.00     0.174 C 
HETATM   30  C   UNL     1      39.477 -12.463   6.823  1.00  0.00     0.034 C 
ENDBRANCH  28  29
ENDBRANCH  26  28
ENDBRANCH   1  26
TORSDOF 5
ENDMDL
MODEL 8
REMARK VINA RESULT:      -7.1      4.562      7.816
REMARK  5 active torsions:
REMARK  status: ('A' for Active; 'I' for Inactive)
REMARK    1  A    between atoms: C_2  and  O_3 
REMARK    2  A    between atoms: O_3  and  C_4 
REMARK    3  A    between atoms: C_4  and  C_5 
REMARK    4  A    between atoms: C_6  and  C_7 
REMARK    5  A    between atoms: C_22  and  N_23 
ROOT
HETATM    1  C   UNL     1      41.660 -15.327   2.569  1.00  0.00     0.075 A 
HETATM    2  C   UNL     1      41.291 -14.873   3.853  1.00  0.00     0.011 A 
HETATM    3  C   UNL     1      40.374 -13.801   3.921  1.00  0.00     0.074 A 
HETATM    4  C   UNL     1      39.887 -13.245   2.736  1.00  0.00     0.096 A 
HETATM    5  N   UNL     1      40.253 -13.694   1.510  1.00  0.00    -0.250 NA
HETATM    6  C   UNL     1      41.134 -14.720   1.428  1.00  0.00     0.048 A 
HETATM    7  C   UNL     1      41.503 -15.157   0.040  1.00  0.00     0.071 C 
HETATM    8  C   UNL     1      39.872 -13.209   5.190  1.00  0.00     0.260 A 
HETATM    9  O   UNL     1      40.173 -13.630   6.299  1.00  0.00    -0.267 OA
HETATM   10  N   UNL     1      39.022 -12.134   5.080  1.00  0.00    -0.312 N 
HETATM   11  C   UNL     1      38.545 -11.581   3.923  1.00  0.00     0.102 A 
HETATM   12  C   UNL     1      38.944 -12.117   2.750  1.00  0.00     0.098 A 
HETATM   13  C   UNL     1      38.417 -11.579   1.429  1.00  0.00     0.025 C 
HETATM   14  N   UNL     1      37.980 -11.134   0.334  1.00  0.00    -0.096 N 
HETATM   15  H   UNL     1      38.675 -11.779   5.963  1.00  0.00     0.170 HD
ENDROOT
BRANCH  11  16
HETATM   16  N   UNL     1      37.677 -10.526   4.059  1.00  0.00    -0.287 NA
HETATM   17  H   UNL     1      36.891 -10.717   4.675  1.00  0.00     0.125 HD
HETATM   18  H   UNL     1      38.102  -9.622   4.263  1.00  0.00     0.125 HD
ENDBRANCH  11  16
BRANCH   2  19
HETATM   19  C   UNL     1      41.862 -15.515   5.049  1.00  0.00    -0.024 A 
HETATM   20  C   UNL     1      43.104 -15.105   5.561  1.00  0.00     0.014 A 
HETATM   21  C   UNL     1      43.650 -15.720   6.691  1.00  0.00     0.024 A 
HETATM   22  C   UNL     1      42.962 -16.759   7.313  1.00  0.00     0.034 A 
HETATM   23 CL   UNL     1      43.635 -17.519   8.703  1.00  0.00    -0.084 Cl
HETATM   24  C   UNL     1      41.734 -17.189   6.816  1.00  0.00     0.024 A 
HETATM   25  C   UNL     1      41.187 -16.569   5.689  1.00  0.00     0.014 A 
ENDBRANCH   2  19
BRANCH   1  26
HETATM   26  C   UNL     1      42.648 -16.402   2.404  1.00  0.00     0.296 C 
HETATM   27  O   UNL     1      43.834 -16.204   2.214  1.00  0.00    -0.259 OA
BRANCH  26  28
HETATM   28  O   UNL     1      41.989 -17.581   2.458  1.00  0.00    -0.318 OA
BRANCH  28  29
HETATM   29  C   UNL     1      42.804 -18.763   2.507  1.00  0.00     0.174 C 
HETATM   30  C   UNL     1      43.337 -18.931   3.916  1.00  0.00     0.034 C 
ENDBRANCH  28  29
ENDBRANCH  26  28
ENDBRANCH   1  26
TORSDOF 5
ENDMDL
MODEL 9
REMARK VINA RESULT:      -6.8      4.164      6.763
REMARK  5 active torsions:
REMARK  status: ('A' for Active; 'I' for Inactive)
REMARK    1  A    between atoms: C_2  and  O_3 
REMARK    2  A    between atoms: O_3  and  C_4 
REMARK    3  A    between atoms: C_4  and  C_5 
REMARK    4  A    between atoms: C_6  and  C_7 
REMARK    5  A    between atoms: C_22  and  N_23 
ROOT
HETATM    1  C   UNL     1      40.394 -13.991   3.079  1.00  0.00     0.075 A 
HETATM    2  C   UNL     1      41.087 -15.073   2.496  1.00  0.00     0.011 A 
HETATM    3  C   UNL     1      41.070 -15.166   1.086  1.00  0.00     0.074 A 
HETATM    4  C   UNL     1      40.377 -14.205   0.348  1.00  0.00     0.096 A 
HETATM    5  N   UNL     1      39.715 -13.172   0.927  1.00  0.00    -0.250 NA
HETATM    6  C   UNL     1      39.720 -13.070   2.277  1.00  0.00     0.048 A 
HETATM    7  C   UNL     1      38.959 -11.909   2.849  1.00  0.00     0.071 C 
HETATM    8  C   UNL     1      41.756 -16.235   0.311  1.00  0.00     0.260 A 
HETATM    9  O   UNL     1      42.442 -17.109   0.823  1.00  0.00    -0.267 OA
HETATM   10  N   UNL     1      41.597 -16.211  -1.055  1.00  0.00    -0.312 N 
HETATM   11  C   UNL     1      40.915 -15.275  -1.783  1.00  0.00     0.102 A 
HETATM   12  C   UNL     1      40.313 -14.265  -1.120  1.00  0.00     0.098 A 
HETATM   13  C   UNL     1      39.576 -13.169  -1.872  1.00  0.00     0.025 C 
HETATM   14  N   UNL     1      38.966 -12.259  -2.495  1.00  0.00    -0.096 N 
HETATM   15  H   UNL     1      42.105 -16.933  -1.551  1.00  0.00     0.170 HD
ENDROOT
BRANCH  11  16
HETATM   16  N   UNL     1      40.917 -15.439  -3.147  1.00  0.00    -0.287 NA
HETATM   17  H   UNL     1      41.116 -16.390  -3.446  1.00  0.00     0.125 HD
HETATM   18  H   UNL     1      40.117 -15.049  -3.644  1.00  0.00     0.125 HD
ENDBRANCH  11  16
BRANCH   2  19
HETATM   19  C   UNL     1      41.785 -16.045   3.354  1.00  0.00    -0.024 A 
HETATM   20  C   UNL     1      41.121 -17.184   3.837  1.00  0.00     0.014 A 
HETATM   21  C   UNL     1      41.781 -18.102   4.660  1.00  0.00     0.024 A 
HETATM   22  C   UNL     1      43.109 -17.882   5.013  1.00  0.00     0.034 A 
HETATM   23 CL   UNL     1      43.922 -19.010   6.027  1.00  0.00    -0.084 Cl
HETATM   24  C   UNL     1      43.784 -16.754   4.554  1.00  0.00     0.024 A 
HETATM   25  C   UNL     1      43.125 -15.839   3.728  1.00  0.00     0.014 A 
ENDBRANCH   2  19
BRANCH   1  26
HETATM   26  C   UNL     1      40.315 -13.846   4.540  1.00  0.00     0.296 C 
HETATM   27  O   UNL     1      39.430 -14.332   5.218  1.00  0.00    -0.259 OA
BRANCH  26  28
HETATM   28  O   UNL     1      41.346 -13.065   4.934  1.00  0.00    -0.318 OA
BRANCH  28  29
HETATM   29  C   UNL     1      41.074 -12.146   6.004  1.00  0.00     0.174 C 
HETATM   30  C   UNL     1      41.245 -10.731   5.486  1.00  0.00     0.034 C 
ENDBRANCH  28  29
ENDBRANCH  26  28
ENDBRANCH   1  26
TORSDOF 5
ENDMDL
MODEL 10
REMARK VINA RESULT:      -6.6      4.857      7.525
REMARK  5 active torsions:
REMARK  status: ('A' for Active; 'I' for Inactive)
REMARK    1  A    between atoms: C_2  and  O_3 
REMARK    2  A    between atoms: O_3  and  C_4 
REMARK    3  A    between atoms: C_4  and  C_5 
REMARK    4  A    between atoms: C_6  and  C_7 
REMARK    5  A    between atoms: C_22  and  N_23 
ROOT
HETATM    1  C   UNL     1      40.679 -13.978   2.578  1.00  0.00     0.075 A 
HETATM    2  C   UNL     1      40.974 -14.842   1.502  1.00  0.00     0.011 A 
HETATM    3  C   UNL     1      40.426 -14.514   0.242  1.00  0.00     0.074 A 
HETATM    4  C   UNL     1      39.627 -13.376   0.122  1.00  0.00     0.096 A 
HETATM    5  N   UNL     1      39.354 -12.557   1.168  1.00  0.00    -0.250 NA
HETATM    6  C   UNL     1      39.871 -12.858   2.383  1.00  0.00     0.048 A 
HETATM    7  C   UNL     1      39.518 -11.915   3.498  1.00  0.00     0.071 C 
HETATM    8  C   UNL     1      40.645 -15.309  -0.996  1.00  0.00     0.260 A 
HETATM    9  O   UNL     1      41.362 -16.298  -1.048  1.00  0.00    -0.267 OA
HETATM   10  N   UNL     1      39.995 -14.881  -2.131  1.00  0.00    -0.312 N 
HETATM   11  C   UNL     1      39.207 -13.770  -2.254  1.00  0.00     0.102 A 
HETATM   12  C   UNL     1      39.018 -12.999  -1.162  1.00  0.00     0.098 A 
HETATM   13  C   UNL     1      38.191 -11.726  -1.241  1.00  0.00     0.025 C 
HETATM   14  N   UNL     1      37.505 -10.670  -1.307  1.00  0.00    -0.096 N 
HETATM   15  H   UNL     1      40.194 -15.426  -2.961  1.00  0.00     0.170 HD
ENDROOT
BRANCH  11  16
HETATM   16  N   UNL     1      38.685 -13.523  -3.500  1.00  0.00    -0.287 NA
HETATM   17  H   UNL     1      39.389 -13.355  -4.215  1.00  0.00     0.125 HD
HETATM   18  H   UNL     1      37.972 -14.176  -3.822  1.00  0.00     0.125 HD
ENDBRANCH  11  16
BRANCH   2  19
HETATM   19  C   UNL     1      41.821 -16.026   1.724  1.00  0.00    -0.024 A 
HETATM   20  C   UNL     1      41.246 -17.277   2.004  1.00  0.00     0.014 A 
HETATM   21  C   UNL     1      42.050 -18.400   2.223  1.00  0.00     0.024 A 
HETATM   22  C   UNL     1      43.435 -18.278   2.173  1.00  0.00     0.034 A 
HETATM   23 CL   UNL     1      44.426 -19.660   2.445  1.00  0.00    -0.084 Cl
HETATM   24  C   UNL     1      44.026 -17.046   1.907  1.00  0.00     0.024 A 
HETATM   25  C   UNL     1      43.222 -15.925   1.683  1.00  0.00     0.014 A 
ENDBRANCH   2  19
BRANCH   1  26
HETATM   26  C   UNL     1      41.164 -14.270   3.935  1.00  0.00     0.296 C 
HETATM   27  O   UNL     1      42.238 -13.891   4.363  1.00  0.00    -0.259 OA
BRANCH  26  28
HETATM   28  O   UNL     1      40.238 -15.042   4.547  1.00  0.00    -0.318 OA
BRANCH  28  29
HETATM   29  C   UNL     1      40.592 -15.553   5.842  1.00  0.00     0.174 C 
HETATM   30  C   UNL     1      41.061 -16.987   5.690  1.00  0.00     0.034 C 
ENDBRANCH  28  29
ENDBRANCH  26  28
ENDBRANCH   1  26
TORSDOF 5
ENDMDL
