MODEL 1
REMARK VINA RESULT:      -8.0      0.000      0.000
REMARK  4 active torsions:
REMARK  status: ('A' for Active; 'I' for Inactive)
REMARK    1  A    between atoms: C_7  and  C_8 
REMARK    2  A    between atoms: N_9  and  N_10 
REMARK       I    between atoms: N_10  and  C_11 
REMARK    3  A    between atoms: C_11  and  C_12 
REMARK    4  A    between atoms: C_12  and  C_13 
ROOT
HETATM    1  N   UNL     1      42.108 -12.688   2.967  1.00  0.00    -0.247 N 
HETATM    2  C   UNL     1      43.054 -13.194   3.855  1.00  0.00     0.241 C 
HETATM    3  O   UNL     1      44.191 -13.545   3.542  1.00  0.00    -0.271 OA
HETATM    4  H   UNL     1      41.273 -12.218   3.287  1.00  0.00     0.192 HD
ENDROOT
BRANCH   1   5
HETATM    5  N   UNL     1      42.375 -12.708   1.648  1.00  0.00    -0.184 NA
HETATM    6  C   UNL     1      42.030 -13.692   0.875  1.00  0.00     0.153 C 
BRANCH   6   7
HETATM    7  C   UNL     1      41.412 -14.990   1.138  1.00  0.00     0.018 A 
HETATM    8  C   UNL     1      40.096 -15.380   1.385  1.00  0.00     0.018 A 
HETATM    9  C   UNL     1      38.792 -14.675   1.500  1.00  0.00     0.069 C 
HETATM   10  N   UNL     1      40.104 -16.738   1.630  1.00  0.00    -0.358 N 
HETATM   11  H   UNL     1      39.285 -17.289   1.848  1.00  0.00     0.166 HD
HETATM   12  C   UNL     1      41.379 -17.233   1.657  1.00  0.00     0.043 A 
HETATM   13  C   UNL     1      42.223 -16.180   1.325  1.00  0.00     0.004 A 
HETATM   14  C   UNL     1      41.838 -18.520   1.961  1.00  0.00     0.030 A 
HETATM   15  C   UNL     1      43.613 -16.440   1.275  1.00  0.00     0.014 A 
HETATM   16  C   UNL     1      44.095 -17.719   1.580  1.00  0.00     0.001 A 
HETATM   17  C   UNL     1      43.217 -18.742   1.924  1.00  0.00     0.002 A 
ENDBRANCH   6   7
ENDBRANCH   1   5
BRANCH   2  18
HETATM   18  C   UNL     1      42.533 -13.316   5.277  1.00  0.00     0.145 C 
BRANCH  18  19
HETATM   19  C   UNL     1      41.822 -14.613   5.542  1.00  0.00    -0.021 A 
HETATM   20  C   UNL     1      42.358 -15.947   5.512  1.00  0.00    -0.001 A 
HETATM   21  C   UNL     1      41.305 -16.829   5.767  1.00  0.00     0.042 A 
HETATM   22  C   UNL     1      43.639 -16.500   5.298  1.00  0.00     0.014 A 
HETATM   23  C   UNL     1      41.463 -18.220   5.790  1.00  0.00     0.030 A 
HETATM   24  N   UNL     1      40.183 -16.066   5.985  1.00  0.00    -0.365 N 
HETATM   25  C   UNL     1      42.739 -18.736   5.548  1.00  0.00     0.002 A 
HETATM   26  C   UNL     1      43.815 -17.889   5.311  1.00  0.00     0.001 A 
HETATM   27  H   UNL     1      39.275 -16.441   6.220  1.00  0.00     0.165 HD
HETATM   28  C   UNL     1      40.476 -14.738   5.837  1.00  0.00     0.097 A 
ENDBRANCH  18  19
ENDBRANCH   2  18
TORSDOF 4
ENDMDL
MODEL 2
REMARK VINA RESULT:      -8.0      2.040      4.097
REMARK  4 active torsions:
REMARK  status: ('A' for Active; 'I' for Inactive)
REMARK    1  A    between atoms: C_7  and  C_8 
REMARK    2  A    between atoms: N_9  and  N_10 
REMARK       I    between atoms: N_10  and  C_11 
REMARK    3  A    between atoms: C_11  and  C_12 
REMARK    4  A    between atoms: C_12  and  C_13 
ROOT
HETATM    1  N   UNL     1      42.044 -17.567   0.995  1.00  0.00    -0.247 N 
HETATM    2  C   UNL     1      43.293 -17.981   1.454  1.00  0.00     0.241 C 
HETATM    3  O   UNL     1      44.347 -17.382   1.251  1.00  0.00    -0.271 OA
HETATM    4  H   UNL     1      41.186 -17.960   1.354  1.00  0.00     0.192 HD
ENDROOT
BRANCH   1   5
HETATM    5  N   UNL     1      41.974 -16.523   0.148  1.00  0.00    -0.184 NA
HETATM    6  C   UNL     1      41.520 -15.359   0.500  1.00  0.00     0.153 C 
BRANCH   6   7
HETATM    7  C   UNL     1      40.911 -14.864   1.733  1.00  0.00     0.018 A 
HETATM    8  C   UNL     1      39.609 -14.487   2.062  1.00  0.00     0.018 A 
HETATM    9  C   UNL     1      38.318 -14.411   1.329  1.00  0.00     0.069 C 
HETATM   10  N   UNL     1      39.624 -14.035   3.365  1.00  0.00    -0.358 N 
HETATM   11  H   UNL     1      38.816 -13.689   3.864  1.00  0.00     0.166 HD
HETATM   12  C   UNL     1      40.896 -14.002   3.868  1.00  0.00     0.043 A 
HETATM   13  C   UNL     1      41.725 -14.539   2.891  1.00  0.00     0.004 A 
HETATM   14  C   UNL     1      41.364 -13.528   5.099  1.00  0.00     0.030 A 
HETATM   15  C   UNL     1      43.109 -14.625   3.176  1.00  0.00     0.014 A 
HETATM   16  C   UNL     1      43.600 -14.152   4.399  1.00  0.00     0.001 A 
HETATM   17  C   UNL     1      42.737 -13.605   5.343  1.00  0.00     0.002 A 
ENDBRANCH   6   7
ENDBRANCH   1   5
BRANCH   2  18
HETATM   18  C   UNL     1      43.243 -19.296   2.214  1.00  0.00     0.145 C 
BRANCH  18  19
HETATM   19  C   UNL     1      43.591 -19.157   3.669  1.00  0.00    -0.021 A 
HETATM   20  C   UNL     1      42.887 -18.429   4.690  1.00  0.00    -0.001 A 
HETATM   21  C   UNL     1      43.623 -18.544   5.871  1.00  0.00     0.042 A 
HETATM   22  C   UNL     1      41.691 -17.681   4.733  1.00  0.00     0.014 A 
HETATM   23  C   UNL     1      43.241 -17.933   7.072  1.00  0.00     0.030 A 
HETATM   24  N   UNL     1      44.707 -19.343   5.596  1.00  0.00    -0.365 N 
HETATM   25  C   UNL     1      42.064 -17.179   7.074  1.00  0.00     0.002 A 
HETATM   26  C   UNL     1      41.295 -17.058   5.923  1.00  0.00     0.001 A 
HETATM   27  H   UNL     1      45.400 -19.620   6.278  1.00  0.00     0.165 HD
HETATM   28  C   UNL     1      44.707 -19.704   4.276  1.00  0.00     0.097 A 
ENDBRANCH  18  19
ENDBRANCH   2  18
TORSDOF 4
ENDMDL
MODEL 3
REMARK VINA RESULT:      -7.6      1.715      4.682
REMARK  4 active torsions:
REMARK  status: ('A' for Active; 'I' for Inactive)
REMARK    1  A    between atoms: C_7  and  C_8 
REMARK    2  A    between atoms: N_9  and  N_10 
REMARK       I    between atoms: N_10  and  C_11 
REMARK    3  A    between atoms: C_11  and  C_12 
REMARK    4  A    between atoms: C_12  and  C_13 
ROOT
HETATM    1  N   UNL     1      42.413 -12.700   3.602  1.00  0.00    -0.247 N 
HETATM    2  C   UNL     1      41.439 -13.078   2.680  1.00  0.00     0.241 C 
HETATM    3  O   UNL     1      40.230 -12.909   2.830  1.00  0.00    -0.271 OA
HETATM    4  H   UNL     1      43.392 -12.661   3.358  1.00  0.00     0.192 HD
ENDROOT
BRANCH   1   5
HETATM    5  N   UNL     1      42.028 -12.250   4.811  1.00  0.00    -0.184 NA
HETATM    6  C   UNL     1      42.351 -12.843   5.919  1.00  0.00     0.153 C 
BRANCH   6   7
HETATM    7  C   UNL     1      43.056 -14.091   6.206  1.00  0.00     0.018 A 
HETATM    8  C   UNL     1      44.323 -14.366   6.722  1.00  0.00     0.018 A 
HETATM    9  C   UNL     1      45.476 -13.546   7.177  1.00  0.00     0.069 C 
HETATM   10  N   UNL     1      44.485 -15.736   6.717  1.00  0.00    -0.358 N 
HETATM   11  H   UNL     1      45.316 -16.219   7.031  1.00  0.00     0.166 HD
HETATM   12  C   UNL     1      43.423 -16.362   6.125  1.00  0.00     0.043 A 
HETATM   13  C   UNL     1      42.496 -15.373   5.818  1.00  0.00     0.004 A 
HETATM   14  C   UNL     1      43.227 -17.717   5.830  1.00  0.00     0.030 A 
HETATM   15  C   UNL     1      41.289 -15.770   5.197  1.00  0.00     0.014 A 
HETATM   16  C   UNL     1      41.074 -17.120   4.888  1.00  0.00     0.001 A 
HETATM   17  C   UNL     1      42.035 -18.077   5.197  1.00  0.00     0.002 A 
ENDBRANCH   6   7
ENDBRANCH   1   5
BRANCH   2  18
HETATM   18  C   UNL     1      42.013 -13.773   1.457  1.00  0.00     0.145 C 
BRANCH  18  19
HETATM   19  C   UNL     1      41.650 -15.228   1.373  1.00  0.00    -0.021 A 
HETATM   20  C   UNL     1      42.479 -16.372   1.640  1.00  0.00    -0.001 A 
HETATM   21  C   UNL     1      41.721 -17.513   1.370  1.00  0.00     0.042 A 
HETATM   22  C   UNL     1      43.805 -16.556   2.090  1.00  0.00     0.014 A 
HETATM   23  C   UNL     1      42.225 -18.814   1.500  1.00  0.00     0.030 A 
HETATM   24  N   UNL     1      40.469 -17.087   0.996  1.00  0.00    -0.365 N 
HETATM   25  C   UNL     1      43.548 -18.960   1.923  1.00  0.00     0.002 A 
HETATM   26  C   UNL     1      44.328 -17.848   2.220  1.00  0.00     0.001 A 
HETATM   27  H   UNL     1      39.701 -17.703   0.768  1.00  0.00     0.165 HD
HETATM   28  C   UNL     1      40.419 -15.720   0.978  1.00  0.00     0.097 A 
ENDBRANCH  18  19
ENDBRANCH   2  18
TORSDOF 4
ENDMDL
MODEL 4
REMARK VINA RESULT:      -7.6      2.394      4.624
REMARK  4 active torsions:
REMARK  status: ('A' for Active; 'I' for Inactive)
REMARK    1  A    between atoms: C_7  and  C_8 
REMARK    2  A    between atoms: N_9  and  N_10 
REMARK       I    between atoms: N_10  and  C_11 
REMARK    3  A    between atoms: C_11  and  C_12 
REMARK    4  A    between atoms: C_12  and  C_13 
ROOT
HETATM    1  N   UNL     1      42.223 -17.644   6.310  1.00  0.00    -0.247 N 
HETATM    2  C   UNL     1      43.456 -17.184   6.764  1.00  0.00     0.241 C 
HETATM    3  O   UNL     1      43.621 -16.161   7.427  1.00  0.00    -0.271 OA
HETATM    4  H   UNL     1      42.100 -18.583   5.957  1.00  0.00     0.192 HD
ENDROOT
BRANCH   1   5
HETATM    5  N   UNL     1      41.137 -16.863   6.465  1.00  0.00    -0.184 NA
HETATM    6  C   UNL     1      40.832 -15.910   5.639  1.00  0.00     0.153 C 
BRANCH   6   7
HETATM    7  C   UNL     1      41.514 -15.352   4.473  1.00  0.00     0.018 A 
HETATM    8  C   UNL     1      42.223 -14.168   4.266  1.00  0.00     0.018 A 
HETATM    9  C   UNL     1      42.573 -12.991   5.103  1.00  0.00     0.069 C 
HETATM   10  N   UNL     1      42.596 -14.133   2.938  1.00  0.00    -0.358 N 
HETATM   11  H   UNL     1      43.116 -13.383   2.506  1.00  0.00     0.166 HD
HETATM   12  C   UNL     1      42.073 -15.191   2.245  1.00  0.00     0.043 A 
HETATM   13  C   UNL     1      41.416 -15.990   3.172  1.00  0.00     0.004 A 
HETATM   14  C   UNL     1      42.124 -15.483   0.877  1.00  0.00     0.030 A 
HETATM   15  C   UNL     1      40.789 -17.168   2.700  1.00  0.00     0.014 A 
HETATM   16  C   UNL     1      40.824 -17.477   1.335  1.00  0.00     0.001 A 
HETATM   17  C   UNL     1      41.479 -16.641   0.437  1.00  0.00     0.002 A 
ENDBRANCH   6   7
ENDBRANCH   1   5
BRANCH   2  18
HETATM   18  C   UNL     1      44.618 -18.058   6.325  1.00  0.00     0.145 C 
BRANCH  18  19
HETATM   19  C   UNL     1      44.419 -18.678   4.971  1.00  0.00    -0.021 A 
HETATM   20  C   UNL     1      44.496 -20.066   4.604  1.00  0.00    -0.001 A 
HETATM   21  C   UNL     1      44.296 -20.148   3.224  1.00  0.00     0.042 A 
HETATM   22  C   UNL     1      44.713 -21.270   5.308  1.00  0.00     0.014 A 
HETATM   23  C   UNL     1      44.329 -21.357   2.518  1.00  0.00     0.030 A 
HETATM   24  N   UNL     1      44.064 -18.871   2.773  1.00  0.00    -0.365 N 
HETATM   25  C   UNL     1      44.571 -22.528   3.241  1.00  0.00     0.002 A 
HETATM   26  C   UNL     1      44.755 -22.488   4.618  1.00  0.00     0.001 A 
HETATM   27  H   UNL     1      43.860 -18.633   1.812  1.00  0.00     0.165 HD
HETATM   28  C   UNL     1      44.151 -17.979   3.807  1.00  0.00     0.097 A 
ENDBRANCH  18  19
ENDBRANCH   2  18
TORSDOF 4
ENDMDL
MODEL 5
REMARK VINA RESULT:      -7.6      2.426      4.815
REMARK  4 active torsions:
REMARK  status: ('A' for Active; 'I' for Inactive)
REMARK    1  A    between atoms: C_7  and  C_8 
REMARK    2  A    between atoms: N_9  and  N_10 
REMARK       I    between atoms: N_10  and  C_11 
REMARK    3  A    between atoms: C_11  and  C_12 
REMARK    4  A    between atoms: C_12  and  C_13 
ROOT
HETATM    1  N   UNL     1      41.274 -15.664   1.571  1.00  0.00    -0.247 N 
HETATM    2  C   UNL     1      41.418 -17.024   1.307  1.00  0.00     0.241 C 
HETATM    3  O   UNL     1      40.499 -17.841   1.325  1.00  0.00    -0.271 OA
HETATM    4  H   UNL     1      41.997 -14.997   1.344  1.00  0.00     0.192 HD
ENDROOT
BRANCH   1   5
HETATM    5  N   UNL     1      40.090 -15.208   2.020  1.00  0.00    -0.184 NA
HETATM    6  C   UNL     1      39.929 -14.720   3.212  1.00  0.00     0.153 C 
BRANCH   6   7
HETATM    7  C   UNL     1      40.821 -14.604   4.365  1.00  0.00     0.018 A 
HETATM    8  C   UNL     1      41.538 -13.537   4.905  1.00  0.00     0.018 A 
HETATM    9  C   UNL     1      41.717 -12.104   4.553  1.00  0.00     0.069 C 
HETATM   10  N   UNL     1      42.270 -14.023   5.968  1.00  0.00    -0.358 N 
HETATM   11  H   UNL     1      42.890 -13.469   6.542  1.00  0.00     0.166 HD
HETATM   12  C   UNL     1      42.143 -15.380   6.082  1.00  0.00     0.043 A 
HETATM   13  C   UNL     1      41.225 -15.778   5.118  1.00  0.00     0.004 A 
HETATM   14  C   UNL     1      42.781 -16.273   6.951  1.00  0.00     0.030 A 
HETATM   15  C   UNL     1      40.910 -17.155   5.036  1.00  0.00     0.014 A 
HETATM   16  C   UNL     1      41.540 -18.067   5.892  1.00  0.00     0.001 A 
HETATM   17  C   UNL     1      42.467 -17.629   6.832  1.00  0.00     0.002 A 
ENDBRANCH   6   7
ENDBRANCH   1   5
BRANCH   2  18
HETATM   18  C   UNL     1      42.855 -17.429   1.028  1.00  0.00     0.145 C 
BRANCH  18  19
HETATM   19  C   UNL     1      43.522 -18.102   2.195  1.00  0.00    -0.021 A 
HETATM   20  C   UNL     1      43.793 -19.501   2.382  1.00  0.00    -0.001 A 
HETATM   21  C   UNL     1      44.374 -19.651   3.644  1.00  0.00     0.042 A 
HETATM   22  C   UNL     1      43.608 -20.664   1.604  1.00  0.00     0.014 A 
HETATM   23  C   UNL     1      44.749 -20.894   4.170  1.00  0.00     0.030 A 
HETATM   24  N   UNL     1      44.492 -18.394   4.186  1.00  0.00    -0.365 N 
HETATM   25  C   UNL     1      44.527 -22.028   3.383  1.00  0.00     0.002 A 
HETATM   26  C   UNL     1      43.970 -21.916   2.115  1.00  0.00     0.001 A 
HETATM   27  H   UNL     1      44.907 -18.198   5.087  1.00  0.00     0.165 HD
HETATM   28  C   UNL     1      43.971 -17.459   3.335  1.00  0.00     0.097 A 
ENDBRANCH  18  19
ENDBRANCH   2  18
TORSDOF 4
ENDMDL
MODEL 6
REMARK VINA RESULT:      -7.6      2.244      3.837
REMARK  4 active torsions:
REMARK  status: ('A' for Active; 'I' for Inactive)
REMARK    1  A    between atoms: C_7  and  C_8 
REMARK    2  A    between atoms: N_9  and  N_10 
REMARK       I    between atoms: N_10  and  C_11 
REMARK    3  A    between atoms: C_11  and  C_12 
REMARK    4  A    between atoms: C_12  and  C_13 
ROOT
HETATM    1  N   UNL     1      41.443 -14.865   6.057  1.00  0.00    -0.247 N 
HETATM    2  C   UNL     1      41.593 -16.220   6.339  1.00  0.00     0.241 C 
HETATM    3  O   UNL     1      40.697 -17.058   6.249  1.00  0.00    -0.271 OA
HETATM    4  H   UNL     1      42.238 -14.253   5.938  1.00  0.00     0.192 HD
ENDROOT
BRANCH   1   5
HETATM    5  N   UNL     1      40.212 -14.383   5.805  1.00  0.00    -0.184 NA
HETATM    6  C   UNL     1      39.834 -13.999   4.624  1.00  0.00     0.153 C 
BRANCH   6   7
HETATM    7  C   UNL     1      40.539 -13.869   3.351  1.00  0.00     0.018 A 
HETATM    8  C   UNL     1      41.002 -12.767   2.632  1.00  0.00     0.018 A 
HETATM    9  C   UNL     1      40.972 -11.294   2.828  1.00  0.00     0.069 C 
HETATM   10  N   UNL     1      41.542 -13.237   1.452  1.00  0.00    -0.358 N 
HETATM   11  H   UNL     1      41.946 -12.655   0.732  1.00  0.00     0.166 HD
HETATM   12  C   UNL     1      41.359 -14.586   1.322  1.00  0.00     0.043 A 
HETATM   13  C   UNL     1      40.763 -15.024   2.499  1.00  0.00     0.004 A 
HETATM   14  C   UNL     1      41.663 -15.436   0.252  1.00  0.00     0.030 A 
HETATM   15  C   UNL     1      40.474 -16.404   2.618  1.00  0.00     0.014 A 
HETATM   16  C   UNL     1      40.765 -17.271   1.558  1.00  0.00     0.001 A 
HETATM   17  C   UNL     1      41.347 -16.790   0.389  1.00  0.00     0.002 A 
ENDBRANCH   6   7
ENDBRANCH   1   5
BRANCH   2  18
HETATM   18  C   UNL     1      42.989 -16.578   6.822  1.00  0.00     0.145 C 
BRANCH  18  19
HETATM   19  C   UNL     1      43.476 -17.903   6.308  1.00  0.00    -0.021 A 
HETATM   20  C   UNL     1      43.753 -18.286   4.950  1.00  0.00    -0.001 A 
HETATM   21  C   UNL     1      44.125 -19.633   4.961  1.00  0.00     0.042 A 
HETATM   22  C   UNL     1      43.729 -17.623   3.704  1.00  0.00     0.014 A 
HETATM   23  C   UNL     1      44.444 -20.347   3.799  1.00  0.00     0.030 A 
HETATM   24  N   UNL     1      44.117 -20.043   6.273  1.00  0.00    -0.365 N 
HETATM   25  C   UNL     1      44.386 -19.667   2.580  1.00  0.00     0.002 A 
HETATM   26  C   UNL     1      44.039 -18.322   2.531  1.00  0.00     0.001 A 
HETATM   27  H   UNL     1      44.374 -20.970   6.582  1.00  0.00     0.165 HD
HETATM   28  C   UNL     1      43.715 -19.021   7.087  1.00  0.00     0.097 A 
ENDBRANCH  18  19
ENDBRANCH   2  18
TORSDOF 4
ENDMDL
MODEL 7
REMARK VINA RESULT:      -7.5      3.445      5.543
REMARK  4 active torsions:
REMARK  status: ('A' for Active; 'I' for Inactive)
REMARK    1  A    between atoms: C_7  and  C_8 
REMARK    2  A    between atoms: N_9  and  N_10 
REMARK       I    between atoms: N_10  and  C_11 
REMARK    3  A    between atoms: C_11  and  C_12 
REMARK    4  A    between atoms: C_12  and  C_13 
ROOT
HETATM    1  N   UNL     1      42.012 -15.732   0.658  1.00  0.00    -0.247 N 
HETATM    2  C   UNL     1      41.990 -17.092   0.956  1.00  0.00     0.241 C 
HETATM    3  O   UNL     1      40.979 -17.730   1.244  1.00  0.00    -0.271 OA
HETATM    4  H   UNL     1      42.812 -15.293   0.225  1.00  0.00     0.192 HD
ENDROOT
BRANCH   1   5
HETATM    5  N   UNL     1      40.890 -15.008   0.831  1.00  0.00    -0.184 NA
HETATM    6  C   UNL     1      40.390 -14.252  -0.098  1.00  0.00     0.153 C 
BRANCH   6   7
HETATM    7  C   UNL     1      40.854 -13.885  -1.434  1.00  0.00     0.018 A 
HETATM    8  C   UNL     1      40.928 -14.586  -2.638  1.00  0.00     0.018 A 
HETATM    9  C   UNL     1      40.592 -15.966  -3.075  1.00  0.00     0.069 C 
HETATM   10  N   UNL     1      41.516 -13.754  -3.568  1.00  0.00    -0.358 N 
HETATM   11  H   UNL     1      41.702 -14.005  -4.529  1.00  0.00     0.166 HD
HETATM   12  C   UNL     1      41.924 -12.578  -3.000  1.00  0.00     0.043 A 
HETATM   13  C   UNL     1      41.504 -12.608  -1.675  1.00  0.00     0.004 A 
HETATM   14  C   UNL     1      42.639 -11.511  -3.555  1.00  0.00     0.030 A 
HETATM   15  C   UNL     1      41.801 -11.488  -0.864  1.00  0.00     0.014 A 
HETATM   16  C   UNL     1      42.520 -10.411  -1.398  1.00  0.00     0.001 A 
HETATM   17  C   UNL     1      42.937 -10.428  -2.725  1.00  0.00     0.002 A 
ENDBRANCH   6   7
ENDBRANCH   1   5
BRANCH   2  18
HETATM   18  C   UNL     1      43.369 -17.730   0.932  1.00  0.00     0.145 C 
BRANCH  18  19
HETATM   19  C   UNL     1      43.775 -18.321   2.252  1.00  0.00    -0.021 A 
HETATM   20  C   UNL     1      44.052 -19.697   2.567  1.00  0.00    -0.001 A 
HETATM   21  C   UNL     1      44.331 -19.767   3.934  1.00  0.00     0.042 A 
HETATM   22  C   UNL     1      44.098 -20.897   1.826  1.00  0.00     0.014 A 
HETATM   23  C   UNL     1      44.624 -20.968   4.593  1.00  0.00     0.030 A 
HETATM   24  N   UNL     1      44.270 -18.485   4.425  1.00  0.00    -0.365 N 
HETATM   25  C   UNL     1      44.636 -22.141   3.835  1.00  0.00     0.002 A 
HETATM   26  C   UNL     1      44.382 -22.108   2.469  1.00  0.00     0.001 A 
HETATM   27  H   UNL     1      44.457 -18.232   5.386  1.00  0.00     0.165 HD
HETATM   28  C   UNL     1      43.923 -17.612   3.431  1.00  0.00     0.097 A 
ENDBRANCH  18  19
ENDBRANCH   2  18
TORSDOF 4
ENDMDL
MODEL 8
REMARK VINA RESULT:      -7.3      2.740      4.737
REMARK  4 active torsions:
REMARK  status: ('A' for Active; 'I' for Inactive)
REMARK    1  A    between atoms: C_7  and  C_8 
REMARK    2  A    between atoms: N_9  and  N_10 
REMARK       I    between atoms: N_10  and  C_11 
REMARK    3  A    between atoms: C_11  and  C_12 
REMARK    4  A    between atoms: C_12  and  C_13 
ROOT
HETATM    1  N   UNL     1      41.375 -17.063   1.983  1.00  0.00    -0.247 N 
HETATM    2  C   UNL     1      42.283 -16.846   3.017  1.00  0.00     0.241 C 
HETATM    3  O   UNL     1      42.027 -16.244   4.058  1.00  0.00    -0.271 OA
HETATM    4  H   UNL     1      41.552 -17.733   1.249  1.00  0.00     0.192 HD
ENDROOT
BRANCH   1   5
HETATM    5  N   UNL     1      40.171 -16.461   2.034  1.00  0.00    -0.184 NA
HETATM    6  C   UNL     1      39.940 -15.303   1.496  1.00  0.00     0.153 C 
BRANCH   6   7
HETATM    7  C   UNL     1      40.803 -14.329   0.830  1.00  0.00     0.018 A 
HETATM    8  C   UNL     1      41.392 -13.138   1.255  1.00  0.00     0.018 A 
HETATM    9  C   UNL     1      41.391 -12.356   2.518  1.00  0.00     0.069 C 
HETATM   10  N   UNL     1      42.057 -12.595   0.175  1.00  0.00    -0.358 N 
HETATM   11  H   UNL     1      42.569 -11.724   0.193  1.00  0.00     0.166 HD
HETATM   12  C   UNL     1      41.842 -13.324  -0.962  1.00  0.00     0.043 A 
HETATM   13  C   UNL     1      41.089 -14.431  -0.590  1.00  0.00     0.004 A 
HETATM   14  C   UNL     1      42.247 -13.077  -2.279  1.00  0.00     0.030 A 
HETATM   15  C   UNL     1      40.737 -15.358  -1.600  1.00  0.00     0.014 A 
HETATM   16  C   UNL     1      41.127 -15.128  -2.925  1.00  0.00     0.001 A 
HETATM   17  C   UNL     1      41.867 -13.998  -3.258  1.00  0.00     0.002 A 
ENDBRANCH   6   7
ENDBRANCH   1   5
BRANCH   2  18
HETATM   18  C   UNL     1      43.667 -17.397   2.720  1.00  0.00     0.145 C 
BRANCH  18  19
HETATM   19  C   UNL     1      44.096 -18.475   3.675  1.00  0.00    -0.021 A 
HETATM   20  C   UNL     1      44.259 -19.881   3.420  1.00  0.00    -0.001 A 
HETATM   21  C   UNL     1      44.615 -20.488   4.626  1.00  0.00     0.042 A 
HETATM   22  C   UNL     1      44.142 -20.705   2.280  1.00  0.00     0.014 A 
HETATM   23  C   UNL     1      44.832 -21.866   4.753  1.00  0.00     0.030 A 
HETATM   24  N   UNL     1      44.709 -19.492   5.568  1.00  0.00    -0.365 N 
HETATM   25  C   UNL     1      44.683 -22.657   3.610  1.00  0.00     0.002 A 
HETATM   26  C   UNL     1      44.348 -22.085   2.388  1.00  0.00     0.001 A 
HETATM   27  H   UNL     1      44.980 -19.640   6.530  1.00  0.00     0.165 HD
HETATM   28  C   UNL     1      44.385 -18.284   5.014  1.00  0.00     0.097 A 
ENDBRANCH  18  19
ENDBRANCH   2  18
TORSDOF 4
ENDMDL
MODEL 9
REMARK VINA RESULT:      -7.3      2.630      5.450
REMARK  4 active torsions:
REMARK  status: ('A' for Active; 'I' for Inactive)
REMARK    1  A    between atoms: C_7  and  C_8 
REMARK    2  A    between atoms: N_9  and  N_10 
REMARK       I    between atoms: N_10  and  C_11 
REMARK    3  A    between atoms: C_11  and  C_12 
REMARK    4  A    between atoms: C_12  and  C_13 
ROOT
HETATM    1  N   UNL     1      41.439 -15.917   1.685  1.00  0.00    -0.247 N 
HETATM    2  C   UNL     1      41.723 -17.210   1.253  1.00  0.00     0.241 C 
HETATM    3  O   UNL     1      40.876 -18.046   0.941  1.00  0.00    -0.271 OA
HETATM    4  H   UNL     1      42.149 -15.200   1.727  1.00  0.00     0.192 HD
ENDROOT
BRANCH   1   5
HETATM    5  N   UNL     1      40.159 -15.576   1.926  1.00  0.00    -0.184 NA
HETATM    6  C   UNL     1      39.789 -14.941   2.996  1.00  0.00     0.153 C 
BRANCH   6   7
HETATM    7  C   UNL     1      40.507 -14.522   4.198  1.00  0.00     0.018 A 
HETATM    8  C   UNL     1      40.989 -15.220   5.306  1.00  0.00     0.018 A 
HETATM    9  C   UNL     1      40.975 -16.640   5.743  1.00  0.00     0.069 C 
HETATM   10  N   UNL     1      41.534 -14.297   6.174  1.00  0.00    -0.358 N 
HETATM   11  H   UNL     1      41.952 -14.522   7.066  1.00  0.00     0.166 HD
HETATM   12  C   UNL     1      41.337 -13.018   5.731  1.00  0.00     0.043 A 
HETATM   13  C   UNL     1      40.726 -13.116   4.487  1.00  0.00     0.004 A 
HETATM   14  C   UNL     1      41.642 -11.796   6.344  1.00  0.00     0.030 A 
HETATM   15  C   UNL     1      40.420 -11.914   3.806  1.00  0.00     0.014 A 
HETATM   16  C   UNL     1      40.711 -10.680   4.403  1.00  0.00     0.001 A 
HETATM   17  C   UNL     1      41.309 -10.626   5.658  1.00  0.00     0.002 A 
ENDBRANCH   6   7
ENDBRANCH   1   5
BRANCH   2  18
HETATM   18  C   UNL     1      43.210 -17.521   1.239  1.00  0.00     0.145 C 
BRANCH  18  19
HETATM   19  C   UNL     1      43.683 -18.228   2.476  1.00  0.00    -0.021 A 
HETATM   20  C   UNL     1      43.981 -19.624   2.648  1.00  0.00    -0.001 A 
HETATM   21  C   UNL     1      44.328 -19.818   3.988  1.00  0.00     0.042 A 
HETATM   22  C   UNL     1      43.995 -20.751   1.798  1.00  0.00     0.014 A 
HETATM   23  C   UNL     1      44.658 -21.072   4.517  1.00  0.00     0.030 A 
HETATM   24  N   UNL     1      44.286 -18.588   4.598  1.00  0.00    -0.365 N 
HETATM   25  C   UNL     1      44.637 -22.171   3.654  1.00  0.00     0.002 A 
HETATM   26  C   UNL     1      44.316 -22.013   2.311  1.00  0.00     0.001 A 
HETATM   27  H   UNL     1      44.519 -18.424   5.567  1.00  0.00     0.165 HD
HETATM   28  C   UNL     1      43.886 -17.630   3.707  1.00  0.00     0.097 A 
ENDBRANCH  18  19
ENDBRANCH   2  18
TORSDOF 4
ENDMDL
MODEL 10
REMARK VINA RESULT:      -7.2      5.726      7.663
REMARK  4 active torsions:
REMARK  status: ('A' for Active; 'I' for Inactive)
REMARK    1  A    between atoms: C_7  and  C_8 
REMARK    2  A    between atoms: N_9  and  N_10 
REMARK       I    between atoms: N_10  and  C_11 
REMARK    3  A    between atoms: C_11  and  C_12 
REMARK    4  A    between atoms: C_12  and  C_13 
ROOT
HETATM    1  N   UNL     1      45.296 -12.774   8.750  1.00  0.00    -0.247 N 
HETATM    2  C   UNL     1      45.547 -11.573   9.408  1.00  0.00     0.241 C 
HETATM    3  O   UNL     1      46.247 -10.664   8.964  1.00  0.00    -0.271 OA
HETATM    4  H   UNL     1      44.558 -13.399   9.042  1.00  0.00     0.192 HD
ENDROOT
BRANCH   1   5
HETATM    5  N   UNL     1      45.966 -13.049   7.615  1.00  0.00    -0.184 NA
HETATM    6  C   UNL     1      45.431 -13.684   6.618  1.00  0.00     0.153 C 
BRANCH   6   7
HETATM    7  C   UNL     1      44.132 -14.328   6.434  1.00  0.00     0.018 A 
HETATM    8  C   UNL     1      42.845 -13.827   6.235  1.00  0.00     0.018 A 
HETATM    9  C   UNL     1      42.247 -12.470   6.138  1.00  0.00     0.069 C 
HETATM   10  N   UNL     1      41.983 -14.903   6.191  1.00  0.00    -0.358 N 
HETATM   11  H   UNL     1      40.982 -14.835   6.064  1.00  0.00     0.166 HD
HETATM   12  C   UNL     1      42.634 -16.076   6.456  1.00  0.00     0.043 A 
HETATM   13  C   UNL     1      43.982 -15.765   6.585  1.00  0.00     0.004 A 
HETATM   14  C   UNL     1      42.128 -17.373   6.603  1.00  0.00     0.030 A 
HETATM   15  C   UNL     1      44.881 -16.823   6.857  1.00  0.00     0.014 A 
HETATM   16  C   UNL     1      44.395 -18.128   7.012  1.00  0.00     0.001 A 
HETATM   17  C   UNL     1      43.035 -18.395   6.892  1.00  0.00     0.002 A 
ENDBRANCH   6   7
ENDBRANCH   1   5
BRANCH   2  18
HETATM   18  C   UNL     1      44.897 -11.496  10.779  1.00  0.00     0.145 C 
BRANCH  18  19
HETATM   19  C   UNL     1      43.695 -10.596  10.819  1.00  0.00    -0.021 A 
HETATM   20  C   UNL     1      43.169  -9.858  11.936  1.00  0.00    -0.001 A 
HETATM   21  C   UNL     1      42.008  -9.212  11.504  1.00  0.00     0.042 A 
HETATM   22  C   UNL     1      43.565  -9.668  13.278  1.00  0.00     0.014 A 
HETATM   23  C   UNL     1      41.218  -8.418  12.345  1.00  0.00     0.030 A 
HETATM   24  N   UNL     1      41.854  -9.508  10.171  1.00  0.00    -0.365 N 
HETATM   25  C   UNL     1      41.624  -8.271  13.674  1.00  0.00     0.002 A 
HETATM   26  C   UNL     1      42.784  -8.882  14.134  1.00  0.00     0.001 A 
HETATM   27  H   UNL     1      41.108  -9.150   9.590  1.00  0.00     0.165 HD
HETATM   28  C   UNL     1      42.849 -10.348   9.753  1.00  0.00     0.097 A 
ENDBRANCH  18  19
ENDBRANCH   2  18
TORSDOF 4
ENDMDL
