MODEL 1
REMARK VINA RESULT:      -9.5      0.000      0.000
REMARK  7 active torsions:
REMARK  status: ('A' for Active; 'I' for Inactive)
REMARK    1  A    between atoms: S_2  and  C_3 
REMARK    2  A    between atoms: C_3  and  C_4 
REMARK    3  A    between atoms: C_4  and  C_5 
REMARK    4  A    between atoms: C_5  and  N_6 
REMARK    5  A    between atoms: C_5  and  C_26 
REMARK       I    between atoms: N_6  and  C_7 
REMARK    6  A    between atoms: C_7  and  C_8 
REMARK    7  A    between atoms: C_8  and  N_9 
ROOT
HETATM    1  N   UNL     1      41.945 -12.432   6.762  1.00  0.00    -0.348 N 
HETATM    2  C   UNL     1      42.279 -12.682   5.443  1.00  0.00     0.236 C 
HETATM    3  O   UNL     1      41.984 -11.927   4.523  1.00  0.00    -0.272 OA
HETATM    4  H   UNL     1      42.646 -12.785   7.412  1.00  0.00     0.163 HD
ENDROOT
BRANCH   2   5
HETATM    5  C   UNL     1      43.216 -13.870   5.213  1.00  0.00     0.239 C 
BRANCH   5   6
HETATM    6  N   UNL     1      42.571 -15.078   4.740  1.00  0.00    -0.259 N 
HETATM    7  C   UNL     1      41.577 -15.728   5.393  1.00  0.00     0.326 A 
HETATM    8  O   UNL     1      40.957 -15.307   6.356  1.00  0.00    -0.247 OA
HETATM    9  N   UNL     1      41.330 -16.920   4.768  1.00  0.00    -0.320 N 
HETATM   10  C   UNL     1      42.213 -17.152   3.639  1.00  0.00     0.144 A 
HETATM   11  H   UNL     1      40.694 -17.605   5.154  1.00  0.00     0.165 HD
HETATM   12  C   UNL     1      43.162 -18.318   3.885  1.00  0.00    -0.014 A 
HETATM   13  C   UNL     1      41.370 -17.291   2.363  1.00  0.00     0.047 C 
HETATM   14  C   UNL     1      42.980 -15.802   3.652  1.00  0.00     0.261 A 
HETATM   15  C   UNL     1      43.475 -19.224   2.850  1.00  0.00    -0.049 A 
HETATM   16  C   UNL     1      43.802 -18.475   5.131  1.00  0.00     0.011 A 
HETATM   17  C   UNL     1      44.397 -20.258   3.086  1.00  0.00     0.007 A 
HETATM   18  C   UNL     1      42.809 -19.156   1.498  1.00  0.00     0.039 C 
HETATM   19  C   UNL     1      45.022 -20.391   4.323  1.00  0.00     0.001 A 
HETATM   20  C   UNL     1      44.723 -19.501   5.347  1.00  0.00     0.001 A 
HETATM   21  C   UNL     1      42.201 -17.794   1.188  1.00  0.00     0.008 C 
HETATM   22  O   UNL     1      43.832 -15.450   2.847  1.00  0.00    -0.270 OA
ENDBRANCH   5   6
ENDBRANCH   2   5
BRANCH   1  23
HETATM   23  C   UNL     1      41.352 -11.157   7.176  1.00  0.00     0.155 C 
BRANCH  23  24
HETATM   24  C   UNL     1      39.831 -10.992   6.985  1.00  0.00     0.043 C 
BRANCH  24  25
HETATM   25  C   UNL     1      39.384  -9.595   6.562  1.00  0.00     0.076 C 
BRANCH  25  26
HETATM   26  S   UNL     1      39.266  -9.531   4.739  1.00  0.00    -0.173 SA
HETATM   27  C   UNL     1      38.618 -11.189   4.435  1.00  0.00     0.089 C 
ENDBRANCH  25  26
ENDBRANCH  24  25
ENDBRANCH  23  24
BRANCH  23  28
HETATM   28  C   UNL     1      41.750 -10.873   8.602  1.00  0.00     0.128 A 
HETATM   29  N   UNL     1      42.908 -10.384   9.003  1.00  0.00    -0.231 NA
HETATM   30  C   UNL     1      42.844 -10.335  10.373  1.00  0.00     0.085 A 
HETATM   31  C   UNL     1      41.616 -10.800  10.828  1.00  0.00     0.062 A 
HETATM   32  C   UNL     1      43.805  -9.914  11.302  1.00  0.00     0.034 A 
HETATM   33  N   UNL     1      40.930 -11.108   9.683  1.00  0.00    -0.341 N 
HETATM   34  C   UNL     1      41.283 -10.889  12.181  1.00  0.00     0.032 A 
HETATM   35  H   UNL     1      39.997 -11.489   9.633  1.00  0.00     0.167 HD
HETATM   36  C   UNL     1      42.260 -10.473  13.095  1.00  0.00     0.002 A 
HETATM   37  C   UNL     1      43.499  -9.990  12.666  1.00  0.00     0.002 A 
ENDBRANCH  23  28
ENDBRANCH   1  23
TORSDOF 7
ENDMDL
MODEL 2
REMARK VINA RESULT:      -9.2      4.435      7.255
REMARK  7 active torsions:
REMARK  status: ('A' for Active; 'I' for Inactive)
REMARK    1  A    between atoms: S_2  and  C_3 
REMARK    2  A    between atoms: C_3  and  C_4 
REMARK    3  A    between atoms: C_4  and  C_5 
REMARK    4  A    between atoms: C_5  and  N_6 
REMARK    5  A    between atoms: C_5  and  C_26 
REMARK       I    between atoms: N_6  and  C_7 
REMARK    6  A    between atoms: C_7  and  C_8 
REMARK    7  A    between atoms: C_8  and  N_9 
ROOT
HETATM    1  N   UNL     1      40.533 -14.441   2.474  1.00  0.00    -0.348 N 
HETATM    2  C   UNL     1      39.604 -15.398   2.104  1.00  0.00     0.236 C 
HETATM    3  O   UNL     1      38.471 -15.119   1.726  1.00  0.00    -0.272 OA
HETATM    4  H   UNL     1      41.487 -14.720   2.246  1.00  0.00     0.163 HD
ENDROOT
BRANCH   2   5
HETATM    5  C   UNL     1      40.134 -16.829   2.004  1.00  0.00     0.239 C 
BRANCH   5   6
HETATM    6  N   UNL     1      41.523 -16.998   2.383  1.00  0.00    -0.259 N 
HETATM    7  C   UNL     1      42.581 -16.614   1.629  1.00  0.00     0.326 A 
HETATM    8  O   UNL     1      42.532 -15.915   0.629  1.00  0.00    -0.247 OA
HETATM    9  N   UNL     1      43.734 -17.085   2.194  1.00  0.00    -0.320 N 
HETATM   10  C   UNL     1      43.489 -17.876   3.387  1.00  0.00     0.144 A 
HETATM   11  H   UNL     1      44.630 -16.997   1.734  1.00  0.00     0.165 HD
HETATM   12  C   UNL     1      43.855 -19.341   3.188  1.00  0.00    -0.014 A 
HETATM   13  C   UNL     1      44.189 -17.213   4.581  1.00  0.00     0.047 C 
HETATM   14  C   UNL     1      41.948 -17.699   3.480  1.00  0.00     0.261 A 
HETATM   15  C   UNL     1      44.480 -20.074   4.217  1.00  0.00    -0.049 A 
HETATM   16  C   UNL     1      43.513 -20.014   1.996  1.00  0.00     0.011 A 
HETATM   17  C   UNL     1      44.757 -21.439   4.031  1.00  0.00     0.007 A 
HETATM   18  C   UNL     1      44.917 -19.428   5.509  1.00  0.00     0.039 C 
HETATM   19  C   UNL     1      44.405 -22.085   2.848  1.00  0.00     0.001 A 
HETATM   20  C   UNL     1      43.786 -21.372   1.830  1.00  0.00     0.001 A 
HETATM   21  C   UNL     1      44.196 -18.119   5.807  1.00  0.00     0.008 C 
HETATM   22  O   UNL     1      41.225 -18.136   4.365  1.00  0.00    -0.270 OA
ENDBRANCH   5   6
ENDBRANCH   2   5
BRANCH   1  23
HETATM   23  C   UNL     1      40.280 -13.010   2.285  1.00  0.00     0.155 C 
BRANCH  23  24
HETATM   24  C   UNL     1      40.656 -12.069   3.447  1.00  0.00     0.043 C 
BRANCH  24  25
HETATM   25  C   UNL     1      41.413 -12.734   4.594  1.00  0.00     0.076 C 
BRANCH  25  26
HETATM   26  S   UNL     1      40.224 -13.225   5.892  1.00  0.00    -0.173 SA
HETATM   27  C   UNL     1      40.539 -15.003   5.912  1.00  0.00     0.089 C 
ENDBRANCH  25  26
ENDBRANCH  24  25
ENDBRANCH  23  24
BRANCH  23  28
HETATM   28  C   UNL     1      40.929 -12.564   1.000  1.00  0.00     0.128 A 
HETATM   29  N   UNL     1      41.287 -11.330   0.698  1.00  0.00    -0.231 NA
HETATM   30  C   UNL     1      41.789 -11.384  -0.578  1.00  0.00     0.085 A 
HETATM   31  C   UNL     1      41.744 -12.682  -1.073  1.00  0.00     0.062 A 
HETATM   32  C   UNL     1      42.294 -10.357  -1.387  1.00  0.00     0.034 A 
HETATM   33  N   UNL     1      41.221 -13.415  -0.042  1.00  0.00    -0.341 N 
HETATM   34  C   UNL     1      42.165 -13.026  -2.360  1.00  0.00     0.032 A 
HETATM   35  H   UNL     1      41.032 -14.406  -0.054  1.00  0.00     0.167 HD
HETATM   36  C   UNL     1      42.658 -11.985  -3.157  1.00  0.00     0.002 A 
HETATM   37  C   UNL     1      42.726 -10.673  -2.681  1.00  0.00     0.002 A 
ENDBRANCH  23  28
ENDBRANCH   1  23
TORSDOF 7
ENDMDL
MODEL 3
REMARK VINA RESULT:      -9.2      4.404      7.772
REMARK  7 active torsions:
REMARK  status: ('A' for Active; 'I' for Inactive)
REMARK    1  A    between atoms: S_2  and  C_3 
REMARK    2  A    between atoms: C_3  and  C_4 
REMARK    3  A    between atoms: C_4  and  C_5 
REMARK    4  A    between atoms: C_5  and  N_6 
REMARK    5  A    between atoms: C_5  and  C_26 
REMARK       I    between atoms: N_6  and  C_7 
REMARK    6  A    between atoms: C_7  and  C_8 
REMARK    7  A    between atoms: C_8  and  N_9 
ROOT
HETATM    1  N   UNL     1      41.942 -12.147   1.951  1.00  0.00    -0.348 N 
HETATM    2  C   UNL     1      41.501 -12.033   3.258  1.00  0.00     0.236 C 
HETATM    3  O   UNL     1      40.586 -11.286   3.592  1.00  0.00    -0.272 OA
HETATM    4  H   UNL     1      42.268 -13.088   1.734  1.00  0.00     0.163 HD
ENDROOT
BRANCH   2   5
HETATM    5  C   UNL     1      42.090 -13.042   4.245  1.00  0.00     0.239 C 
BRANCH   5   6
HETATM    6  N   UNL     1      41.688 -14.417   4.031  1.00  0.00    -0.259 N 
HETATM    7  C   UNL     1      40.695 -15.045   4.707  1.00  0.00     0.326 A 
HETATM    8  O   UNL     1      39.882 -14.511   5.444  1.00  0.00    -0.247 OA
HETATM    9  N   UNL     1      40.704 -16.376   4.390  1.00  0.00    -0.320 N 
HETATM   10  C   UNL     1      41.776 -16.726   3.476  1.00  0.00     0.144 A 
HETATM   11  H   UNL     1      40.108 -17.043   4.863  1.00  0.00     0.165 HD
HETATM   12  C   UNL     1      42.815 -17.626   4.131  1.00  0.00    -0.014 A 
HETATM   13  C   UNL     1      41.169 -17.303   2.189  1.00  0.00     0.047 C 
HETATM   14  C   UNL     1      42.352 -15.305   3.227  1.00  0.00     0.261 A 
HETATM   15  C   UNL     1      43.401 -18.690   3.414  1.00  0.00    -0.049 A 
HETATM   16  C   UNL     1      43.266 -17.371   5.442  1.00  0.00     0.011 A 
HETATM   17  C   UNL     1      44.398 -19.473   4.021  1.00  0.00     0.007 A 
HETATM   18  C   UNL     1      42.953 -19.061   2.022  1.00  0.00     0.039 C 
HETATM   19  C   UNL     1      44.832 -19.199   5.316  1.00  0.00     0.001 A 
HETATM   20  C   UNL     1      44.265 -18.150   6.027  1.00  0.00     0.001 A 
HETATM   21  C   UNL     1      42.233 -17.931   1.295  1.00  0.00     0.008 C 
HETATM   22  O   UNL     1      43.268 -15.022   2.466  1.00  0.00    -0.270 OA
ENDBRANCH   5   6
ENDBRANCH   2   5
BRANCH   1  23
HETATM   23  C   UNL     1      41.237 -11.501   0.842  1.00  0.00     0.155 C 
BRANCH  23  24
HETATM   24  C   UNL     1      41.921 -10.285   0.184  1.00  0.00     0.043 C 
BRANCH  24  25
HETATM   25  C   UNL     1      43.051 -10.628  -0.783  1.00  0.00     0.076 C 
BRANCH  25  26
HETATM   26  S   UNL     1      42.709  -9.855  -2.403  1.00  0.00    -0.173 SA
HETATM   27  C   UNL     1      42.530 -11.350  -3.401  1.00  0.00     0.089 C 
ENDBRANCH  25  26
ENDBRANCH  24  25
ENDBRANCH  23  24
BRANCH  23  28
HETATM   28  C   UNL     1      40.886 -12.543  -0.189  1.00  0.00     0.128 A 
HETATM   29  N   UNL     1      41.429 -13.740  -0.299  1.00  0.00    -0.231 NA
HETATM   30  C   UNL     1      40.842 -14.323  -1.395  1.00  0.00     0.085 A 
HETATM   31  C   UNL     1      39.911 -13.466  -1.971  1.00  0.00     0.062 A 
HETATM   32  C   UNL     1      41.062 -15.583  -1.967  1.00  0.00     0.034 A 
HETATM   33  N   UNL     1      39.938 -12.356  -1.170  1.00  0.00    -0.341 N 
HETATM   34  C   UNL     1      39.181 -13.788  -3.117  1.00  0.00     0.032 A 
HETATM   35  H   UNL     1      39.392 -11.517  -1.299  1.00  0.00     0.167 HD
HETATM   36  C   UNL     1      39.422 -15.047  -3.681  1.00  0.00     0.002 A 
HETATM   37  C   UNL     1      40.343 -15.933  -3.116  1.00  0.00     0.002 A 
ENDBRANCH  23  28
ENDBRANCH   1  23
TORSDOF 7
ENDMDL
MODEL 4
REMARK VINA RESULT:      -9.1      4.855      8.984
REMARK  7 active torsions:
REMARK  status: ('A' for Active; 'I' for Inactive)
REMARK    1  A    between atoms: S_2  and  C_3 
REMARK    2  A    between atoms: C_3  and  C_4 
REMARK    3  A    between atoms: C_4  and  C_5 
REMARK    4  A    between atoms: C_5  and  N_6 
REMARK    5  A    between atoms: C_5  and  C_26 
REMARK       I    between atoms: N_6  and  C_7 
REMARK    6  A    between atoms: C_7  and  C_8 
REMARK    7  A    between atoms: C_8  and  N_9 
ROOT
HETATM    1  N   UNL     1      40.997 -15.739   3.146  1.00  0.00    -0.348 N 
HETATM    2  C   UNL     1      40.688 -14.536   2.536  1.00  0.00     0.236 C 
HETATM    3  O   UNL     1      41.313 -13.501   2.742  1.00  0.00    -0.272 OA
HETATM    4  H   UNL     1      40.804 -16.539   2.544  1.00  0.00     0.163 HD
ENDROOT
BRANCH   2   5
HETATM    5  C   UNL     1      39.634 -14.609   1.430  1.00  0.00     0.239 C 
BRANCH   5   6
HETATM    6  N   UNL     1      40.150 -14.484   0.081  1.00  0.00    -0.259 N 
HETATM    7  C   UNL     1      41.147 -15.242  -0.436  1.00  0.00     0.326 A 
HETATM    8  O   UNL     1      41.622 -16.245   0.072  1.00  0.00    -0.247 OA
HETATM    9  N   UNL     1      41.507 -14.742  -1.658  1.00  0.00    -0.320 N 
HETATM   10  C   UNL     1      40.761 -13.549  -2.015  1.00  0.00     0.144 A 
HETATM   11  H   UNL     1      42.303 -15.100  -2.170  1.00  0.00     0.165 HD
HETATM   12  C   UNL     1      41.649 -12.312  -2.066  1.00  0.00    -0.014 A 
HETATM   13  C   UNL     1      39.982 -13.813  -3.311  1.00  0.00     0.047 C 
HETATM   14  C   UNL     1      39.802 -13.491  -0.795  1.00  0.00     0.261 A 
HETATM   15  C   UNL     1      41.471 -11.337  -3.069  1.00  0.00    -0.049 A 
HETATM   16  C   UNL     1      42.621 -12.082  -1.070  1.00  0.00     0.011 A 
HETATM   17  C   UNL     1      42.266 -10.178  -3.062  1.00  0.00     0.007 A 
HETATM   18  C   UNL     1      40.484 -11.518  -4.195  1.00  0.00     0.039 C 
HETATM   19  C   UNL     1      43.216  -9.968  -2.065  1.00  0.00     0.001 A 
HETATM   20  C   UNL     1      43.396 -10.921  -1.071  1.00  0.00     0.001 A 
HETATM   21  C   UNL     1      39.388 -12.531  -3.886  1.00  0.00     0.008 C 
HETATM   22  O   UNL     1      38.904 -12.677  -0.622  1.00  0.00    -0.270 OA
ENDBRANCH   5   6
ENDBRANCH   2   5
BRANCH   1  23
HETATM   23  C   UNL     1      42.202 -15.899   3.964  1.00  0.00     0.155 C 
BRANCH  23  24
HETATM   24  C   UNL     1      42.077 -15.594   5.471  1.00  0.00     0.043 C 
BRANCH  24  25
HETATM   25  C   UNL     1      42.917 -14.417   5.961  1.00  0.00     0.076 C 
BRANCH  25  26
HETATM   26  S   UNL     1      44.406 -15.054   6.807  1.00  0.00    -0.173 SA
HETATM   27  C   UNL     1      44.932 -13.540   7.639  1.00  0.00     0.089 C 
ENDBRANCH  25  26
ENDBRANCH  24  25
ENDBRANCH  23  24
BRANCH  23  28
HETATM   28  C   UNL     1      42.768 -17.278   3.739  1.00  0.00     0.128 A 
HETATM   29  N   UNL     1      43.563 -17.935   4.561  1.00  0.00    -0.231 NA
HETATM   30  C   UNL     1      43.861 -19.119   3.934  1.00  0.00     0.085 A 
HETATM   31  C   UNL     1      43.229 -19.196   2.698  1.00  0.00     0.062 A 
HETATM   32  C   UNL     1      44.676 -20.178   4.356  1.00  0.00     0.034 A 
HETATM   33  N   UNL     1      42.520 -18.028   2.611  1.00  0.00    -0.341 N 
HETATM   34  C   UNL     1      43.376 -20.280   1.830  1.00  0.00     0.032 A 
HETATM   35  H   UNL     1      41.947 -17.737   1.833  1.00  0.00     0.167 HD
HETATM   36  C   UNL     1      44.203 -21.324   2.264  1.00  0.00     0.002 A 
HETATM   37  C   UNL     1      44.840 -21.278   3.506  1.00  0.00     0.002 A 
ENDBRANCH  23  28
ENDBRANCH   1  23
TORSDOF 7
ENDMDL
MODEL 5
REMARK VINA RESULT:      -9.0      1.581      2.896
REMARK  7 active torsions:
REMARK  status: ('A' for Active; 'I' for Inactive)
REMARK    1  A    between atoms: S_2  and  C_3 
REMARK    2  A    between atoms: C_3  and  C_4 
REMARK    3  A    between atoms: C_4  and  C_5 
REMARK    4  A    between atoms: C_5  and  N_6 
REMARK    5  A    between atoms: C_5  and  C_26 
REMARK       I    between atoms: N_6  and  C_7 
REMARK    6  A    between atoms: C_7  and  C_8 
REMARK    7  A    between atoms: C_8  and  N_9 
ROOT
HETATM    1  N   UNL     1      40.251 -12.320   6.831  1.00  0.00    -0.348 N 
HETATM    2  C   UNL     1      39.886 -12.708   5.554  1.00  0.00     0.236 C 
HETATM    3  O   UNL     1      39.547 -11.913   4.684  1.00  0.00    -0.272 OA
HETATM    4  H   UNL     1      40.966 -12.927   7.230  1.00  0.00     0.163 HD
ENDROOT
BRANCH   2   5
HETATM    5  C   UNL     1      40.116 -14.183   5.221  1.00  0.00     0.239 C 
BRANCH   5   6
HETATM    6  N   UNL     1      41.428 -14.693   5.564  1.00  0.00    -0.259 N 
HETATM    7  C   UNL     1      42.597 -14.063   5.291  1.00  0.00     0.326 A 
HETATM    8  O   UNL     1      42.716 -12.914   4.897  1.00  0.00    -0.247 OA
HETATM    9  N   UNL     1      43.640 -14.899   5.582  1.00  0.00    -0.320 N 
HETATM   10  C   UNL     1      43.199 -16.201   6.048  1.00  0.00     0.144 A 
HETATM   11  H   UNL     1      44.596 -14.660   5.355  1.00  0.00     0.165 HD
HETATM   12  C   UNL     1      43.545 -17.309   5.061  1.00  0.00    -0.014 A 
HETATM   13  C   UNL     1      43.738 -16.436   7.466  1.00  0.00     0.047 C 
HETATM   14  C   UNL     1      41.668 -15.942   6.073  1.00  0.00     0.261 A 
HETATM   15  C   UNL     1      43.990 -18.567   5.517  1.00  0.00    -0.049 A 
HETATM   16  C   UNL     1      43.360 -17.124   3.676  1.00  0.00     0.011 A 
HETATM   17  C   UNL     1      44.250 -19.592   4.591  1.00  0.00     0.007 A 
HETATM   18  C   UNL     1      44.254 -18.843   6.977  1.00  0.00     0.039 C 
HETATM   19  C   UNL     1      44.055 -19.389   3.227  1.00  0.00     0.001 A 
HETATM   20  C   UNL     1      43.613 -18.154   2.769  1.00  0.00     0.001 A 
HETATM   21  C   UNL     1      43.538 -17.879   7.916  1.00  0.00     0.008 C 
HETATM   22  O   UNL     1      40.810 -16.728   6.453  1.00  0.00    -0.270 OA
ENDBRANCH   5   6
ENDBRANCH   2   5
BRANCH   1  23
HETATM   23  C   UNL     1      40.415 -10.908   7.188  1.00  0.00     0.155 C 
BRANCH  23  24
HETATM   24  C   UNL     1      39.132 -10.069   7.351  1.00  0.00     0.043 C 
BRANCH  24  25
HETATM   25  C   UNL     1      39.038  -8.852   6.433  1.00  0.00     0.076 C 
BRANCH  25  26
HETATM   26  S   UNL     1      38.565  -7.391   7.423  1.00  0.00    -0.173 SA
HETATM   27  C   UNL     1      38.739  -8.095   9.077  1.00  0.00     0.089 C 
ENDBRANCH  25  26
ENDBRANCH  24  25
ENDBRANCH  23  24
BRANCH  23  28
HETATM   28  C   UNL     1      41.282 -10.812   8.418  1.00  0.00     0.128 A 
HETATM   29  N   UNL     1      42.568 -10.520   8.441  1.00  0.00    -0.231 NA
HETATM   30  C   UNL     1      42.948 -10.590   9.758  1.00  0.00     0.085 A 
HETATM   31  C   UNL     1      41.869 -10.926  10.567  1.00  0.00     0.062 A 
HETATM   32  C   UNL     1      44.206 -10.387  10.341  1.00  0.00     0.034 A 
HETATM   33  N   UNL     1      40.818 -11.034   9.695  1.00  0.00    -0.341 N 
HETATM   34  C   UNL     1      41.971 -11.094  11.949  1.00  0.00     0.032 A 
HETATM   35  H   UNL     1      39.870 -11.281   9.935  1.00  0.00     0.167 HD
HETATM   36  C   UNL     1      43.238 -10.898  12.513  1.00  0.00     0.002 A 
HETATM   37  C   UNL     1      44.338 -10.547  11.725  1.00  0.00     0.002 A 
ENDBRANCH  23  28
ENDBRANCH   1  23
TORSDOF 7
ENDMDL
MODEL 6
REMARK VINA RESULT:      -8.8      5.526      8.584
REMARK  7 active torsions:
REMARK  status: ('A' for Active; 'I' for Inactive)
REMARK    1  A    between atoms: S_2  and  C_3 
REMARK    2  A    between atoms: C_3  and  C_4 
REMARK    3  A    between atoms: C_4  and  C_5 
REMARK    4  A    between atoms: C_5  and  N_6 
REMARK    5  A    between atoms: C_5  and  C_26 
REMARK       I    between atoms: N_6  and  C_7 
REMARK    6  A    between atoms: C_7  and  C_8 
REMARK    7  A    between atoms: C_8  and  N_9 
ROOT
HETATM    1  N   UNL     1      39.969 -14.591   0.901  1.00  0.00    -0.348 N 
HETATM    2  C   UNL     1      39.929 -15.224   2.131  1.00  0.00     0.236 C 
HETATM    3  O   UNL     1      39.450 -14.707   3.135  1.00  0.00    -0.272 OA
HETATM    4  H   UNL     1      39.876 -15.246   0.125  1.00  0.00     0.163 HD
ENDROOT
BRANCH   2   5
HETATM    5  C   UNL     1      40.345 -16.697   2.129  1.00  0.00     0.239 C 
BRANCH   5   6
HETATM    6  N   UNL     1      41.711 -16.950   2.541  1.00  0.00    -0.259 N 
HETATM    7  C   UNL     1      42.810 -16.567   1.847  1.00  0.00     0.326 A 
HETATM    8  O   UNL     1      42.825 -15.806   0.893  1.00  0.00    -0.247 OA
HETATM    9  N   UNL     1      43.922 -17.124   2.418  1.00  0.00    -0.320 N 
HETATM   10  C   UNL     1      43.601 -17.975   3.550  1.00  0.00     0.144 A 
HETATM   11  H   UNL     1      44.837 -17.047   1.994  1.00  0.00     0.165 HD
HETATM   12  C   UNL     1      43.912 -19.440   3.270  1.00  0.00    -0.014 A 
HETATM   13  C   UNL     1      44.287 -17.419   4.805  1.00  0.00     0.047 C 
HETATM   14  C   UNL     1      42.068 -17.736   3.604  1.00  0.00     0.261 A 
HETATM   15  C   UNL     1      44.469 -20.263   4.270  1.00  0.00    -0.049 A 
HETATM   16  C   UNL     1      43.584 -20.021   2.028  1.00  0.00     0.011 A 
HETATM   17  C   UNL     1      44.695 -21.624   4.006  1.00  0.00     0.007 A 
HETATM   18  C   UNL     1      44.888 -19.718   5.614  1.00  0.00     0.039 C 
HETATM   19  C   UNL     1      44.358 -22.179   2.774  1.00  0.00     0.001 A 
HETATM   20  C   UNL     1      43.805 -21.378   1.784  1.00  0.00     0.001 A 
HETATM   21  C   UNL     1      44.213 -18.399   5.971  1.00  0.00     0.008 C 
HETATM   22  O   UNL     1      41.296 -18.195   4.436  1.00  0.00    -0.270 OA
ENDBRANCH   5   6
ENDBRANCH   2   5
BRANCH   1  23
HETATM   23  C   UNL     1      39.291 -13.312   0.672  1.00  0.00     0.155 C 
BRANCH  23  24
HETATM   24  C   UNL     1      40.136 -12.031   0.815  1.00  0.00     0.043 C 
BRANCH  24  25
HETATM   25  C   UNL     1      39.925 -11.262   2.117  1.00  0.00     0.076 C 
BRANCH  25  26
HETATM   26  S   UNL     1      39.022  -9.714   1.759  1.00  0.00    -0.173 SA
HETATM   27  C   UNL     1      39.703  -9.356   0.125  1.00  0.00     0.089 C 
ENDBRANCH  25  26
ENDBRANCH  24  25
ENDBRANCH  23  24
BRANCH  23  28
HETATM   28  C   UNL     1      38.601 -13.357  -0.667  1.00  0.00     0.128 A 
HETATM   29  N   UNL     1      38.062 -12.331  -1.297  1.00  0.00    -0.231 NA
HETATM   30  C   UNL     1      37.513 -12.840  -2.448  1.00  0.00     0.085 A 
HETATM   31  C   UNL     1      37.724 -14.211  -2.532  1.00  0.00     0.062 A 
HETATM   32  C   UNL     1      36.807 -12.190  -3.469  1.00  0.00     0.034 A 
HETATM   33  N   UNL     1      38.441 -14.509  -1.404  1.00  0.00    -0.341 N 
HETATM   34  C   UNL     1      37.249 -14.996  -3.585  1.00  0.00     0.032 A 
HETATM   35  H   UNL     1      38.760 -15.425  -1.127  1.00  0.00     0.167 HD
HETATM   36  C   UNL     1      36.536 -14.331  -4.591  1.00  0.00     0.002 A 
HETATM   37  C   UNL     1      36.320 -12.951  -4.538  1.00  0.00     0.002 A 
ENDBRANCH  23  28
ENDBRANCH   1  23
TORSDOF 7
ENDMDL
MODEL 7
REMARK VINA RESULT:      -8.4      4.222      7.165
REMARK  7 active torsions:
REMARK  status: ('A' for Active; 'I' for Inactive)
REMARK    1  A    between atoms: S_2  and  C_3 
REMARK    2  A    between atoms: C_3  and  C_4 
REMARK    3  A    between atoms: C_4  and  C_5 
REMARK    4  A    between atoms: C_5  and  N_6 
REMARK    5  A    between atoms: C_5  and  C_26 
REMARK       I    between atoms: N_6  and  C_7 
REMARK    6  A    between atoms: C_7  and  C_8 
REMARK    7  A    between atoms: C_8  and  N_9 
ROOT
HETATM    1  N   UNL     1      40.200 -15.039   2.862  1.00  0.00    -0.348 N 
HETATM    2  C   UNL     1      39.898 -14.079   3.811  1.00  0.00     0.236 C 
HETATM    3  O   UNL     1      39.233 -13.078   3.563  1.00  0.00    -0.272 OA
HETATM    4  H   UNL     1      40.255 -15.975   3.262  1.00  0.00     0.163 HD
ENDROOT
BRANCH   2   5
HETATM    5  C   UNL     1      40.277 -14.431   5.251  1.00  0.00     0.239 C 
BRANCH   5   6
HETATM    6  N   UNL     1      41.572 -15.062   5.407  1.00  0.00    -0.259 N 
HETATM    7  C   UNL     1      42.762 -14.432   5.251  1.00  0.00     0.326 A 
HETATM    8  O   UNL     1      42.925 -13.227   5.144  1.00  0.00    -0.247 OA
HETATM    9  N   UNL     1      43.771 -15.355   5.287  1.00  0.00    -0.320 N 
HETATM   10  C   UNL     1      43.280 -16.713   5.439  1.00  0.00     0.144 A 
HETATM   11  H   UNL     1      44.731 -15.107   5.088  1.00  0.00     0.165 HD
HETATM   12  C   UNL     1      43.544 -17.558   4.199  1.00  0.00    -0.014 A 
HETATM   13  C   UNL     1      43.847 -17.310   6.734  1.00  0.00     0.047 C 
HETATM   14  C   UNL     1      41.765 -16.406   5.587  1.00  0.00     0.261 A 
HETATM   15  C   UNL     1      43.940 -18.906   4.316  1.00  0.00    -0.049 A 
HETATM   16  C   UNL     1      43.329 -17.031   2.909  1.00  0.00     0.011 A 
HETATM   17  C   UNL     1      44.123 -19.682   3.159  1.00  0.00     0.007 A 
HETATM   18  C   UNL     1      44.231 -19.542   5.654  1.00  0.00     0.039 C 
HETATM   19  C   UNL     1      43.899 -19.142   1.894  1.00  0.00     0.001 A 
HETATM   20  C   UNL     1      43.505 -17.817   1.769  1.00  0.00     0.001 A 
HETATM   21  C   UNL     1      43.590 -18.810   6.826  1.00  0.00     0.008 C 
HETATM   22  O   UNL     1      40.881 -17.226   5.797  1.00  0.00    -0.270 OA
ENDBRANCH   5   6
ENDBRANCH   2   5
BRANCH   1  23
HETATM   23  C   UNL     1      39.606 -15.009   1.522  1.00  0.00     0.155 C 
BRANCH  23  24
HETATM   24  C   UNL     1      38.110 -14.648   1.422  1.00  0.00     0.043 C 
BRANCH  24  25
HETATM   25  C   UNL     1      37.720 -13.863   0.172  1.00  0.00     0.076 C 
BRANCH  25  26
HETATM   26  S   UNL     1      37.176 -12.189   0.662  1.00  0.00    -0.173 SA
HETATM   27  C   UNL     1      38.093 -11.221  -0.556  1.00  0.00     0.089 C 
ENDBRANCH  25  26
ENDBRANCH  24  25
ENDBRANCH  23  24
BRANCH  23  28
HETATM   28  C   UNL     1      40.436 -14.114   0.638  1.00  0.00     0.128 A 
HETATM   29  N   UNL     1      40.837 -14.389  -0.588  1.00  0.00    -0.231 NA
HETATM   30  C   UNL     1      41.597 -13.318  -0.987  1.00  0.00     0.085 A 
HETATM   31  C   UNL     1      41.661 -12.357   0.015  1.00  0.00     0.062 A 
HETATM   32  C   UNL     1      42.276 -13.099  -2.193  1.00  0.00     0.034 A 
HETATM   33  N   UNL     1      40.893 -12.874   1.024  1.00  0.00    -0.341 N 
HETATM   34  C   UNL     1      42.390 -11.172  -0.105  1.00  0.00     0.032 A 
HETATM   35  H   UNL     1      40.724 -12.445   1.922  1.00  0.00     0.167 HD
HETATM   36  C   UNL     1      43.071 -10.975  -1.314  1.00  0.00     0.002 A 
HETATM   37  C   UNL     1      43.014 -11.918  -2.343  1.00  0.00     0.002 A 
ENDBRANCH  23  28
ENDBRANCH   1  23
TORSDOF 7
ENDMDL
MODEL 8
REMARK VINA RESULT:      -8.3      4.060      7.579
REMARK  7 active torsions:
REMARK  status: ('A' for Active; 'I' for Inactive)
REMARK    1  A    between atoms: S_2  and  C_3 
REMARK    2  A    between atoms: C_3  and  C_4 
REMARK    3  A    between atoms: C_4  and  C_5 
REMARK    4  A    between atoms: C_5  and  N_6 
REMARK    5  A    between atoms: C_5  and  C_26 
REMARK       I    between atoms: N_6  and  C_7 
REMARK    6  A    between atoms: C_7  and  C_8 
REMARK    7  A    between atoms: C_8  and  N_9 
ROOT
HETATM    1  N   UNL     1      40.011 -13.681   3.316  1.00  0.00    -0.348 N 
HETATM    2  C   UNL     1      39.809 -13.388   4.653  1.00  0.00     0.236 C 
HETATM    3  O   UNL     1      39.350 -12.319   5.041  1.00  0.00    -0.272 OA
HETATM    4  H   UNL     1      39.872 -14.670   3.111  1.00  0.00     0.163 HD
ENDROOT
BRANCH   2   5
HETATM    5  C   UNL     1      40.009 -14.554   5.623  1.00  0.00     0.239 C 
BRANCH   5   6
HETATM    6  N   UNL     1      41.327 -15.155   5.597  1.00  0.00    -0.259 N 
HETATM    7  C   UNL     1      42.491 -14.463   5.641  1.00  0.00     0.326 A 
HETATM    8  O   UNL     1      42.610 -13.275   5.895  1.00  0.00    -0.247 OA
HETATM    9  N   UNL     1      43.535 -15.319   5.413  1.00  0.00    -0.320 N 
HETATM   10  C   UNL     1      43.096 -16.678   5.155  1.00  0.00     0.144 A 
HETATM   11  H   UNL     1      44.484 -14.987   5.302  1.00  0.00     0.165 HD
HETATM   12  C   UNL     1      43.386 -17.111   3.724  1.00  0.00    -0.014 A 
HETATM   13  C   UNL     1      43.689 -17.608   6.222  1.00  0.00     0.047 C 
HETATM   14  C   UNL     1      41.571 -16.484   5.375  1.00  0.00     0.261 A 
HETATM   15  C   UNL     1      43.833 -18.419   3.443  1.00  0.00    -0.049 A 
HETATM   16  C   UNL     1      43.148 -16.237   2.643  1.00  0.00     0.011 A 
HETATM   17  C   UNL     1      44.041 -18.813   2.110  1.00  0.00     0.007 A 
HETATM   18  C   UNL     1      44.153 -19.408   4.536  1.00  0.00     0.039 C 
HETATM   19  C   UNL     1      43.793 -17.934   1.058  1.00  0.00     0.001 A 
HETATM   20  C   UNL     1      43.349 -16.646   1.324  1.00  0.00     0.001 A 
HETATM   21  C   UNL     1      43.489 -19.077   5.868  1.00  0.00     0.008 C 
HETATM   22  O   UNL     1      40.719 -17.362   5.328  1.00  0.00    -0.270 OA
ENDBRANCH   5   6
ENDBRANCH   2   5
BRANCH   1  23
HETATM   23  C   UNL     1      39.537 -12.791   2.253  1.00  0.00     0.155 C 
BRANCH  23  24
HETATM   24  C   UNL     1      40.135 -11.370   2.205  1.00  0.00     0.043 C 
BRANCH  24  25
HETATM   25  C   UNL     1      41.257 -11.179   1.187  1.00  0.00     0.076 C 
BRANCH  25  26
HETATM   26  S   UNL     1      41.346  -9.414   0.719  1.00  0.00    -0.173 SA
HETATM   27  C   UNL     1      42.821  -9.468  -0.321  1.00  0.00     0.089 C 
ENDBRANCH  25  26
ENDBRANCH  24  25
ENDBRANCH  23  24
BRANCH  23  28
HETATM   28  C   UNL     1      39.695 -13.487   0.925  1.00  0.00     0.128 A 
HETATM   29  N   UNL     1      40.601 -14.398   0.628  1.00  0.00    -0.231 NA
HETATM   30  C   UNL     1      40.401 -14.715  -0.692  1.00  0.00     0.085 A 
HETATM   31  C   UNL     1      39.342 -13.985  -1.220  1.00  0.00     0.062 A 
HETATM   32  C   UNL     1      41.094 -15.613  -1.514  1.00  0.00     0.034 A 
HETATM   33  N   UNL     1      38.894 -13.235  -0.167  1.00  0.00    -0.341 N 
HETATM   34  C   UNL     1      38.933 -14.085  -2.552  1.00  0.00     0.032 A 
HETATM   35  H   UNL     1      38.135 -12.570  -0.190  1.00  0.00     0.167 HD
HETATM   36  C   UNL     1      39.643 -14.980  -3.361  1.00  0.00     0.002 A 
HETATM   37  C   UNL     1      40.704 -15.735  -2.853  1.00  0.00     0.002 A 
ENDBRANCH  23  28
ENDBRANCH   1  23
TORSDOF 7
ENDMDL
MODEL 9
REMARK VINA RESULT:      -8.3      4.936      8.450
REMARK  7 active torsions:
REMARK  status: ('A' for Active; 'I' for Inactive)
REMARK    1  A    between atoms: S_2  and  C_3 
REMARK    2  A    between atoms: C_3  and  C_4 
REMARK    3  A    between atoms: C_4  and  C_5 
REMARK    4  A    between atoms: C_5  and  N_6 
REMARK    5  A    between atoms: C_5  and  C_26 
REMARK       I    between atoms: N_6  and  C_7 
REMARK    6  A    between atoms: C_7  and  C_8 
REMARK    7  A    between atoms: C_8  and  N_9 
ROOT
HETATM    1  N   UNL     1      40.746 -14.871   3.143  1.00  0.00    -0.348 N 
HETATM    2  C   UNL     1      40.554 -13.850   2.231  1.00  0.00     0.236 C 
HETATM    3  O   UNL     1      41.185 -12.797   2.262  1.00  0.00    -0.272 OA
HETATM    4  H   UNL     1      40.601 -15.792   2.730  1.00  0.00     0.163 HD
ENDROOT
BRANCH   2   5
HETATM    5  C   UNL     1      39.640 -14.182   1.050  1.00  0.00     0.239 C 
BRANCH   5   6
HETATM    6  N   UNL     1      40.230 -13.982  -0.259  1.00  0.00    -0.259 N 
HETATM    7  C   UNL     1      41.238 -14.729  -0.773  1.00  0.00     0.326 A 
HETATM    8  O   UNL     1      41.664 -15.774  -0.308  1.00  0.00    -0.247 OA
HETATM    9  N   UNL     1      41.674 -14.159  -1.938  1.00  0.00    -0.320 N 
HETATM   10  C   UNL     1      40.974 -12.927  -2.253  1.00  0.00     0.144 A 
HETATM   11  H   UNL     1      42.488 -14.502  -2.429  1.00  0.00     0.165 HD
HETATM   12  C   UNL     1      41.890 -11.712  -2.174  1.00  0.00    -0.014 A 
HETATM   13  C   UNL     1      40.261 -13.086  -3.603  1.00  0.00     0.047 C 
HETATM   14  C   UNL     1      39.952 -12.925  -1.083  1.00  0.00     0.261 A 
HETATM   15  C   UNL     1      41.786 -10.669  -3.118  1.00  0.00    -0.049 A 
HETATM   16  C   UNL     1      42.811 -11.571  -1.116  1.00  0.00     0.011 A 
HETATM   17  C   UNL     1      42.604  -9.533  -2.993  1.00  0.00     0.007 A 
HETATM   18  C   UNL     1      40.858 -10.752  -4.305  1.00  0.00     0.039 C 
HETATM   19  C   UNL     1      43.503  -9.412  -1.936  1.00  0.00     0.001 A 
HETATM   20  C   UNL     1      43.609 -10.432  -0.999  1.00  0.00     0.001 A 
HETATM   21  C   UNL     1      39.726 -11.756  -4.121  1.00  0.00     0.008 C 
HETATM   22  O   UNL     1      39.063 -12.103  -0.904  1.00  0.00    -0.270 OA
ENDBRANCH   5   6
ENDBRANCH   2   5
BRANCH   1  23
HETATM   23  C   UNL     1      41.837 -14.835   4.121  1.00  0.00     0.155 C 
BRANCH  23  24
HETATM   24  C   UNL     1      41.470 -14.474   5.574  1.00  0.00     0.043 C 
BRANCH  24  25
HETATM   25  C   UNL     1      41.246 -12.986   5.831  1.00  0.00     0.076 C 
BRANCH  25  26
HETATM   26  S   UNL     1      39.503 -12.716   6.310  1.00  0.00    -0.173 SA
HETATM   27  C   UNL     1      38.943 -11.805   4.855  1.00  0.00     0.089 C 
ENDBRANCH  25  26
ENDBRANCH  24  25
ENDBRANCH  23  24
BRANCH  23  28
HETATM   28  C   UNL     1      42.590 -16.140   4.064  1.00  0.00     0.128 A 
HETATM   29  N   UNL     1      42.608 -16.982   3.049  1.00  0.00    -0.231 NA
HETATM   30  C   UNL     1      43.377 -18.045   3.453  1.00  0.00     0.085 A 
HETATM   31  C   UNL     1      43.849 -17.850   4.746  1.00  0.00     0.062 A 
HETATM   32  C   UNL     1      43.710 -19.222   2.771  1.00  0.00     0.034 A 
HETATM   33  N   UNL     1      43.359 -16.622   5.100  1.00  0.00    -0.341 N 
HETATM   34  C   UNL     1      44.636 -18.784   5.423  1.00  0.00     0.032 A 
HETATM   35  H   UNL     1      43.494 -16.161   5.987  1.00  0.00     0.167 HD
HETATM   36  C   UNL     1      44.950 -19.960   4.729  1.00  0.00     0.002 A 
HETATM   37  C   UNL     1      44.499 -20.176   3.425  1.00  0.00     0.002 A 
ENDBRANCH  23  28
ENDBRANCH   1  23
TORSDOF 7
ENDMDL
MODEL 10
REMARK VINA RESULT:      -8.2      4.587      8.287
REMARK  7 active torsions:
REMARK  status: ('A' for Active; 'I' for Inactive)
REMARK    1  A    between atoms: S_2  and  C_3 
REMARK    2  A    between atoms: C_3  and  C_4 
REMARK    3  A    between atoms: C_4  and  C_5 
REMARK    4  A    between atoms: C_5  and  N_6 
REMARK    5  A    between atoms: C_5  and  C_26 
REMARK       I    between atoms: N_6  and  C_7 
REMARK    6  A    between atoms: C_7  and  C_8 
REMARK    7  A    between atoms: C_8  and  N_9 
ROOT
HETATM    1  N   UNL     1      39.828 -13.115   3.325  1.00  0.00    -0.348 N 
HETATM    2  C   UNL     1      39.954 -11.874   2.727  1.00  0.00     0.236 C 
HETATM    3  O   UNL     1      40.810 -11.058   3.053  1.00  0.00    -0.272 OA
HETATM    4  H   UNL     1      39.502 -13.828   2.672  1.00  0.00     0.163 HD
ENDROOT
BRANCH   2   5
HETATM    5  C   UNL     1      39.081 -11.644   1.492  1.00  0.00     0.239 C 
BRANCH   5   6
HETATM    6  N   UNL     1      39.667 -12.072   0.238  1.00  0.00    -0.259 N 
HETATM    7  C   UNL     1      40.196 -11.239  -0.691  1.00  0.00     0.326 A 
HETATM    8  O   UNL     1      40.428 -10.051  -0.538  1.00  0.00    -0.247 OA
HETATM    9  N   UNL     1      40.488 -11.951  -1.822  1.00  0.00    -0.320 N 
HETATM   10  C   UNL     1      40.116 -13.350  -1.714  1.00  0.00     0.144 A 
HETATM   11  H   UNL     1      40.797 -11.501  -2.673  1.00  0.00     0.165 HD
HETATM   12  C   UNL     1      38.981 -13.716  -2.661  1.00  0.00    -0.014 A 
HETATM   13  C   UNL     1      41.372 -14.217  -1.878  1.00  0.00     0.047 C 
HETATM   14  C   UNL     1      39.629 -13.356  -0.239  1.00  0.00     0.261 A 
HETATM   15  C   UNL     1      38.980 -14.951  -3.341  1.00  0.00    -0.049 A 
HETATM   16  C   UNL     1      37.873 -12.859  -2.823  1.00  0.00     0.011 A 
HETATM   17  C   UNL     1      37.894 -15.291  -4.167  1.00  0.00     0.007 A 
HETATM   18  C   UNL     1      40.140 -15.913  -3.259  1.00  0.00     0.039 C 
HETATM   19  C   UNL     1      36.807 -14.431  -4.308  1.00  0.00     0.001 A 
HETATM   20  C   UNL     1      36.798 -13.214  -3.639  1.00  0.00     0.001 A 
HETATM   21  C   UNL     1      41.024 -15.693  -2.037  1.00  0.00     0.008 C 
HETATM   22  O   UNL     1      39.244 -14.333   0.389  1.00  0.00    -0.270 OA
ENDBRANCH   5   6
ENDBRANCH   2   5
BRANCH   1  23
HETATM   23  C   UNL     1      40.818 -13.611   4.285  1.00  0.00     0.155 C 
BRANCH  23  24
HETATM   24  C   UNL     1      40.317 -13.949   5.703  1.00  0.00     0.043 C 
BRANCH  24  25
HETATM   25  C   UNL     1      39.545 -12.829   6.396  1.00  0.00     0.076 C 
BRANCH  25  26
HETATM   26  S   UNL     1      40.671 -11.423   6.699  1.00  0.00    -0.173 SA
HETATM   27  C   UNL     1      39.570 -10.068   6.237  1.00  0.00     0.089 C 
ENDBRANCH  25  26
ENDBRANCH  24  25
ENDBRANCH  23  24
BRANCH  23  28
HETATM   28  C   UNL     1      41.546 -14.783   3.677  1.00  0.00     0.128 A 
HETATM   29  N   UNL     1      42.197 -15.720   4.338  1.00  0.00    -0.231 NA
HETATM   30  C   UNL     1      42.736 -16.550   3.387  1.00  0.00     0.085 A 
HETATM   31  C   UNL     1      42.404 -16.117   2.109  1.00  0.00     0.062 A 
HETATM   32  C   UNL     1      43.532 -17.692   3.540  1.00  0.00     0.034 A 
HETATM   33  N   UNL     1      41.626 -15.011   2.321  1.00  0.00    -0.341 N 
HETATM   34  C   UNL     1      42.841 -16.756   0.946  1.00  0.00     0.032 A 
HETATM   35  H   UNL     1      41.215 -14.427   1.608  1.00  0.00     0.167 HD
HETATM   36  C   UNL     1      43.644 -17.890   1.118  1.00  0.00     0.002 A 
HETATM   37  C   UNL     1      43.983 -18.355   2.391  1.00  0.00     0.002 A 
ENDBRANCH  23  28
ENDBRANCH   1  23
TORSDOF 7
ENDMDL
