MODEL 1
REMARK VINA RESULT:      -9.6      0.000      0.000
REMARK  8 active torsions:
REMARK  status: ('A' for Active; 'I' for Inactive)
REMARK    1  A    between atoms: C_7  and  C_8 
REMARK    2  A    between atoms: C_9  and  O_10 
REMARK    3  A    between atoms: C_12  and  N_13 
REMARK    4  A    between atoms: C_14  and  N_15 
REMARK       I    between atoms: N_15  and  C_16 
REMARK    5  A    between atoms: C_16  and  C_17 
REMARK    6  A    between atoms: C_19  and  O_20 
REMARK    7  A    between atoms: O_20  and  C_21 
REMARK    8  A    between atoms: C_21  and  C_22 
ROOT
HETATM    1  C   UNL     1      41.063 -11.603   6.646  1.00  0.00     0.050 A 
HETATM    2  C   UNL     1      39.861 -12.324   6.630  1.00  0.00     0.082 A 
HETATM    3  C   UNL     1      39.263 -12.707   5.431  1.00  0.00     0.067 A 
HETATM    4  C   UNL     1      39.887 -12.427   4.212  1.00  0.00     0.036 A 
HETATM    5  C   UNL     1      41.082 -11.706   4.209  1.00  0.00     0.030 A 
HETATM    6  C   UNL     1      41.662 -11.291   5.416  1.00  0.00     0.021 A 
ENDROOT
BRANCH   4   7
HETATM    7  N   UNL     1      39.225 -12.840   3.040  1.00  0.00    -0.337 N 
HETATM    8  C   UNL     1      39.337 -13.982   2.328  1.00  0.00     0.157 C 
HETATM    9  S   UNL     1      39.118 -13.928   0.668  1.00  0.00    -0.047 SA
HETATM   10  H   UNL     1      38.725 -12.100   2.558  1.00  0.00     0.168 HD
BRANCH   8  11
HETATM   11  N   UNL     1      39.519 -15.204   2.898  1.00  0.00    -0.201 NA
HETATM   12  C   UNL     1      40.649 -15.979   2.656  1.00  0.00     0.237 C 
HETATM   13  O   UNL     1      40.992 -16.438   1.573  1.00  0.00    -0.274 OA
HETATM   14  H   UNL     1      39.302 -15.096   3.878  1.00  0.00     0.139 HD
BRANCH  12  15
HETATM   15  C   UNL     1      41.485 -16.303   3.846  1.00  0.00     0.029 A 
HETATM   16  C   UNL     1      42.642 -17.094   3.776  1.00  0.00     0.053 A 
HETATM   17  C   UNL     1      43.332 -17.415   4.947  1.00  0.00     0.069 A 
HETATM   18  C   UNL     1      42.888 -16.913   6.173  1.00  0.00     0.037 A 
HETATM   19  C   UNL     1      41.758 -16.099   6.244  1.00  0.00     0.004 A 
HETATM   20  C   UNL     1      41.056 -15.796   5.081  1.00  0.00     0.017 A 
BRANCH  17  21
HETATM   21  O   UNL     1      44.447 -18.201   5.035  1.00  0.00    -0.351 OA
BRANCH  21  22
HETATM   22  C   UNL     1      44.284 -19.541   5.496  1.00  0.00     0.179 C 
BRANCH  22  23
HETATM   23  C   UNL     1      45.062 -20.500   4.580  1.00  0.00     0.002 C 
HETATM   24  C   UNL     1      44.942 -21.950   5.052  1.00  0.00     0.011 C 
HETATM   25  C   UNL     1      44.585 -20.382   3.130  1.00  0.00     0.011 C 
ENDBRANCH  22  23
ENDBRANCH  21  22
ENDBRANCH  17  21
ENDBRANCH  12  15
ENDBRANCH   8  11
ENDBRANCH   4   7
BRANCH   2  26
HETATM   26  O   UNL     1      39.203 -12.697   7.776  1.00  0.00    -0.360 OA
HETATM   27  H   UNL     1      39.725 -13.404   8.213  1.00  0.00     0.217 HD
ENDBRANCH   2  26
BRANCH   1  28
HETATM   28  C   UNL     1      41.676 -11.213   7.909  1.00  0.00     0.183 A 
HETATM   29  O   UNL     1      43.029 -11.392   8.037  1.00  0.00    -0.288 OA
HETATM   30  C   UNL     1      43.305 -10.932   9.294  1.00  0.00     0.112 A 
HETATM   31  C   UNL     1      42.111 -10.514   9.858  1.00  0.00     0.094 A 
HETATM   32  C   UNL     1      44.548 -10.886   9.924  1.00  0.00    -0.025 A 
HETATM   33  C   UNL     1      42.108 -10.036  11.175  1.00  0.00     0.041 A 
HETATM   34  N   UNL     1      41.087 -10.657   8.956  1.00  0.00    -0.221 NA
HETATM   35  C   UNL     1      43.326  -9.998  11.877  1.00  0.00    -0.059 A 
HETATM   36  C   UNL     1      43.362  -9.532  13.305  1.00  0.00     0.048 C 
HETATM   37  C   UNL     1      44.516 -10.412  11.250  1.00  0.00     0.016 A 
HETATM   38  C   UNL     1      45.831 -11.314   9.286  1.00  0.00     0.051 C 
ENDBRANCH   1  28
TORSDOF 8
ENDMDL
MODEL 2
REMARK VINA RESULT:      -9.5      1.467      1.669
REMARK  8 active torsions:
REMARK  status: ('A' for Active; 'I' for Inactive)
REMARK    1  A    between atoms: C_7  and  C_8 
REMARK    2  A    between atoms: C_9  and  O_10 
REMARK    3  A    between atoms: C_12  and  N_13 
REMARK    4  A    between atoms: C_14  and  N_15 
REMARK       I    between atoms: N_15  and  C_16 
REMARK    5  A    between atoms: C_16  and  C_17 
REMARK    6  A    between atoms: C_19  and  O_20 
REMARK    7  A    between atoms: O_20  and  C_21 
REMARK    8  A    between atoms: C_21  and  C_22 
ROOT
HETATM    1  C   UNL     1      40.861 -11.028   6.812  1.00  0.00     0.050 A 
HETATM    2  C   UNL     1      39.896 -12.033   6.657  1.00  0.00     0.082 A 
HETATM    3  C   UNL     1      39.309 -12.289   5.418  1.00  0.00     0.067 A 
HETATM    4  C   UNL     1      39.720 -11.579   4.286  1.00  0.00     0.036 A 
HETATM    5  C   UNL     1      40.676 -10.571   4.423  1.00  0.00     0.030 A 
HETATM    6  C   UNL     1      41.237 -10.294   5.678  1.00  0.00     0.021 A 
ENDROOT
BRANCH   4   7
HETATM    7  N   UNL     1      39.082 -11.886   3.069  1.00  0.00    -0.337 N 
HETATM    8  C   UNL     1      39.553 -12.509   1.968  1.00  0.00     0.157 C 
HETATM    9  S   UNL     1      38.962 -12.061   0.466  1.00  0.00    -0.047 SA
HETATM   10  H   UNL     1      38.197 -11.409   2.927  1.00  0.00     0.168 HD
BRANCH   8  11
HETATM   11  N   UNL     1      40.415 -13.562   2.015  1.00  0.00    -0.201 NA
HETATM   12  C   UNL     1      41.773 -13.403   2.270  1.00  0.00     0.237 C 
HETATM   13  O   UNL     1      42.572 -12.786   1.575  1.00  0.00    -0.274 OA
HETATM   14  H   UNL     1      39.973 -14.266   2.588  1.00  0.00     0.139 HD
BRANCH  12  15
HETATM   15  C   UNL     1      42.293 -14.089   3.487  1.00  0.00     0.029 A 
HETATM   16  C   UNL     1      42.160 -15.470   3.701  1.00  0.00     0.053 A 
HETATM   17  C   UNL     1      42.608 -16.029   4.901  1.00  0.00     0.069 A 
HETATM   18  C   UNL     1      43.221 -15.216   5.858  1.00  0.00     0.037 A 
HETATM   19  C   UNL     1      43.385 -13.850   5.635  1.00  0.00     0.004 A 
HETATM   20  C   UNL     1      42.920 -13.287   4.450  1.00  0.00     0.017 A 
BRANCH  17  21
HETATM   21  O   UNL     1      42.512 -17.344   5.261  1.00  0.00    -0.351 OA
BRANCH  21  22
HETATM   22  C   UNL     1      42.505 -18.322   4.222  1.00  0.00     0.179 C 
BRANCH  22  23
HETATM   23  C   UNL     1      43.949 -18.733   3.891  1.00  0.00     0.002 C 
HETATM   24  C   UNL     1      44.683 -19.254   5.127  1.00  0.00     0.011 C 
HETATM   25  C   UNL     1      43.979 -19.788   2.782  1.00  0.00     0.011 C 
ENDBRANCH  22  23
ENDBRANCH  21  22
ENDBRANCH  17  21
ENDBRANCH  12  15
ENDBRANCH   8  11
ENDBRANCH   4   7
BRANCH   2  26
HETATM   26  O   UNL     1      39.472 -12.824   7.697  1.00  0.00    -0.360 OA
HETATM   27  H   UNL     1      39.031 -13.616   7.321  1.00  0.00     0.217 HD
ENDBRANCH   2  26
BRANCH   1  28
HETATM   28  C   UNL     1      41.466 -10.777   8.114  1.00  0.00     0.183 A 
HETATM   29  O   UNL     1      42.811 -11.003   8.239  1.00  0.00    -0.288 OA
HETATM   30  C   UNL     1      43.082 -10.674   9.538  1.00  0.00     0.112 A 
HETATM   31  C   UNL     1      41.891 -10.279  10.126  1.00  0.00     0.094 A 
HETATM   32  C   UNL     1      44.317 -10.721  10.184  1.00  0.00    -0.025 A 
HETATM   33  C   UNL     1      41.881  -9.930  11.483  1.00  0.00     0.041 A 
HETATM   34  N   UNL     1      40.876 -10.309   9.202  1.00  0.00    -0.221 NA
HETATM   35  C   UNL     1      43.089  -9.991  12.199  1.00  0.00    -0.059 A 
HETATM   36  C   UNL     1      43.117  -9.665  13.666  1.00  0.00     0.048 C 
HETATM   37  C   UNL     1      44.278 -10.375  11.549  1.00  0.00     0.016 A 
HETATM   38  C   UNL     1      45.597 -11.119   9.523  1.00  0.00     0.051 C 
ENDBRANCH   1  28
TORSDOF 8
ENDMDL
MODEL 3
REMARK VINA RESULT:      -9.2      3.857      7.774
REMARK  8 active torsions:
REMARK  status: ('A' for Active; 'I' for Inactive)
REMARK    1  A    between atoms: C_7  and  C_8 
REMARK    2  A    between atoms: C_9  and  O_10 
REMARK    3  A    between atoms: C_12  and  N_13 
REMARK    4  A    between atoms: C_14  and  N_15 
REMARK       I    between atoms: N_15  and  C_16 
REMARK    5  A    between atoms: C_16  and  C_17 
REMARK    6  A    between atoms: C_19  and  O_20 
REMARK    7  A    between atoms: O_20  and  C_21 
REMARK    8  A    between atoms: C_21  and  C_22 
ROOT
HETATM    1  C   UNL     1      42.049 -15.499   5.425  1.00  0.00     0.050 A 
HETATM    2  C   UNL     1      40.749 -15.419   5.943  1.00  0.00     0.082 A 
HETATM    3  C   UNL     1      40.126 -14.188   6.148  1.00  0.00     0.067 A 
HETATM    4  C   UNL     1      40.771 -13.003   5.783  1.00  0.00     0.036 A 
HETATM    5  C   UNL     1      42.069 -13.065   5.271  1.00  0.00     0.030 A 
HETATM    6  C   UNL     1      42.705 -14.303   5.100  1.00  0.00     0.021 A 
ENDROOT
BRANCH   4   7
HETATM    7  N   UNL     1      40.086 -11.797   6.022  1.00  0.00    -0.337 N 
HETATM    8  C   UNL     1      39.679 -10.838   5.162  1.00  0.00     0.157 C 
HETATM    9  S   UNL     1      39.646  -9.245   5.680  1.00  0.00    -0.047 SA
HETATM   10  H   UNL     1      40.053 -11.519   6.997  1.00  0.00     0.168 HD
BRANCH   8  11
HETATM   11  N   UNL     1      39.192 -11.104   3.919  1.00  0.00    -0.201 NA
HETATM   12  C   UNL     1      40.010 -11.164   2.795  1.00  0.00     0.237 C 
HETATM   13  O   UNL     1      40.671 -10.242   2.334  1.00  0.00    -0.274 OA
HETATM   14  H   UNL     1      38.578 -11.900   4.019  1.00  0.00     0.139 HD
BRANCH  12  15
HETATM   15  C   UNL     1      40.037 -12.469   2.077  1.00  0.00     0.029 A 
HETATM   16  C   UNL     1      40.774 -12.680   0.902  1.00  0.00     0.053 A 
HETATM   17  C   UNL     1      40.692 -13.911   0.245  1.00  0.00     0.069 A 
HETATM   18  C   UNL     1      39.907 -14.933   0.786  1.00  0.00     0.037 A 
HETATM   19  C   UNL     1      39.198 -14.738   1.970  1.00  0.00     0.004 A 
HETATM   20  C   UNL     1      39.262 -13.507   2.615  1.00  0.00     0.017 A 
BRANCH  17  21
HETATM   21  O   UNL     1      41.322 -14.245  -0.920  1.00  0.00    -0.351 OA
BRANCH  21  22
HETATM   22  C   UNL     1      41.095 -15.549  -1.451  1.00  0.00     0.179 C 
BRANCH  22  23
HETATM   23  C   UNL     1      41.045 -15.480  -2.987  1.00  0.00     0.002 C 
HETATM   24  C   UNL     1      39.695 -15.950  -3.528  1.00  0.00     0.011 C 
HETATM   25  C   UNL     1      41.341 -14.062  -3.482  1.00  0.00     0.011 C 
ENDBRANCH  22  23
ENDBRANCH  21  22
ENDBRANCH  17  21
ENDBRANCH  12  15
ENDBRANCH   8  11
ENDBRANCH   4   7
BRANCH   2  26
HETATM   26  O   UNL     1      40.010 -16.528   6.275  1.00  0.00    -0.360 OA
HETATM   27  H   UNL     1      39.407 -16.730   5.529  1.00  0.00     0.217 HD
ENDBRANCH   2  26
BRANCH   1  28
HETATM   28  C   UNL     1      42.683 -16.794   5.215  1.00  0.00     0.183 A 
HETATM   29  O   UNL     1      42.922 -17.178   3.922  1.00  0.00    -0.288 OA
HETATM   30  C   UNL     1      43.523 -18.399   4.045  1.00  0.00     0.112 A 
HETATM   31  C   UNL     1      43.603 -18.691   5.397  1.00  0.00     0.094 A 
HETATM   32  C   UNL     1      43.976 -19.227   3.019  1.00  0.00    -0.025 A 
HETATM   33  C   UNL     1      44.141 -19.920   5.800  1.00  0.00     0.041 A 
HETATM   34  N   UNL     1      43.105 -17.647   6.135  1.00  0.00    -0.221 NA
HETATM   35  C   UNL     1      44.584 -20.815   4.811  1.00  0.00    -0.059 A 
HETATM   36  C   UNL     1      45.130 -22.161   5.196  1.00  0.00     0.048 C 
HETATM   37  C   UNL     1      44.503 -20.461   3.451  1.00  0.00     0.016 A 
HETATM   38  C   UNL     1      43.909 -18.881   1.566  1.00  0.00     0.051 C 
ENDBRANCH   1  28
TORSDOF 8
ENDMDL
MODEL 4
REMARK VINA RESULT:      -9.1      2.288      9.304
REMARK  8 active torsions:
REMARK  status: ('A' for Active; 'I' for Inactive)
REMARK    1  A    between atoms: C_7  and  C_8 
REMARK    2  A    between atoms: C_9  and  O_10 
REMARK    3  A    between atoms: C_12  and  N_13 
REMARK    4  A    between atoms: C_14  and  N_15 
REMARK       I    between atoms: N_15  and  C_16 
REMARK    5  A    between atoms: C_16  and  C_17 
REMARK    6  A    between atoms: C_19  and  O_20 
REMARK    7  A    between atoms: O_20  and  C_21 
REMARK    8  A    between atoms: C_21  and  C_22 
ROOT
HETATM    1  C   UNL     1      42.079 -15.106   3.621  1.00  0.00     0.050 A 
HETATM    2  C   UNL     1      40.733 -14.774   3.415  1.00  0.00     0.082 A 
HETATM    3  C   UNL     1      40.264 -13.480   3.642  1.00  0.00     0.067 A 
HETATM    4  C   UNL     1      41.148 -12.468   4.027  1.00  0.00     0.036 A 
HETATM    5  C   UNL     1      42.491 -12.783   4.242  1.00  0.00     0.030 A 
HETATM    6  C   UNL     1      42.951 -14.093   4.047  1.00  0.00     0.021 A 
ENDROOT
BRANCH   4   7
HETATM    7  N   UNL     1      40.605 -11.187   4.243  1.00  0.00    -0.337 N 
HETATM    8  C   UNL     1      39.709 -10.761   5.159  1.00  0.00     0.157 C 
HETATM    9  S   UNL     1      38.657  -9.524   4.749  1.00  0.00    -0.047 SA
HETATM   10  H   UNL     1      40.771 -10.529   3.489  1.00  0.00     0.168 HD
BRANCH   8  11
HETATM   11  N   UNL     1      39.677 -11.213   6.442  1.00  0.00    -0.201 NA
HETATM   12  C   UNL     1      40.688 -10.934   7.357  1.00  0.00     0.237 C 
HETATM   13  O   UNL     1      41.858 -11.283   7.268  1.00  0.00    -0.274 OA
HETATM   14  H   UNL     1      38.749 -11.017   6.789  1.00  0.00     0.139 HD
BRANCH  12  15
HETATM   15  C   UNL     1      40.278 -10.173   8.571  1.00  0.00     0.029 A 
HETATM   16  C   UNL     1      40.952 -10.269   9.797  1.00  0.00     0.053 A 
HETATM   17  C   UNL     1      40.463  -9.580  10.910  1.00  0.00     0.069 A 
HETATM   18  C   UNL     1      39.332  -8.769  10.782  1.00  0.00     0.037 A 
HETATM   19  C   UNL     1      38.678  -8.645   9.557  1.00  0.00     0.004 A 
HETATM   20  C   UNL     1      39.151  -9.347   8.452  1.00  0.00     0.017 A 
BRANCH  17  21
HETATM   21  O   UNL     1      40.992  -9.608  12.170  1.00  0.00    -0.351 OA
BRANCH  21  22
HETATM   22  C   UNL     1      41.671 -10.793  12.582  1.00  0.00     0.179 C 
BRANCH  22  23
HETATM   23  C   UNL     1      43.105 -10.443  13.014  1.00  0.00     0.002 C 
HETATM   24  C   UNL     1      44.055 -10.391  11.817  1.00  0.00     0.011 C 
HETATM   25  C   UNL     1      43.141  -9.111  13.768  1.00  0.00     0.011 C 
ENDBRANCH  22  23
ENDBRANCH  21  22
ENDBRANCH  17  21
ENDBRANCH  12  15
ENDBRANCH   8  11
ENDBRANCH   4   7
BRANCH   2  26
HETATM   26  O   UNL     1      39.801 -15.684   2.980  1.00  0.00    -0.360 OA
HETATM   27  H   UNL     1      39.536 -15.440   2.068  1.00  0.00     0.217 HD
ENDBRANCH   2  26
BRANCH   1  28
HETATM   28  C   UNL     1      42.553 -16.462   3.376  1.00  0.00     0.183 A 
HETATM   29  O   UNL     1      43.352 -17.034   4.331  1.00  0.00    -0.288 OA
HETATM   30  C   UNL     1      43.617 -18.280   3.837  1.00  0.00     0.112 A 
HETATM   31  C   UNL     1      42.978 -18.389   2.613  1.00  0.00     0.094 A 
HETATM   32  C   UNL     1      44.392 -19.278   4.427  1.00  0.00    -0.025 A 
HETATM   33  C   UNL     1      43.128 -19.565   1.866  1.00  0.00     0.041 A 
HETATM   34  N   UNL     1      42.269 -17.244   2.347  1.00  0.00    -0.221 NA
HETATM   35  C   UNL     1      43.925 -20.596   2.391  1.00  0.00    -0.059 A 
HETATM   36  C   UNL     1      44.147 -21.857   1.605  1.00  0.00     0.048 C 
HETATM   37  C   UNL     1      44.535 -20.445   3.652  1.00  0.00     0.016 A 
HETATM   38  C   UNL     1      45.049 -19.153   5.764  1.00  0.00     0.051 C 
ENDBRANCH   1  28
TORSDOF 8
ENDMDL
MODEL 5
REMARK VINA RESULT:      -9.1      4.387      8.288
REMARK  8 active torsions:
REMARK  status: ('A' for Active; 'I' for Inactive)
REMARK    1  A    between atoms: C_7  and  C_8 
REMARK    2  A    between atoms: C_9  and  O_10 
REMARK    3  A    between atoms: C_12  and  N_13 
REMARK    4  A    between atoms: C_14  and  N_15 
REMARK       I    between atoms: N_15  and  C_16 
REMARK    5  A    between atoms: C_16  and  C_17 
REMARK    6  A    between atoms: C_19  and  O_20 
REMARK    7  A    between atoms: O_20  and  C_21 
REMARK    8  A    between atoms: C_21  and  C_22 
ROOT
HETATM    1  C   UNL     1      41.194 -15.016   4.053  1.00  0.00     0.050 A 
HETATM    2  C   UNL     1      40.302 -14.922   5.130  1.00  0.00     0.082 A 
HETATM    3  C   UNL     1      39.663 -13.722   5.439  1.00  0.00     0.067 A 
HETATM    4  C   UNL     1      39.858 -12.594   4.636  1.00  0.00     0.036 A 
HETATM    5  C   UNL     1      40.747 -12.669   3.562  1.00  0.00     0.030 A 
HETATM    6  C   UNL     1      41.414 -13.868   3.277  1.00  0.00     0.021 A 
ENDROOT
BRANCH   4   7
HETATM    7  N   UNL     1      39.185 -11.415   5.008  1.00  0.00    -0.337 N 
HETATM    8  C   UNL     1      38.560 -10.489   4.250  1.00  0.00     0.157 C 
HETATM    9  S   UNL     1      38.565  -8.891   4.753  1.00  0.00    -0.047 SA
HETATM   10  H   UNL     1      39.349 -11.124   5.966  1.00  0.00     0.168 HD
BRANCH   8  11
HETATM   11  N   UNL     1      37.831 -10.796   3.142  1.00  0.00    -0.201 NA
HETATM   12  C   UNL     1      38.316 -10.597   1.852  1.00  0.00     0.237 C 
HETATM   13  O   UNL     1      38.616  -9.521   1.351  1.00  0.00    -0.274 OA
HETATM   14  H   UNL     1      37.453 -11.719   3.297  1.00  0.00     0.139 HD
BRANCH  12  15
HETATM   15  C   UNL     1      38.434 -11.818   1.005  1.00  0.00     0.029 A 
HETATM   16  C   UNL     1      39.346 -11.926  -0.056  1.00  0.00     0.053 A 
HETATM   17  C   UNL     1      39.347 -13.075  -0.851  1.00  0.00     0.069 A 
HETATM   18  C   UNL     1      38.469 -14.122  -0.558  1.00  0.00     0.037 A 
HETATM   19  C   UNL     1      37.584 -14.032   0.515  1.00  0.00     0.004 A 
HETATM   20  C   UNL     1      37.566 -12.880   1.296  1.00  0.00     0.017 A 
BRANCH  17  21
HETATM   21  O   UNL     1      40.149 -13.303  -1.934  1.00  0.00    -0.351 OA
BRANCH  21  22
HETATM   22  C   UNL     1      39.520 -13.562  -3.188  1.00  0.00     0.179 C 
BRANCH  22  23
HETATM   23  C   UNL     1      40.041 -14.891  -3.761  1.00  0.00     0.002 C 
HETATM   24  C   UNL     1      41.078 -15.534  -2.840  1.00  0.00     0.011 C 
HETATM   25  C   UNL     1      38.890 -15.868  -4.014  1.00  0.00     0.011 C 
ENDBRANCH  22  23
ENDBRANCH  21  22
ENDBRANCH  17  21
ENDBRANCH  12  15
ENDBRANCH   8  11
ENDBRANCH   4   7
BRANCH   2  26
HETATM   26  O   UNL     1      40.000 -15.989   5.941  1.00  0.00    -0.360 OA
HETATM   27  H   UNL     1      40.105 -16.812   5.417  1.00  0.00     0.217 HD
ENDBRANCH   2  26
BRANCH   1  28
HETATM   28  C   UNL     1      41.851 -16.279   3.743  1.00  0.00     0.183 A 
HETATM   29  O   UNL     1      42.805 -16.726   4.619  1.00  0.00    -0.288 OA
HETATM   30  C   UNL     1      43.219 -17.911   4.079  1.00  0.00     0.112 A 
HETATM   31  C   UNL     1      42.505 -18.110   2.909  1.00  0.00     0.094 A 
HETATM   32  C   UNL     1      44.185 -18.780   4.586  1.00  0.00    -0.025 A 
HETATM   33  C   UNL     1      42.774 -19.242   2.128  1.00  0.00     0.041 A 
HETATM   34  N   UNL     1      41.608 -17.088   2.724  1.00  0.00    -0.221 NA
HETATM   35  C   UNL     1      43.763 -20.140   2.567  1.00  0.00    -0.059 A 
HETATM   36  C   UNL     1      44.113 -21.345   1.740  1.00  0.00     0.048 C 
HETATM   37  C   UNL     1      44.444 -19.905   3.777  1.00  0.00     0.016 A 
HETATM   38  C   UNL     1      44.923 -18.564   5.868  1.00  0.00     0.051 C 
ENDBRANCH   1  28
TORSDOF 8
ENDMDL
MODEL 6
REMARK VINA RESULT:      -8.7      4.085      6.491
REMARK  8 active torsions:
REMARK  status: ('A' for Active; 'I' for Inactive)
REMARK    1  A    between atoms: C_7  and  C_8 
REMARK    2  A    between atoms: C_9  and  O_10 
REMARK    3  A    between atoms: C_12  and  N_13 
REMARK    4  A    between atoms: C_14  and  N_15 
REMARK       I    between atoms: N_15  and  C_16 
REMARK    5  A    between atoms: C_16  and  C_17 
REMARK    6  A    between atoms: C_19  and  O_20 
REMARK    7  A    between atoms: O_20  and  C_21 
REMARK    8  A    between atoms: C_21  and  C_22 
ROOT
HETATM    1  C   UNL     1      39.887 -14.108   2.880  1.00  0.00     0.050 A 
HETATM    2  C   UNL     1      38.896 -14.658   2.055  1.00  0.00     0.082 A 
HETATM    3  C   UNL     1      38.042 -13.846   1.309  1.00  0.00     0.067 A 
HETATM    4  C   UNL     1      38.200 -12.458   1.325  1.00  0.00     0.036 A 
HETATM    5  C   UNL     1      39.178 -11.892   2.145  1.00  0.00     0.030 A 
HETATM    6  C   UNL     1      40.011 -12.711   2.921  1.00  0.00     0.021 A 
ENDROOT
BRANCH   4   7
HETATM    7  N   UNL     1      37.300 -11.699   0.552  1.00  0.00    -0.337 N 
HETATM    8  C   UNL     1      37.407 -11.242  -0.714  1.00  0.00     0.157 C 
HETATM    9  S   UNL     1      36.679  -9.787  -1.115  1.00  0.00    -0.047 SA
HETATM   10  H   UNL     1      36.542 -11.281   1.080  1.00  0.00     0.168 HD
BRANCH   8  11
HETATM   11  N   UNL     1      37.991 -11.949  -1.720  1.00  0.00    -0.201 NA
HETATM   12  C   UNL     1      39.371 -12.008  -1.886  1.00  0.00     0.237 C 
HETATM   13  O   UNL     1      40.110 -11.061  -2.128  1.00  0.00    -0.274 OA
HETATM   14  H   UNL     1      37.541 -12.853  -1.730  1.00  0.00     0.139 HD
BRANCH  12  15
HETATM   15  C   UNL     1      39.982 -13.364  -1.797  1.00  0.00     0.029 A 
HETATM   16  C   UNL     1      40.736 -13.792  -0.694  1.00  0.00     0.053 A 
HETATM   17  C   UNL     1      41.338 -15.053  -0.715  1.00  0.00     0.069 A 
HETATM   18  C   UNL     1      41.151 -15.891  -1.817  1.00  0.00     0.037 A 
HETATM   19  C   UNL     1      40.376 -15.483  -2.902  1.00  0.00     0.004 A 
HETATM   20  C   UNL     1      39.792 -14.219  -2.892  1.00  0.00     0.017 A 
BRANCH  17  21
HETATM   21  O   UNL     1      42.125 -15.585   0.266  1.00  0.00    -0.351 OA
BRANCH  21  22
HETATM   22  C   UNL     1      41.906 -16.946   0.633  1.00  0.00     0.179 C 
BRANCH  22  23
HETATM   23  C   UNL     1      43.242 -17.596   1.030  1.00  0.00     0.002 C 
HETATM   24  C   UNL     1      44.100 -16.650   1.871  1.00  0.00     0.011 C 
HETATM   25  C   UNL     1      43.012 -18.905   1.788  1.00  0.00     0.011 C 
ENDBRANCH  22  23
ENDBRANCH  21  22
ENDBRANCH  17  21
ENDBRANCH  12  15
ENDBRANCH   8  11
ENDBRANCH   4   7
BRANCH   2  26
HETATM   26  O   UNL     1      38.703 -16.012   1.926  1.00  0.00    -0.360 OA
HETATM   27  H   UNL     1      38.645 -16.401   2.825  1.00  0.00     0.217 HD
ENDBRANCH   2  26
BRANCH   1  28
HETATM   28  C   UNL     1      40.772 -14.971   3.651  1.00  0.00     0.183 A 
HETATM   29  O   UNL     1      41.808 -14.376   4.322  1.00  0.00    -0.288 OA
HETATM   30  C   UNL     1      42.436 -15.416   4.948  1.00  0.00     0.112 A 
HETATM   31  C   UNL     1      41.758 -16.577   4.614  1.00  0.00     0.094 A 
HETATM   32  C   UNL     1      43.560 -15.354   5.771  1.00  0.00    -0.025 A 
HETATM   33  C   UNL     1      42.229 -17.806   5.093  1.00  0.00     0.041 A 
HETATM   34  N   UNL     1      40.676 -16.280   3.824  1.00  0.00    -0.221 NA
HETATM   35  C   UNL     1      43.380 -17.814   5.900  1.00  0.00    -0.059 A 
HETATM   36  C   UNL     1      43.945 -19.113   6.401  1.00  0.00     0.048 C 
HETATM   37  C   UNL     1      44.020 -16.604   6.231  1.00  0.00     0.016 A 
HETATM   38  C   UNL     1      44.261 -14.087   6.145  1.00  0.00     0.051 C 
ENDBRANCH   1  28
TORSDOF 8
ENDMDL
MODEL 7
REMARK VINA RESULT:      -8.6      2.269      4.129
REMARK  8 active torsions:
REMARK  status: ('A' for Active; 'I' for Inactive)
REMARK    1  A    between atoms: C_7  and  C_8 
REMARK    2  A    between atoms: C_9  and  O_10 
REMARK    3  A    between atoms: C_12  and  N_13 
REMARK    4  A    between atoms: C_14  and  N_15 
REMARK       I    between atoms: N_15  and  C_16 
REMARK    5  A    between atoms: C_16  and  C_17 
REMARK    6  A    between atoms: C_19  and  O_20 
REMARK    7  A    between atoms: O_20  and  C_21 
REMARK    8  A    between atoms: C_21  and  C_22 
ROOT
HETATM    1  C   UNL     1      40.430 -11.044   7.303  1.00  0.00     0.050 A 
HETATM    2  C   UNL     1      39.562 -12.127   7.107  1.00  0.00     0.082 A 
HETATM    3  C   UNL     1      39.145 -12.498   5.829  1.00  0.00     0.067 A 
HETATM    4  C   UNL     1      39.636 -11.827   4.706  1.00  0.00     0.036 A 
HETATM    5  C   UNL     1      40.498 -10.743   4.883  1.00  0.00     0.030 A 
HETATM    6  C   UNL     1      40.887 -10.351   6.172  1.00  0.00     0.021 A 
ENDROOT
BRANCH   4   7
HETATM    7  N   UNL     1      39.170 -12.252   3.447  1.00  0.00    -0.337 N 
HETATM    8  C   UNL     1      39.725 -13.091   2.547  1.00  0.00     0.157 C 
HETATM    9  S   UNL     1      39.453 -12.826   0.915  1.00  0.00    -0.047 SA
HETATM   10  H   UNL     1      38.393 -11.710   3.083  1.00  0.00     0.168 HD
BRANCH   8  11
HETATM   11  N   UNL     1      40.416 -14.211   2.894  1.00  0.00    -0.201 NA
HETATM   12  C   UNL     1      41.806 -14.273   2.853  1.00  0.00     0.237 C 
HETATM   13  O   UNL     1      42.505 -14.156   1.855  1.00  0.00    -0.274 OA
HETATM   14  H   UNL     1      40.020 -14.531   3.766  1.00  0.00     0.139 HD
BRANCH  12  15
HETATM   15  C   UNL     1      42.484 -14.547   4.151  1.00  0.00     0.029 A 
HETATM   16  C   UNL     1      42.726 -13.553   5.112  1.00  0.00     0.053 A 
HETATM   17  C   UNL     1      43.433 -13.873   6.274  1.00  0.00     0.069 A 
HETATM   18  C   UNL     1      43.858 -15.187   6.487  1.00  0.00     0.037 A 
HETATM   19  C   UNL     1      43.592 -16.184   5.550  1.00  0.00     0.004 A 
HETATM   20  C   UNL     1      42.906 -15.864   4.382  1.00  0.00     0.017 A 
BRANCH  17  21
HETATM   21  O   UNL     1      43.771 -13.005   7.274  1.00  0.00    -0.351 OA
BRANCH  21  22
HETATM   22  C   UNL     1      44.881 -13.344   8.105  1.00  0.00     0.179 C 
BRANCH  22  23
HETATM   23  C   UNL     1      45.492 -12.064   8.698  1.00  0.00     0.002 C 
HETATM   24  C   UNL     1      45.526 -12.113  10.226  1.00  0.00     0.011 C 
HETATM   25  C   UNL     1      46.901 -11.823   8.152  1.00  0.00     0.011 C 
ENDBRANCH  22  23
ENDBRANCH  21  22
ENDBRANCH  17  21
ENDBRANCH  12  15
ENDBRANCH   8  11
ENDBRANCH   4   7
BRANCH   2  26
HETATM   26  O   UNL     1      39.072 -12.885   8.142  1.00  0.00    -0.360 OA
HETATM   27  H   UNL     1      38.854 -12.283   8.886  1.00  0.00     0.217 HD
ENDBRANCH   2  26
BRANCH   1  28
HETATM   28  C   UNL     1      40.858 -10.672   8.645  1.00  0.00     0.183 A 
HETATM   29  O   UNL     1      39.884 -10.327   9.545  1.00  0.00    -0.288 OA
HETATM   30  C   UNL     1      40.576 -10.049  10.690  1.00  0.00     0.112 A 
HETATM   31  C   UNL     1      41.923 -10.229  10.419  1.00  0.00     0.094 A 
HETATM   32  C   UNL     1      40.054  -9.648  11.919  1.00  0.00    -0.025 A 
HETATM   33  C   UNL     1      42.864  -9.962  11.422  1.00  0.00     0.041 A 
HETATM   34  N   UNL     1      42.090 -10.665   9.129  1.00  0.00    -0.221 NA
HETATM   35  C   UNL     1      42.402  -9.521  12.674  1.00  0.00    -0.059 A 
HETATM   36  C   UNL     1      43.378  -9.183  13.765  1.00  0.00     0.048 C 
HETATM   37  C   UNL     1      41.021  -9.377  12.907  1.00  0.00     0.016 A 
HETATM   38  C   UNL     1      38.594  -9.490  12.201  1.00  0.00     0.051 C 
ENDBRANCH   1  28
TORSDOF 8
ENDMDL
MODEL 8
REMARK VINA RESULT:      -8.6      3.932      7.983
REMARK  8 active torsions:
REMARK  status: ('A' for Active; 'I' for Inactive)
REMARK    1  A    between atoms: C_7  and  C_8 
REMARK    2  A    between atoms: C_9  and  O_10 
REMARK    3  A    between atoms: C_12  and  N_13 
REMARK    4  A    between atoms: C_14  and  N_15 
REMARK       I    between atoms: N_15  and  C_16 
REMARK    5  A    between atoms: C_16  and  C_17 
REMARK    6  A    between atoms: C_19  and  O_20 
REMARK    7  A    between atoms: O_20  and  C_21 
REMARK    8  A    between atoms: C_21  and  C_22 
ROOT
HETATM    1  C   UNL     1      42.518 -16.673   1.784  1.00  0.00     0.050 A 
HETATM    2  C   UNL     1      41.368 -16.755   0.987  1.00  0.00     0.082 A 
HETATM    3  C   UNL     1      40.836 -15.626   0.365  1.00  0.00     0.067 A 
HETATM    4  C   UNL     1      41.481 -14.390   0.478  1.00  0.00     0.036 A 
HETATM    5  C   UNL     1      42.624 -14.290   1.272  1.00  0.00     0.030 A 
HETATM    6  C   UNL     1      43.135 -15.421   1.925  1.00  0.00     0.021 A 
ENDROOT
BRANCH   4   7
HETATM    7  N   UNL     1      40.886 -13.292  -0.172  1.00  0.00    -0.337 N 
HETATM    8  C   UNL     1      40.018 -12.368   0.291  1.00  0.00     0.157 C 
HETATM    9  S   UNL     1      38.886 -11.720  -0.760  1.00  0.00    -0.047 SA
HETATM   10  H   UNL     1      40.981 -13.301  -1.182  1.00  0.00     0.168 HD
BRANCH   8  11
HETATM   11  N   UNL     1      40.074 -11.851   1.550  1.00  0.00    -0.201 NA
HETATM   12  C   UNL     1      39.071 -12.067   2.490  1.00  0.00     0.237 C 
HETATM   13  O   UNL     1      37.905 -11.705   2.398  1.00  0.00    -0.274 OA
HETATM   14  H   UNL     1      41.004 -12.043   1.895  1.00  0.00     0.139 HD
BRANCH  12  15
HETATM   15  C   UNL     1      39.487 -12.772   3.736  1.00  0.00     0.029 A 
HETATM   16  C   UNL     1      40.193 -13.984   3.729  1.00  0.00     0.053 A 
HETATM   17  C   UNL     1      40.484 -14.622   4.938  1.00  0.00     0.069 A 
HETATM   18  C   UNL     1      40.103 -14.027   6.144  1.00  0.00     0.037 A 
HETATM   19  C   UNL     1      39.430 -12.807   6.156  1.00  0.00     0.004 A 
HETATM   20  C   UNL     1      39.120 -12.180   4.953  1.00  0.00     0.017 A 
BRANCH  17  21
HETATM   21  O   UNL     1      41.129 -15.817   5.082  1.00  0.00    -0.351 OA
BRANCH  21  22
HETATM   22  C   UNL     1      41.343 -16.305   6.405  1.00  0.00     0.179 C 
BRANCH  22  23
HETATM   23  C   UNL     1      42.834 -16.627   6.603  1.00  0.00     0.002 C 
HETATM   24  C   UNL     1      43.706 -15.384   6.422  1.00  0.00     0.011 C 
HETATM   25  C   UNL     1      43.084 -17.245   7.981  1.00  0.00     0.011 C 
ENDBRANCH  22  23
ENDBRANCH  21  22
ENDBRANCH  17  21
ENDBRANCH  12  15
ENDBRANCH   8  11
ENDBRANCH   4   7
BRANCH   2  26
HETATM   26  O   UNL     1      40.698 -17.933   0.766  1.00  0.00    -0.360 OA
HETATM   27  H   UNL     1      41.113 -18.630   1.318  1.00  0.00     0.217 HD
ENDBRANCH   2  26
BRANCH   1  28
HETATM   28  C   UNL     1      43.061 -17.864   2.424  1.00  0.00     0.183 A 
HETATM   29  O   UNL     1      43.158 -19.000   1.665  1.00  0.00    -0.288 OA
HETATM   30  C   UNL     1      43.703 -19.920   2.516  1.00  0.00     0.112 A 
HETATM   31  C   UNL     1      43.893 -19.297   3.739  1.00  0.00     0.094 A 
HETATM   32  C   UNL     1      44.014 -21.251   2.238  1.00  0.00    -0.025 A 
HETATM   33  C   UNL     1      44.402 -20.040   4.812  1.00  0.00     0.041 A 
HETATM   34  N   UNL     1      43.522 -17.979   3.659  1.00  0.00    -0.221 NA
HETATM   35  C   UNL     1      44.703 -21.398   4.605  1.00  0.00    -0.059 A 
HETATM   36  C   UNL     1      45.211 -22.242   5.739  1.00  0.00     0.048 C 
HETATM   37  C   UNL     1      44.514 -21.978   3.336  1.00  0.00     0.016 A 
HETATM   38  C   UNL     1      43.830 -21.897   0.902  1.00  0.00     0.051 C 
ENDBRANCH   1  28
TORSDOF 8
ENDMDL
MODEL 9
REMARK VINA RESULT:      -8.5      3.818      9.610
REMARK  8 active torsions:
REMARK  status: ('A' for Active; 'I' for Inactive)
REMARK    1  A    between atoms: C_7  and  C_8 
REMARK    2  A    between atoms: C_9  and  O_10 
REMARK    3  A    between atoms: C_12  and  N_13 
REMARK    4  A    between atoms: C_14  and  N_15 
REMARK       I    between atoms: N_15  and  C_16 
REMARK    5  A    between atoms: C_16  and  C_17 
REMARK    6  A    between atoms: C_19  and  O_20 
REMARK    7  A    between atoms: O_20  and  C_21 
REMARK    8  A    between atoms: C_21  and  C_22 
ROOT
HETATM    1  C   UNL     1      42.006 -16.278   1.458  1.00  0.00     0.050 A 
HETATM    2  C   UNL     1      40.960 -16.791   2.238  1.00  0.00     0.082 A 
HETATM    3  C   UNL     1      41.212 -17.573   3.364  1.00  0.00     0.067 A 
HETATM    4  C   UNL     1      42.527 -17.813   3.774  1.00  0.00     0.036 A 
HETATM    5  C   UNL     1      43.581 -17.314   3.006  1.00  0.00     0.030 A 
HETATM    6  C   UNL     1      43.322 -16.559   1.854  1.00  0.00     0.021 A 
ENDROOT
BRANCH   4   7
HETATM    7  N   UNL     1      42.708 -18.614   4.917  1.00  0.00    -0.337 N 
HETATM    8  C   UNL     1      43.001 -18.268   6.189  1.00  0.00     0.157 C 
HETATM    9  S   UNL     1      43.924 -19.310   7.121  1.00  0.00    -0.047 SA
HETATM   10  H   UNL     1      42.815 -19.604   4.723  1.00  0.00     0.168 HD
BRANCH   8  11
HETATM   11  N   UNL     1      42.499 -17.158   6.798  1.00  0.00    -0.201 NA
HETATM   12  C   UNL     1      43.028 -15.889   6.586  1.00  0.00     0.237 C 
HETATM   13  O   UNL     1      44.163 -15.524   6.866  1.00  0.00    -0.274 OA
HETATM   14  H   UNL     1      41.496 -17.204   6.691  1.00  0.00     0.139 HD
BRANCH  12  15
HETATM   15  C   UNL     1      42.096 -14.883   6.002  1.00  0.00     0.029 A 
HETATM   16  C   UNL     1      42.515 -13.619   5.561  1.00  0.00     0.053 A 
HETATM   17  C   UNL     1      41.570 -12.702   5.092  1.00  0.00     0.069 A 
HETATM   18  C   UNL     1      40.223 -13.068   5.028  1.00  0.00     0.037 A 
HETATM   19  C   UNL     1      39.807 -14.335   5.433  1.00  0.00     0.004 A 
HETATM   20  C   UNL     1      40.743 -15.242   5.921  1.00  0.00     0.017 A 
BRANCH  17  21
HETATM   21  O   UNL     1      41.826 -11.429   4.667  1.00  0.00    -0.351 OA
BRANCH  21  22
HETATM   22  C   UNL     1      40.872 -10.416   4.983  1.00  0.00     0.179 C 
BRANCH  22  23
HETATM   23  C   UNL     1      41.228  -9.777   6.336  1.00  0.00     0.002 C 
HETATM   24  C   UNL     1      41.559  -8.291   6.187  1.00  0.00     0.011 C 
HETATM   25  C   UNL     1      40.092  -9.960   7.345  1.00  0.00     0.011 C 
ENDBRANCH  22  23
ENDBRANCH  21  22
ENDBRANCH  17  21
ENDBRANCH  12  15
ENDBRANCH   8  11
ENDBRANCH   4   7
BRANCH   2  26
HETATM   26  O   UNL     1      39.637 -16.559   1.951  1.00  0.00    -0.360 OA
HETATM   27  H   UNL     1      39.118 -16.678   2.776  1.00  0.00     0.217 HD
ENDBRANCH   2  26
BRANCH   1  28
HETATM   28  C   UNL     1      41.724 -15.461   0.286  1.00  0.00     0.183 A 
HETATM   29  O   UNL     1      41.115 -16.072  -0.779  1.00  0.00    -0.288 OA
HETATM   30  C   UNL     1      40.973 -15.070  -1.698  1.00  0.00     0.112 A 
HETATM   31  C   UNL     1      41.509 -13.918  -1.147  1.00  0.00     0.094 A 
HETATM   32  C   UNL     1      40.403 -15.161  -2.967  1.00  0.00    -0.025 A 
HETATM   33  C   UNL     1      41.532 -12.743  -1.909  1.00  0.00     0.041 A 
HETATM   34  N   UNL     1      41.946 -14.165   0.130  1.00  0.00    -0.221 NA
HETATM   35  C   UNL     1      41.004 -12.778  -3.211  1.00  0.00    -0.059 A 
HETATM   36  C   UNL     1      41.045 -11.552  -4.078  1.00  0.00     0.048 C 
HETATM   37  C   UNL     1      40.447 -13.969  -3.716  1.00  0.00     0.016 A 
HETATM   38  C   UNL     1      39.800 -16.407  -3.532  1.00  0.00     0.051 C 
ENDBRANCH   1  28
TORSDOF 8
ENDMDL
MODEL 10
REMARK VINA RESULT:      -8.5      5.024      9.045
REMARK  8 active torsions:
REMARK  status: ('A' for Active; 'I' for Inactive)
REMARK    1  A    between atoms: C_7  and  C_8 
REMARK    2  A    between atoms: C_9  and  O_10 
REMARK    3  A    between atoms: C_12  and  N_13 
REMARK    4  A    between atoms: C_14  and  N_15 
REMARK       I    between atoms: N_15  and  C_16 
REMARK    5  A    between atoms: C_16  and  C_17 
REMARK    6  A    between atoms: C_19  and  O_20 
REMARK    7  A    between atoms: O_20  and  C_21 
REMARK    8  A    between atoms: C_21  and  C_22 
ROOT
HETATM    1  C   UNL     1      42.316 -16.724   0.781  1.00  0.00     0.050 A 
HETATM    2  C   UNL     1      41.470 -17.675   1.369  1.00  0.00     0.082 A 
HETATM    3  C   UNL     1      41.982 -18.733   2.120  1.00  0.00     0.067 A 
HETATM    4  C   UNL     1      43.357 -18.831   2.351  1.00  0.00     0.036 A 
HETATM    5  C   UNL     1      44.214 -17.895   1.768  1.00  0.00     0.030 A 
HETATM    6  C   UNL     1      43.697 -16.854   0.984  1.00  0.00     0.021 A 
ENDROOT
BRANCH   4   7
HETATM    7  N   UNL     1      43.805 -19.926   3.113  1.00  0.00    -0.337 N 
HETATM    8  C   UNL     1      44.167 -19.997   4.412  1.00  0.00     0.157 C 
HETATM    9  S   UNL     1      45.360 -21.082   4.864  1.00  0.00    -0.047 SA
HETATM   10  H   UNL     1      44.068 -20.739   2.566  1.00  0.00     0.168 HD
BRANCH   8  11
HETATM   11  N   UNL     1      43.542 -19.303   5.403  1.00  0.00    -0.201 NA
HETATM   12  C   UNL     1      43.803 -17.959   5.652  1.00  0.00     0.237 C 
HETATM   13  O   UNL     1      44.877 -17.486   6.003  1.00  0.00    -0.274 OA
HETATM   14  H   UNL     1      42.558 -19.519   5.324  1.00  0.00     0.139 HD
BRANCH  12  15
HETATM   15  C   UNL     1      42.645 -17.033   5.510  1.00  0.00     0.029 A 
HETATM   16  C   UNL     1      42.561 -16.062   4.500  1.00  0.00     0.053 A 
HETATM   17  C   UNL     1      41.477 -15.181   4.477  1.00  0.00     0.069 A 
HETATM   18  C   UNL     1      40.467 -15.300   5.434  1.00  0.00     0.037 A 
HETATM   19  C   UNL     1      40.529 -16.284   6.420  1.00  0.00     0.004 A 
HETATM   20  C   UNL     1      41.619 -17.149   6.458  1.00  0.00     0.017 A 
BRANCH  17  21
HETATM   21  O   UNL     1      41.283 -14.169   3.580  1.00  0.00    -0.351 OA
BRANCH  21  22
HETATM   22  C   UNL     1      39.966 -13.975   3.067  1.00  0.00     0.179 C 
BRANCH  22  23
HETATM   23  C   UNL     1      39.647 -12.471   3.018  1.00  0.00     0.002 C 
HETATM   24  C   UNL     1      38.625 -12.148   1.927  1.00  0.00     0.011 C 
HETATM   25  C   UNL     1      39.138 -11.974   4.373  1.00  0.00     0.011 C 
ENDBRANCH  22  23
ENDBRANCH  21  22
ENDBRANCH  17  21
ENDBRANCH  12  15
ENDBRANCH   8  11
ENDBRANCH   4   7
BRANCH   2  26
HETATM   26  O   UNL     1      40.103 -17.630   1.249  1.00  0.00    -0.360 OA
HETATM   27  H   UNL     1      39.723 -17.455   2.137  1.00  0.00     0.217 HD
ENDBRANCH   2  26
BRANCH   1  28
HETATM   28  C   UNL     1      41.763 -15.624   0.002  1.00  0.00     0.183 A 
HETATM   29  O   UNL     1      42.036 -14.350   0.426  1.00  0.00    -0.288 OA
HETATM   30  C   UNL     1      41.409 -13.555  -0.492  1.00  0.00     0.112 A 
HETATM   31  C   UNL     1      40.786 -14.386  -1.409  1.00  0.00     0.094 A 
HETATM   32  C   UNL     1      41.378 -12.161  -0.524  1.00  0.00    -0.025 A 
HETATM   33  C   UNL     1      40.025 -13.818  -2.439  1.00  0.00     0.041 A 
HETATM   34  N   UNL     1      41.050 -15.699  -1.111  1.00  0.00    -0.221 NA
HETATM   35  C   UNL     1      39.926 -12.417  -2.505  1.00  0.00    -0.059 A 
HETATM   36  C   UNL     1      39.087 -11.767  -3.569  1.00  0.00     0.048 C 
HETATM   37  C   UNL     1      40.599 -11.616  -1.564  1.00  0.00     0.016 A 
HETATM   38  C   UNL     1      42.084 -11.281   0.457  1.00  0.00     0.051 C 
ENDBRANCH   1  28
TORSDOF 8
ENDMDL
