MODEL 1
REMARK VINA RESULT:      -8.4      0.000      0.000
REMARK  5 active torsions:
REMARK  status: ('A' for Active; 'I' for Inactive)
REMARK    1  A    between atoms: O_2  and  C_3 
REMARK    2  A    between atoms: C_10  and  C_11 
REMARK    3  A    between atoms: C_11  and  C_12 
REMARK       I    between atoms: C_12  and  N_13 
REMARK    4  A    between atoms: N_13  and  C_14 
REMARK    5  A    between atoms: C_21  and  O_22 
ROOT
HETATM    1  C   UNL     1      42.061 -16.737   0.690  1.00  0.00     0.226 C 
HETATM    2  N   UNL     1      42.045 -15.629  -0.155  1.00  0.00    -0.326 N 
HETATM    3  O   UNL     1      41.089 -17.423   0.987  1.00  0.00    -0.273 OA
HETATM    4  H   UNL     1      42.944 -15.398  -0.557  1.00  0.00     0.169 HD
ENDROOT
BRANCH   1   5
HETATM    5  C   UNL     1      43.466 -17.013   1.223  1.00  0.00     0.144 C 
BRANCH   5   6
HETATM    6  C   UNL     1      43.550 -17.221   2.703  1.00  0.00    -0.021 A 
HETATM    7  C   UNL     1      43.902 -18.422   3.405  1.00  0.00     0.001 A 
HETATM    8  C   UNL     1      44.230 -19.737   3.010  1.00  0.00     0.051 A 
HETATM    9  C   UNL     1      43.888 -18.131   4.769  1.00  0.00     0.043 A 
HETATM   10  C   UNL     1      44.512 -20.714   3.976  1.00  0.00     0.069 A 
HETATM   11  C   UNL     1      44.498 -20.382   5.328  1.00  0.00     0.039 A 
HETATM   12  C   UNL     1      44.186 -19.083   5.750  1.00  0.00     0.033 A 
HETATM   13  N   UNL     1      43.541 -16.808   4.897  1.00  0.00    -0.365 N 
HETATM   14  H   UNL     1      43.448 -16.324   5.780  1.00  0.00     0.165 HD
HETATM   15  C   UNL     1      43.346 -16.247   3.665  1.00  0.00     0.097 A 
BRANCH  10  16
HETATM   16  O   UNL     1      44.799 -21.951   3.462  1.00  0.00    -0.356 OA
HETATM   17  C   UNL     1      44.462 -22.165   2.096  1.00  0.00     0.210 C 
ENDBRANCH  10  16
ENDBRANCH   5   6
ENDBRANCH   1   5
BRANCH   2  18
HETATM   18  C   UNL     1      40.926 -15.084  -0.841  1.00  0.00     0.047 A 
HETATM   19  C   UNL     1      39.884 -14.290  -0.274  1.00  0.00     0.022 A 
HETATM   20  C   UNL     1      38.786 -13.897  -1.088  1.00  0.00     0.102 A 
HETATM   21  C   UNL     1      39.876 -13.782   1.047  1.00  0.00     0.017 A 
HETATM   22  N   UNL     1      37.752 -13.170  -0.601  1.00  0.00    -0.257 NA
HETATM   23  C   UNL     1      38.784 -14.258  -2.446  1.00  0.00     0.097 A 
HETATM   24  C   UNL     1      37.772 -12.770   0.682  1.00  0.00     0.117 A 
HETATM   25  C   UNL     1      38.813 -13.033   1.538  1.00  0.00     0.020 A 
HETATM   26  C   UNL     1      39.853 -14.952  -3.012  1.00  0.00     0.041 A 
HETATM   27  C   UNL     1      40.914 -15.358  -2.215  1.00  0.00     0.033 A 
BRANCH  23  28
HETATM   28  O   UNL     1      37.717 -13.820  -3.202  1.00  0.00    -0.354 OA
HETATM   29  C   UNL     1      37.093 -14.796  -4.027  1.00  0.00     0.210 C 
ENDBRANCH  23  28
ENDBRANCH   2  18
TORSDOF 5
ENDMDL
MODEL 2
REMARK VINA RESULT:      -8.3      2.277      8.529
REMARK  5 active torsions:
REMARK  status: ('A' for Active; 'I' for Inactive)
REMARK    1  A    between atoms: O_2  and  C_3 
REMARK    2  A    between atoms: C_10  and  C_11 
REMARK    3  A    between atoms: C_11  and  C_12 
REMARK       I    between atoms: C_12  and  N_13 
REMARK    4  A    between atoms: N_13  and  C_14 
REMARK    5  A    between atoms: C_21  and  O_22 
ROOT
HETATM    1  C   UNL     1      42.289 -15.822   2.452  1.00  0.00     0.226 C 
HETATM    2  N   UNL     1      41.911 -17.110   2.823  1.00  0.00    -0.326 N 
HETATM    3  O   UNL     1      43.404 -15.335   2.597  1.00  0.00    -0.273 OA
HETATM    4  H   UNL     1      41.095 -17.462   2.340  1.00  0.00     0.169 HD
ENDROOT
BRANCH   1   5
HETATM    5  C   UNL     1      41.124 -15.056   1.825  1.00  0.00     0.144 C 
BRANCH   5   6
HETATM    6  C   UNL     1      41.512 -14.069   0.770  1.00  0.00    -0.021 A 
HETATM    7  C   UNL     1      41.380 -14.204  -0.653  1.00  0.00     0.001 A 
HETATM    8  C   UNL     1      40.922 -15.227  -1.511  1.00  0.00     0.051 A 
HETATM    9  C   UNL     1      41.833 -13.018  -1.231  1.00  0.00     0.043 A 
HETATM   10  C   UNL     1      40.945 -15.046  -2.901  1.00  0.00     0.069 A 
HETATM   11  C   UNL     1      41.395 -13.842  -3.439  1.00  0.00     0.039 A 
HETATM   12  C   UNL     1      41.847 -12.806  -2.613  1.00  0.00     0.033 A 
HETATM   13  N   UNL     1      42.225 -12.192  -0.205  1.00  0.00    -0.365 N 
HETATM   14  H   UNL     1      42.603 -11.262  -0.332  1.00  0.00     0.165 HD
HETATM   15  C   UNL     1      42.028 -12.806   1.001  1.00  0.00     0.097 A 
BRANCH  10  16
HETATM   16  O   UNL     1      40.489 -16.120  -3.619  1.00  0.00    -0.356 OA
HETATM   17  C   UNL     1      39.128 -16.075  -4.033  1.00  0.00     0.210 C 
ENDBRANCH  10  16
ENDBRANCH   5   6
ENDBRANCH   1   5
BRANCH   2  18
HETATM   18  C   UNL     1      42.726 -18.109   3.422  1.00  0.00     0.047 A 
HETATM   19  C   UNL     1      43.008 -18.255   4.814  1.00  0.00     0.022 A 
HETATM   20  C   UNL     1      43.919 -19.261   5.237  1.00  0.00     0.102 A 
HETATM   21  C   UNL     1      42.393 -17.514   5.850  1.00  0.00     0.017 A 
HETATM   22  N   UNL     1      44.253 -19.430   6.540  1.00  0.00    -0.257 NA
HETATM   23  C   UNL     1      44.477 -20.121   4.277  1.00  0.00     0.097 A 
HETATM   24  C   UNL     1      43.680 -18.650   7.474  1.00  0.00     0.117 A 
HETATM   25  C   UNL     1      42.737 -17.696   7.185  1.00  0.00     0.020 A 
HETATM   26  C   UNL     1      44.120 -20.032   2.931  1.00  0.00     0.041 A 
HETATM   27  C   UNL     1      43.251 -19.035   2.511  1.00  0.00     0.033 A 
BRANCH  23  28
HETATM   28  O   UNL     1      45.324 -21.105   4.742  1.00  0.00    -0.354 OA
HETATM   29  C   UNL     1      44.807 -22.429   4.739  1.00  0.00     0.210 C 
ENDBRANCH  23  28
ENDBRANCH   2  18
TORSDOF 5
ENDMDL
MODEL 3
REMARK VINA RESULT:      -8.2      1.895      3.621
REMARK  5 active torsions:
REMARK  status: ('A' for Active; 'I' for Inactive)
REMARK    1  A    between atoms: O_2  and  C_3 
REMARK    2  A    between atoms: C_10  and  C_11 
REMARK    3  A    between atoms: C_11  and  C_12 
REMARK       I    between atoms: C_12  and  N_13 
REMARK    4  A    between atoms: N_13  and  C_14 
REMARK    5  A    between atoms: C_21  and  O_22 
ROOT
HETATM    1  C   UNL     1      42.365 -17.198   0.958  1.00  0.00     0.226 C 
HETATM    2  N   UNL     1      42.379 -15.905   0.441  1.00  0.00    -0.326 N 
HETATM    3  O   UNL     1      41.363 -17.840   1.251  1.00  0.00    -0.273 OA
HETATM    4  H   UNL     1      43.228 -15.660  -0.053  1.00  0.00     0.169 HD
ENDROOT
BRANCH   1   5
HETATM    5  C   UNL     1      43.782 -17.746   1.129  1.00  0.00     0.144 C 
BRANCH   5   6
HETATM    6  C   UNL     1      43.988 -18.595   2.344  1.00  0.00    -0.021 A 
HETATM    7  C   UNL     1      43.862 -18.208   3.720  1.00  0.00     0.001 A 
HETATM    8  C   UNL     1      43.569 -16.997   4.383  1.00  0.00     0.051 A 
HETATM    9  C   UNL     1      44.105 -19.340   4.498  1.00  0.00     0.043 A 
HETATM   10  C   UNL     1      43.544 -16.947   5.784  1.00  0.00     0.069 A 
HETATM   11  C   UNL     1      43.781 -18.102   6.527  1.00  0.00     0.039 A 
HETATM   12  C   UNL     1      44.066 -19.320   5.896  1.00  0.00     0.033 A 
HETATM   13  N   UNL     1      44.368 -20.376   3.635  1.00  0.00    -0.365 N 
HETATM   14  H   UNL     1      44.585 -21.320   3.925  1.00  0.00     0.165 HD
HETATM   15  C   UNL     1      44.291 -19.946   2.340  1.00  0.00     0.097 A 
BRANCH  10  16
HETATM   16  O   UNL     1      43.262 -15.711   6.302  1.00  0.00    -0.356 OA
HETATM   17  C   UNL     1      44.347 -15.009   6.897  1.00  0.00     0.210 C 
ENDBRANCH  10  16
ENDBRANCH   5   6
ENDBRANCH   1   5
BRANCH   2  18
HETATM   18  C   UNL     1      41.258 -15.085   0.140  1.00  0.00     0.047 A 
HETATM   19  C   UNL     1      40.616 -14.953  -1.129  1.00  0.00     0.022 A 
HETATM   20  C   UNL     1      39.556 -14.016  -1.279  1.00  0.00     0.102 A 
HETATM   21  C   UNL     1      40.899 -15.741  -2.269  1.00  0.00     0.017 A 
HETATM   22  N   UNL     1      38.929 -13.822  -2.464  1.00  0.00    -0.257 NA
HETATM   23  C   UNL     1      39.133 -13.284  -0.157  1.00  0.00     0.097 A 
HETATM   24  C   UNL     1      39.287 -14.559  -3.529  1.00  0.00     0.117 A 
HETATM   25  C   UNL     1      40.248 -15.538  -3.481  1.00  0.00     0.020 A 
HETATM   26  C   UNL     1      39.702 -13.491   1.100  1.00  0.00     0.041 A 
HETATM   27  C   UNL     1      40.753 -14.385   1.243  1.00  0.00     0.033 A 
BRANCH  23  28
HETATM   28  O   UNL     1      38.076 -12.418  -0.345  1.00  0.00    -0.354 OA
HETATM   29  C   UNL     1      37.090 -12.403   0.679  1.00  0.00     0.210 C 
ENDBRANCH  23  28
ENDBRANCH   2  18
TORSDOF 5
ENDMDL
MODEL 4
REMARK VINA RESULT:      -8.1      2.229      3.496
REMARK  5 active torsions:
REMARK  status: ('A' for Active; 'I' for Inactive)
REMARK    1  A    between atoms: O_2  and  C_3 
REMARK    2  A    between atoms: C_10  and  C_11 
REMARK    3  A    between atoms: C_11  and  C_12 
REMARK       I    between atoms: C_12  and  N_13 
REMARK    4  A    between atoms: N_13  and  C_14 
REMARK    5  A    between atoms: C_21  and  O_22 
ROOT
HETATM    1  C   UNL     1      43.046 -18.007   1.398  1.00  0.00     0.226 C 
HETATM    2  N   UNL     1      41.719 -17.586   1.362  1.00  0.00    -0.326 N 
HETATM    3  O   UNL     1      44.011 -17.361   1.004  1.00  0.00    -0.273 OA
HETATM    4  H   UNL     1      41.111 -18.064   2.014  1.00  0.00     0.169 HD
ENDROOT
BRANCH   1   5
HETATM    5  C   UNL     1      43.173 -19.406   1.999  1.00  0.00     0.144 C 
BRANCH   5   6
HETATM    6  C   UNL     1      43.947 -19.475   3.278  1.00  0.00    -0.021 A 
HETATM    7  C   UNL     1      43.963 -18.522   4.351  1.00  0.00     0.001 A 
HETATM    8  C   UNL     1      43.351 -17.269   4.568  1.00  0.00     0.051 A 
HETATM    9  C   UNL     1      44.794 -19.029   5.350  1.00  0.00     0.043 A 
HETATM   10  C   UNL     1      43.598 -16.560   5.753  1.00  0.00     0.069 A 
HETATM   11  C   UNL     1      44.425 -17.104   6.732  1.00  0.00     0.039 A 
HETATM   12  C   UNL     1      45.039 -18.350   6.548  1.00  0.00     0.033 A 
HETATM   13  N   UNL     1      45.267 -20.241   4.907  1.00  0.00    -0.365 N 
HETATM   14  H   UNL     1      45.900 -20.833   5.429  1.00  0.00     0.165 HD
HETATM   15  C   UNL     1      44.759 -20.526   3.670  1.00  0.00     0.097 A 
BRANCH  10  16
HETATM   16  O   UNL     1      42.956 -15.352   5.832  1.00  0.00    -0.356 OA
HETATM   17  C   UNL     1      43.616 -14.241   5.236  1.00  0.00     0.210 C 
ENDBRANCH  10  16
ENDBRANCH   5   6
ENDBRANCH   1   5
BRANCH   2  18
HETATM   18  C   UNL     1      41.221 -16.344   0.884  1.00  0.00     0.047 A 
HETATM   19  C   UNL     1      40.643 -15.300   1.667  1.00  0.00     0.022 A 
HETATM   20  C   UNL     1      40.111 -14.153   1.016  1.00  0.00     0.102 A 
HETATM   21  C   UNL     1      40.611 -15.267   3.081  1.00  0.00     0.017 A 
HETATM   22  N   UNL     1      39.522 -13.143   1.701  1.00  0.00    -0.257 NA
HETATM   23  C   UNL     1      40.218 -14.055  -0.381  1.00  0.00     0.097 A 
HETATM   24  C   UNL     1      39.467 -13.200   3.043  1.00  0.00     0.117 A 
HETATM   25  C   UNL     1      40.008 -14.225   3.777  1.00  0.00     0.020 A 
HETATM   26  C   UNL     1      40.871 -15.035  -1.129  1.00  0.00     0.041 A 
HETATM   27  C   UNL     1      41.367 -16.167  -0.499  1.00  0.00     0.033 A 
BRANCH  23  28
HETATM   28  O   UNL     1      39.723 -12.906  -0.962  1.00  0.00    -0.354 OA
HETATM   29  C   UNL     1      40.277 -12.553  -2.223  1.00  0.00     0.210 C 
ENDBRANCH  23  28
ENDBRANCH   2  18
TORSDOF 5
ENDMDL
MODEL 5
REMARK VINA RESULT:      -8.1      2.204      7.977
REMARK  5 active torsions:
REMARK  status: ('A' for Active; 'I' for Inactive)
REMARK    1  A    between atoms: O_2  and  C_3 
REMARK    2  A    between atoms: C_10  and  C_11 
REMARK    3  A    between atoms: C_11  and  C_12 
REMARK       I    between atoms: C_12  and  N_13 
REMARK    4  A    between atoms: N_13  and  C_14 
REMARK    5  A    between atoms: C_21  and  O_22 
ROOT
HETATM    1  C   UNL     1      41.684 -17.145   1.002  1.00  0.00     0.226 C 
HETATM    2  N   UNL     1      43.014 -17.446   1.289  1.00  0.00    -0.326 N 
HETATM    3  O   UNL     1      40.705 -17.635   1.553  1.00  0.00    -0.273 OA
HETATM    4  H   UNL     1      43.674 -16.733   1.006  1.00  0.00     0.169 HD
ENDROOT
BRANCH   1   5
HETATM    5  C   UNL     1      41.575 -16.104  -0.112  1.00  0.00     0.144 C 
BRANCH   5   6
HETATM    6  C   UNL     1      40.879 -14.836   0.274  1.00  0.00    -0.021 A 
HETATM    7  C   UNL     1      41.189 -13.960   1.368  1.00  0.00     0.001 A 
HETATM    8  C   UNL     1      42.140 -13.979   2.411  1.00  0.00     0.051 A 
HETATM    9  C   UNL     1      40.301 -12.886   1.309  1.00  0.00     0.043 A 
HETATM   10  C   UNL     1      42.165 -12.949   3.361  1.00  0.00     0.069 A 
HETATM   11  C   UNL     1      41.269 -11.887   3.262  1.00  0.00     0.039 A 
HETATM   12  C   UNL     1      40.320 -11.836   2.233  1.00  0.00     0.033 A 
HETATM   13  N   UNL     1      39.483 -13.096   0.225  1.00  0.00    -0.365 N 
HETATM   14  H   UNL     1      38.737 -12.474  -0.057  1.00  0.00     0.165 HD
HETATM   15  C   UNL     1      39.826 -14.257  -0.411  1.00  0.00     0.097 A 
BRANCH  10  16
HETATM   16  O   UNL     1      43.125 -13.095   4.328  1.00  0.00    -0.356 OA
HETATM   17  C   UNL     1      42.666 -13.177   5.672  1.00  0.00     0.210 C 
ENDBRANCH  10  16
ENDBRANCH   5   6
ENDBRANCH   1   5
BRANCH   2  18
HETATM   18  C   UNL     1      43.500 -18.354   2.268  1.00  0.00     0.047 A 
HETATM   19  C   UNL     1      43.746 -18.070   3.645  1.00  0.00     0.022 A 
HETATM   20  C   UNL     1      44.319 -19.076   4.471  1.00  0.00     0.102 A 
HETATM   21  C   UNL     1      43.397 -16.867   4.302  1.00  0.00     0.017 A 
HETATM   22  N   UNL     1      44.606 -18.858   5.777  1.00  0.00    -0.257 NA
HETATM   23  C   UNL     1      44.578 -20.342   3.920  1.00  0.00     0.097 A 
HETATM   24  C   UNL     1      44.307 -17.669   6.330  1.00  0.00     0.117 A 
HETATM   25  C   UNL     1      43.691 -16.653   5.644  1.00  0.00     0.020 A 
HETATM   26  C   UNL     1      44.245 -20.638   2.599  1.00  0.00     0.041 A 
HETATM   27  C   UNL     1      43.709 -19.652   1.783  1.00  0.00     0.033 A 
BRANCH  23  28
HETATM   28  O   UNL     1      45.098 -21.294   4.772  1.00  0.00    -0.354 OA
HETATM   29  C   UNL     1      44.706 -22.638   4.522  1.00  0.00     0.210 C 
ENDBRANCH  23  28
ENDBRANCH   2  18
TORSDOF 5
ENDMDL
MODEL 6
REMARK VINA RESULT:      -8.0      1.776      2.817
REMARK  5 active torsions:
REMARK  status: ('A' for Active; 'I' for Inactive)
REMARK    1  A    between atoms: O_2  and  C_3 
REMARK    2  A    between atoms: C_10  and  C_11 
REMARK    3  A    between atoms: C_11  and  C_12 
REMARK       I    between atoms: C_12  and  N_13 
REMARK    4  A    between atoms: N_13  and  C_14 
REMARK    5  A    between atoms: C_21  and  O_22 
ROOT
HETATM    1  C   UNL     1      42.301 -17.144   0.784  1.00  0.00     0.226 C 
HETATM    2  N   UNL     1      42.288 -15.957   0.056  1.00  0.00    -0.326 N 
HETATM    3  O   UNL     1      41.312 -17.755   1.173  1.00  0.00    -0.273 OA
HETATM    4  H   UNL     1      43.136 -15.776  -0.465  1.00  0.00     0.169 HD
ENDROOT
BRANCH   1   5
HETATM    5  C   UNL     1      43.728 -17.617   1.056  1.00  0.00     0.144 C 
BRANCH   5   6
HETATM    6  C   UNL     1      43.889 -18.469   2.276  1.00  0.00    -0.021 A 
HETATM    7  C   UNL     1      43.758 -18.074   3.650  1.00  0.00     0.001 A 
HETATM    8  C   UNL     1      43.496 -16.852   4.306  1.00  0.00     0.051 A 
HETATM    9  C   UNL     1      43.952 -19.211   4.434  1.00  0.00     0.043 A 
HETATM   10  C   UNL     1      43.454 -16.798   5.707  1.00  0.00     0.069 A 
HETATM   11  C   UNL     1      43.642 -17.959   6.455  1.00  0.00     0.039 A 
HETATM   12  C   UNL     1      43.895 -19.187   5.831  1.00  0.00     0.033 A 
HETATM   13  N   UNL     1      44.192 -20.258   3.577  1.00  0.00    -0.365 N 
HETATM   14  H   UNL     1      44.373 -21.209   3.871  1.00  0.00     0.165 HD
HETATM   15  C   UNL     1      44.147 -19.829   2.279  1.00  0.00     0.097 A 
BRANCH  10  16
HETATM   16  O   UNL     1      43.206 -15.552   6.218  1.00  0.00    -0.356 OA
HETATM   17  C   UNL     1      44.243 -14.968   6.999  1.00  0.00     0.210 C 
ENDBRANCH  10  16
ENDBRANCH   5   6
ENDBRANCH   1   5
BRANCH   2  18
HETATM   18  C   UNL     1      41.150 -15.231  -0.388  1.00  0.00     0.047 A 
HETATM   19  C   UNL     1      40.294 -14.416   0.413  1.00  0.00     0.022 A 
HETATM   20  C   UNL     1      39.142 -13.827  -0.176  1.00  0.00     0.102 A 
HETATM   21  C   UNL     1      40.530 -14.073   1.765  1.00  0.00     0.017 A 
HETATM   22  N   UNL     1      38.274 -13.070   0.538  1.00  0.00    -0.257 NA
HETATM   23  C   UNL     1      38.907 -14.019  -1.548  1.00  0.00     0.097 A 
HETATM   24  C   UNL     1      38.521 -12.831   1.838  1.00  0.00     0.117 A 
HETATM   25  C   UNL     1      39.637 -13.292   2.490  1.00  0.00     0.020 A 
HETATM   26  C   UNL     1      39.801 -14.736  -2.343  1.00  0.00     0.041 A 
HETATM   27  C   UNL     1      40.912 -15.334  -1.765  1.00  0.00     0.033 A 
BRANCH  23  28
HETATM   28  O   UNL     1      37.798 -13.395  -2.081  1.00  0.00    -0.354 OA
HETATM   29  C   UNL     1      37.903 -12.983  -3.437  1.00  0.00     0.210 C 
ENDBRANCH  23  28
ENDBRANCH   2  18
TORSDOF 5
ENDMDL
MODEL 7
REMARK VINA RESULT:      -7.9      2.732      4.235
REMARK  5 active torsions:
REMARK  status: ('A' for Active; 'I' for Inactive)
REMARK    1  A    between atoms: O_2  and  C_3 
REMARK    2  A    between atoms: C_10  and  C_11 
REMARK    3  A    between atoms: C_11  and  C_12 
REMARK       I    between atoms: C_12  and  N_13 
REMARK    4  A    between atoms: N_13  and  C_14 
REMARK    5  A    between atoms: C_21  and  O_22 
ROOT
HETATM    1  C   UNL     1      42.838 -15.264   5.522  1.00  0.00     0.226 C 
HETATM    2  N   UNL     1      43.371 -14.735   4.349  1.00  0.00    -0.326 N 
HETATM    3  O   UNL     1      41.645 -15.380   5.776  1.00  0.00    -0.273 OA
HETATM    4  H   UNL     1      44.323 -15.019   4.157  1.00  0.00     0.169 HD
ENDROOT
BRANCH   1   5
HETATM    5  C   UNL     1      43.938 -15.696   6.491  1.00  0.00     0.144 C 
BRANCH   5   6
HETATM    6  C   UNL     1      43.852 -17.118   6.952  1.00  0.00    -0.021 A 
HETATM    7  C   UNL     1      44.066 -18.308   6.179  1.00  0.00     0.001 A 
HETATM    8  C   UNL     1      44.367 -18.566   4.824  1.00  0.00     0.051 A 
HETATM    9  C   UNL     1      43.919 -19.398   7.038  1.00  0.00     0.043 A 
HETATM   10  C   UNL     1      44.494 -19.886   4.369  1.00  0.00     0.069 A 
HETATM   11  C   UNL     1      44.351 -20.948   5.260  1.00  0.00     0.039 A 
HETATM   12  C   UNL     1      44.061 -20.722   6.612  1.00  0.00     0.033 A 
HETATM   13  N   UNL     1      43.627 -18.895   8.283  1.00  0.00    -0.365 N 
HETATM   14  H   UNL     1      43.464 -19.462   9.104  1.00  0.00     0.165 HD
HETATM   15  C   UNL     1      43.594 -17.529   8.248  1.00  0.00     0.097 A 
BRANCH  10  16
HETATM   16  O   UNL     1      44.772 -19.999   3.032  1.00  0.00    -0.356 OA
HETATM   17  C   UNL     1      43.656 -20.136   2.160  1.00  0.00     0.210 C 
ENDBRANCH  10  16
ENDBRANCH   5   6
ENDBRANCH   1   5
BRANCH   2  18
HETATM   18  C   UNL     1      42.658 -14.244   3.223  1.00  0.00     0.047 A 
HETATM   19  C   UNL     1      42.256 -14.993   2.076  1.00  0.00     0.022 A 
HETATM   20  C   UNL     1      41.623 -14.323   0.993  1.00  0.00     0.102 A 
HETATM   21  C   UNL     1      42.369 -16.397   1.942  1.00  0.00     0.017 A 
HETATM   22  N   UNL     1      41.246 -14.972  -0.135  1.00  0.00    -0.257 NA
HETATM   23  C   UNL     1      41.362 -12.947   1.105  1.00  0.00     0.097 A 
HETATM   24  C   UNL     1      41.438 -16.300  -0.228  1.00  0.00     0.117 A 
HETATM   25  C   UNL     1      41.976 -17.057   0.783  1.00  0.00     0.020 A 
HETATM   26  C   UNL     1      41.672 -12.243   2.269  1.00  0.00     0.041 A 
HETATM   27  C   UNL     1      42.313 -12.889   3.317  1.00  0.00     0.033 A 
BRANCH  23  28
HETATM   28  O   UNL     1      40.711 -12.351   0.045  1.00  0.00    -0.354 OA
HETATM   29  C   UNL     1      41.468 -11.407  -0.702  1.00  0.00     0.210 C 
ENDBRANCH  23  28
ENDBRANCH   2  18
TORSDOF 5
ENDMDL
MODEL 8
REMARK VINA RESULT:      -7.9      2.912      4.165
REMARK  5 active torsions:
REMARK  status: ('A' for Active; 'I' for Inactive)
REMARK    1  A    between atoms: O_2  and  C_3 
REMARK    2  A    between atoms: C_10  and  C_11 
REMARK    3  A    between atoms: C_11  and  C_12 
REMARK       I    between atoms: C_12  and  N_13 
REMARK    4  A    between atoms: N_13  and  C_14 
REMARK    5  A    between atoms: C_21  and  O_22 
ROOT
HETATM    1  C   UNL     1      42.370 -17.274   1.417  1.00  0.00     0.226 C 
HETATM    2  N   UNL     1      42.603 -15.942   1.752  1.00  0.00    -0.326 N 
HETATM    3  O   UNL     1      41.268 -17.800   1.304  1.00  0.00    -0.273 OA
HETATM    4  H   UNL     1      43.511 -15.594   1.473  1.00  0.00     0.169 HD
ENDROOT
BRANCH   1   5
HETATM    5  C   UNL     1      43.678 -18.033   1.201  1.00  0.00     0.144 C 
BRANCH   5   6
HETATM    6  C   UNL     1      43.979 -19.078   2.230  1.00  0.00    -0.021 A 
HETATM    7  C   UNL     1      44.059 -18.914   3.654  1.00  0.00     0.001 A 
HETATM    8  C   UNL     1      43.938 -17.814   4.531  1.00  0.00     0.051 A 
HETATM    9  C   UNL     1      44.320 -20.168   4.206  1.00  0.00     0.043 A 
HETATM   10  C   UNL     1      44.098 -17.993   5.912  1.00  0.00     0.069 A 
HETATM   11  C   UNL     1      44.347 -19.263   6.427  1.00  0.00     0.039 A 
HETATM   12  C   UNL     1      44.463 -20.375   5.582  1.00  0.00     0.033 A 
HETATM   13  N   UNL     1      44.397 -21.061   3.165  1.00  0.00    -0.365 N 
HETATM   14  H   UNL     1      44.583 -22.050   3.272  1.00  0.00     0.165 HD
HETATM   15  C   UNL     1      44.184 -20.423   1.975  1.00  0.00     0.097 A 
BRANCH  10  16
HETATM   16  O   UNL     1      43.972 -16.845   6.649  1.00  0.00    -0.356 OA
HETATM   17  C   UNL     1      43.235 -16.946   7.862  1.00  0.00     0.210 C 
ENDBRANCH  10  16
ENDBRANCH   5   6
ENDBRANCH   1   5
BRANCH   2  18
HETATM   18  C   UNL     1      41.634 -14.936   2.013  1.00  0.00     0.047 A 
HETATM   19  C   UNL     1      41.092 -14.587   3.287  1.00  0.00     0.022 A 
HETATM   20  C   UNL     1      40.060 -13.611   3.360  1.00  0.00     0.102 A 
HETATM   21  C   UNL     1      41.548 -15.086   4.529  1.00  0.00     0.017 A 
HETATM   22  N   UNL     1      39.483 -13.260   4.535  1.00  0.00    -0.257 NA
HETATM   23  C   UNL     1      39.639 -12.977   2.180  1.00  0.00     0.097 A 
HETATM   24  C   UNL     1      39.919 -13.818   5.678  1.00  0.00     0.117 A 
HETATM   25  C   UNL     1      40.954 -14.718   5.731  1.00  0.00     0.020 A 
HETATM   26  C   UNL     1      40.242 -13.256   0.953  1.00  0.00     0.041 A 
HETATM   27  C   UNL     1      41.231 -14.226   0.874  1.00  0.00     0.033 A 
BRANCH  23  28
HETATM   28  O   UNL     1      38.663 -12.011   2.309  1.00  0.00    -0.354 OA
HETATM   29  C   UNL     1      39.028 -10.696   1.908  1.00  0.00     0.210 C 
ENDBRANCH  23  28
ENDBRANCH   2  18
TORSDOF 5
ENDMDL
MODEL 9
REMARK VINA RESULT:      -7.9      1.904      8.740
REMARK  5 active torsions:
REMARK  status: ('A' for Active; 'I' for Inactive)
REMARK    1  A    between atoms: O_2  and  C_3 
REMARK    2  A    between atoms: C_10  and  C_11 
REMARK    3  A    between atoms: C_11  and  C_12 
REMARK       I    between atoms: C_12  and  N_13 
REMARK    4  A    between atoms: N_13  and  C_14 
REMARK    5  A    between atoms: C_21  and  O_22 
ROOT
HETATM    1  C   UNL     1      42.766 -16.597   1.415  1.00  0.00     0.226 C 
HETATM    2  N   UNL     1      42.497 -17.935   1.694  1.00  0.00    -0.326 N 
HETATM    3  O   UNL     1      43.639 -15.918   1.944  1.00  0.00    -0.273 OA
HETATM    4  H   UNL     1      42.004 -18.424   0.959  1.00  0.00     0.169 HD
ENDROOT
BRANCH   1   5
HETATM    5  C   UNL     1      41.823 -16.049   0.344  1.00  0.00     0.144 C 
BRANCH   5   6
HETATM    6  C   UNL     1      40.533 -15.496   0.863  1.00  0.00    -0.021 A 
HETATM    7  C   UNL     1      39.689 -14.508   0.252  1.00  0.00     0.001 A 
HETATM    8  C   UNL     1      39.766 -13.734  -0.926  1.00  0.00     0.051 A 
HETATM    9  C   UNL     1      38.576 -14.340   1.076  1.00  0.00     0.043 A 
HETATM   10  C   UNL     1      38.753 -12.814  -1.233  1.00  0.00     0.069 A 
HETATM   11  C   UNL     1      37.652 -12.683  -0.390  1.00  0.00     0.039 A 
HETATM   12  C   UNL     1      37.543 -13.444   0.781  1.00  0.00     0.033 A 
HETATM   13  N   UNL     1      38.732 -15.188   2.146  1.00  0.00    -0.365 N 
HETATM   14  H   UNL     1      38.074 -15.273   2.909  1.00  0.00     0.165 HD
HETATM   15  C   UNL     1      39.896 -15.895   2.026  1.00  0.00     0.097 A 
BRANCH  10  16
HETATM   16  O   UNL     1      38.957 -12.117  -2.394  1.00  0.00    -0.356 OA
HETATM   17  C   UNL     1      39.686 -12.785  -3.417  1.00  0.00     0.210 C 
ENDBRANCH  10  16
ENDBRANCH   5   6
ENDBRANCH   1   5
BRANCH   2  18
HETATM   18  C   UNL     1      43.173 -18.775   2.620  1.00  0.00     0.047 A 
HETATM   19  C   UNL     1      43.189 -18.635   4.041  1.00  0.00     0.022 A 
HETATM   20  C   UNL     1      43.992 -19.515   4.817  1.00  0.00     0.102 A 
HETATM   21  C   UNL     1      42.403 -17.718   4.776  1.00  0.00     0.017 A 
HETATM   22  N   UNL     1      44.075 -19.414   6.166  1.00  0.00    -0.257 NA
HETATM   23  C   UNL     1      44.706 -20.536   4.167  1.00  0.00     0.097 A 
HETATM   24  C   UNL     1      43.350 -18.478   6.803  1.00  0.00     0.117 A 
HETATM   25  C   UNL     1      42.491 -17.623   6.161  1.00  0.00     0.020 A 
HETATM   26  C   UNL     1      44.607 -20.724   2.789  1.00  0.00     0.041 A 
HETATM   27  C   UNL     1      43.845 -19.851   2.025  1.00  0.00     0.033 A 
BRANCH  23  28
HETATM   28  O   UNL     1      45.438 -21.387   4.968  1.00  0.00    -0.354 OA
HETATM   29  C   UNL     1      44.995 -22.737   5.015  1.00  0.00     0.210 C 
ENDBRANCH  23  28
ENDBRANCH   2  18
TORSDOF 5
ENDMDL
MODEL 10
REMARK VINA RESULT:      -7.9      2.110      3.154
REMARK  5 active torsions:
REMARK  status: ('A' for Active; 'I' for Inactive)
REMARK    1  A    between atoms: O_2  and  C_3 
REMARK    2  A    between atoms: C_10  and  C_11 
REMARK    3  A    between atoms: C_11  and  C_12 
REMARK       I    between atoms: C_12  and  N_13 
REMARK    4  A    between atoms: N_13  and  C_14 
REMARK    5  A    between atoms: C_21  and  O_22 
ROOT
HETATM    1  C   UNL     1      42.575 -15.527   4.588  1.00  0.00     0.226 C 
HETATM    2  N   UNL     1      43.137 -15.377   3.322  1.00  0.00    -0.326 N 
HETATM    3  O   UNL     1      41.376 -15.515   4.843  1.00  0.00    -0.273 OA
HETATM    4  H   UNL     1      44.076 -15.744   3.236  1.00  0.00     0.169 HD
ENDROOT
BRANCH   1   5
HETATM    5  C   UNL     1      43.650 -15.712   5.659  1.00  0.00     0.144 C 
BRANCH   5   6
HETATM    6  C   UNL     1      43.609 -17.026   6.374  1.00  0.00    -0.021 A 
HETATM    7  C   UNL     1      43.920 -18.325   5.847  1.00  0.00     0.001 A 
HETATM    8  C   UNL     1      44.302 -18.812   4.578  1.00  0.00     0.051 A 
HETATM    9  C   UNL     1      43.784 -19.243   6.888  1.00  0.00     0.043 A 
HETATM   10  C   UNL     1      44.515 -20.184   4.384  1.00  0.00     0.069 A 
HETATM   11  C   UNL     1      44.379 -21.069   5.452  1.00  0.00     0.039 A 
HETATM   12  C   UNL     1      44.011 -20.613   6.724  1.00  0.00     0.033 A 
HETATM   13  N   UNL     1      43.405 -18.537   8.004  1.00  0.00    -0.365 N 
HETATM   14  H   UNL     1      43.228 -18.950   8.910  1.00  0.00     0.165 HD
HETATM   15  C   UNL     1      43.307 -17.205   7.712  1.00  0.00     0.097 A 
BRANCH  10  16
HETATM   16  O   UNL     1      44.866 -20.526   3.104  1.00  0.00    -0.356 OA
HETATM   17  C   UNL     1      43.836 -20.459   2.124  1.00  0.00     0.210 C 
ENDBRANCH  10  16
ENDBRANCH   5   6
ENDBRANCH   1   5
BRANCH   2  18
HETATM   18  C   UNL     1      42.452 -15.196   2.091  1.00  0.00     0.047 A 
HETATM   19  C   UNL     1      41.858 -13.987   1.617  1.00  0.00     0.022 A 
HETATM   20  C   UNL     1      41.130 -14.002   0.395  1.00  0.00     0.102 A 
HETATM   21  C   UNL     1      41.989 -12.721   2.234  1.00  0.00     0.017 A 
HETATM   22  N   UNL     1      40.517 -12.896  -0.091  1.00  0.00    -0.257 NA
HETATM   23  C   UNL     1      41.062 -15.196  -0.341  1.00  0.00     0.097 A 
HETATM   24  C   UNL     1      40.626 -11.733   0.575  1.00  0.00     0.117 A 
HETATM   25  C   UNL     1      41.360 -11.590   1.726  1.00  0.00     0.020 A 
HETATM   26  C   UNL     1      41.727 -16.347   0.083  1.00  0.00     0.041 A 
HETATM   27  C   UNL     1      42.416 -16.343   1.287  1.00  0.00     0.033 A 
BRANCH  23  28
HETATM   28  O   UNL     1      40.378 -15.149  -1.538  1.00  0.00    -0.354 OA
HETATM   29  C   UNL     1      41.077 -15.633  -2.677  1.00  0.00     0.210 C 
ENDBRANCH  23  28
ENDBRANCH   2  18
TORSDOF 5
ENDMDL
