MODEL 1
REMARK VINA RESULT:      -8.7      0.000      0.000
REMARK  10 active torsions:
REMARK  status: ('A' for Active; 'I' for Inactive)
REMARK    1  A    between atoms: C_6  and  N_7 
REMARK    2  A    between atoms: C_6  and  C_29 
REMARK       I    between atoms: N_7  and  C_8 
REMARK    3  A    between atoms: N_7  and  C_23 
REMARK    4  A    between atoms: C_8  and  C_9 
REMARK    5  A    between atoms: C_9  and  N_10 
REMARK    6  A    between atoms: C_14  and  C_15 
REMARK    7  A    between atoms: C_23  and  C_24 
REMARK       I    between atoms: C_29  and  N_30 
REMARK    8  A    between atoms: N_30  and  C_31 
REMARK    9  A    between atoms: C_32  and  O_33 
REMARK   10  A    between atoms: C_36  and  O_37 
ROOT
HETATM    1  N   UNL     1      40.889 -14.988   1.708  1.00  0.00    -0.326 N 
HETATM    2  C   UNL     1      41.589 -15.631   0.658  1.00  0.00     0.239 C 
HETATM    3  O   UNL     1      42.598 -16.299   0.878  1.00  0.00    -0.271 OA
ENDROOT
BRANCH   1   4
HETATM    4  C   UNL     1      41.574 -14.855   3.050  1.00  0.00     0.120 C 
HETATM    5  C   UNL     1      42.939 -14.132   2.923  1.00  0.00     0.069 C 
HETATM    6  C   UNL     1      43.633 -13.861   4.255  1.00  0.00     0.237 C 
HETATM    7  N   UNL     1      42.697 -13.197   5.230  1.00  0.00    -0.075 N 
HETATM    8  C   UNL     1      43.388 -12.944   6.547  1.00  0.00     0.269 C 
HETATM    9  H   UNL     1      42.452 -12.273   4.844  1.00  0.00     0.279 HD
HETATM   10  C   UNL     1      41.414 -13.956   5.434  1.00  0.00     0.237 C 
HETATM   11  C   UNL     1      40.699 -14.103   4.097  1.00  0.00     0.069 C 
BRANCH   4  12
HETATM   12  C   UNL     1      41.765 -16.296   3.644  1.00  0.00     0.251 C 
HETATM   13  N   UNL     1      43.086 -16.672   3.739  1.00  0.00    -0.323 N 
HETATM   14  H   UNL     1      43.799 -15.960   3.592  1.00  0.00     0.169 HD
HETATM   15  O   UNL     1      40.798 -17.031   3.823  1.00  0.00    -0.270 OA
BRANCH  13  16
HETATM   16  C   UNL     1      43.625 -17.953   3.993  1.00  0.00     0.068 A 
HETATM   17  C   UNL     1      44.000 -18.230   5.326  1.00  0.00     0.097 A 
HETATM   18  C   UNL     1      44.569 -19.467   5.653  1.00  0.00     0.075 A 
HETATM   19  C   UNL     1      44.765 -20.429   4.660  1.00  0.00     0.070 A 
HETATM   20  C   UNL     1      44.395 -20.145   3.345  1.00  0.00     0.039 A 
HETATM   21  C   UNL     1      43.824 -18.917   3.009  1.00  0.00     0.035 A 
BRANCH  17  22
HETATM   22  O   UNL     1      43.788 -17.198   6.216  1.00  0.00    -0.354 OA
HETATM   23  C   UNL     1      42.857 -17.432   7.270  1.00  0.00     0.210 C 
ENDBRANCH  17  22
BRANCH  19  24
HETATM   24  O   UNL     1      45.316 -21.667   4.837  1.00  0.00    -0.356 OA
HETATM   25  C   UNL     1      44.741 -22.747   4.111  1.00  0.00     0.210 C 
ENDBRANCH  19  24
ENDBRANCH  13  16
ENDBRANCH   4  12
ENDBRANCH   1   4
BRANCH   1  26
HETATM   26  C   UNL     1      39.442 -15.286   1.748  1.00  0.00     0.192 C 
BRANCH  26  27
HETATM   27  C   UNL     1      38.577 -14.183   1.259  1.00  0.00     0.070 A 
HETATM   28  O   UNL     1      39.152 -12.947   1.336  1.00  0.00    -0.325 OA
HETATM   29  C   UNL     1      38.255 -12.048   0.861  1.00  0.00     0.142 A 
HETATM   30  C   UNL     1      37.098 -12.685   0.483  1.00  0.00     0.027 A 
HETATM   31  C   UNL     1      37.302 -14.063   0.742  1.00  0.00     0.036 A 
ENDBRANCH  26  27
ENDBRANCH   1  26
BRANCH   2  32
HETATM   32  C   UNL     1      41.059 -15.352  -0.767  1.00  0.00     0.228 C 
BRANCH  32  33
HETATM   33  N   UNL     1      41.180 -13.968  -1.200  1.00  0.00    -0.347 N 
HETATM   34  C   UNL     1      40.308 -13.244  -2.011  1.00  0.00     0.171 C 
HETATM   35  S   UNL     1      38.924 -13.757  -2.758  1.00  0.00    -0.041 SA
HETATM   36  N   UNL     1      40.810 -11.951  -2.130  1.00  0.00    -0.357 N 
HETATM   37  C   UNL     1      42.167 -11.898  -1.633  1.00  0.00     0.135 C 
HETATM   38  H   UNL     1      40.438 -11.311  -2.821  1.00  0.00     0.162 HD
HETATM   39  C   UNL     1      42.223 -13.097  -0.681  1.00  0.00     0.155 C 
BRANCH  37  40
HETATM   40  C   UNL     1      42.571 -10.596  -1.001  1.00  0.00    -0.034 A 
HETATM   41  C   UNL     1      43.696  -9.878  -1.433  1.00  0.00     0.009 A 
HETATM   42  C   UNL     1      44.018  -8.648  -0.854  1.00  0.00     0.001 A 
HETATM   43  C   UNL     1      43.216  -8.117   0.156  1.00  0.00     0.000 A 
HETATM   44  C   UNL     1      42.092  -8.816   0.590  1.00  0.00     0.001 A 
HETATM   45  C   UNL     1      41.772 -10.046   0.014  1.00  0.00     0.009 A 
ENDBRANCH  37  40
ENDBRANCH  32  33
ENDBRANCH   2  32
TORSDOF 10
ENDMDL
MODEL 2
REMARK VINA RESULT:      -8.3      3.125      8.201
REMARK  10 active torsions:
REMARK  status: ('A' for Active; 'I' for Inactive)
REMARK    1  A    between atoms: C_6  and  N_7 
REMARK    2  A    between atoms: C_6  and  C_29 
REMARK       I    between atoms: N_7  and  C_8 
REMARK    3  A    between atoms: N_7  and  C_23 
REMARK    4  A    between atoms: C_8  and  C_9 
REMARK    5  A    between atoms: C_9  and  N_10 
REMARK    6  A    between atoms: C_14  and  C_15 
REMARK    7  A    between atoms: C_23  and  C_24 
REMARK       I    between atoms: C_29  and  N_30 
REMARK    8  A    between atoms: N_30  and  C_31 
REMARK    9  A    between atoms: C_32  and  O_33 
REMARK   10  A    between atoms: C_36  and  O_37 
ROOT
HETATM    1  N   UNL     1      39.960 -13.810   4.322  1.00  0.00    -0.326 N 
HETATM    2  C   UNL     1      41.170 -14.546   4.316  1.00  0.00     0.239 C 
HETATM    3  O   UNL     1      42.129 -14.194   3.630  1.00  0.00    -0.271 OA
ENDROOT
BRANCH   1   4
HETATM    4  C   UNL     1      39.742 -12.781   3.234  1.00  0.00     0.120 C 
HETATM    5  C   UNL     1      38.720 -11.701   3.670  1.00  0.00     0.069 C 
HETATM    6  C   UNL     1      38.538 -10.566   2.665  1.00  0.00     0.237 C 
HETATM    7  N   UNL     1      39.866  -9.995   2.245  1.00  0.00    -0.075 N 
HETATM    8  C   UNL     1      39.677  -8.882   1.244  1.00  0.00     0.269 C 
HETATM    9  H   UNL     1      40.298  -9.569   3.080  1.00  0.00     0.279 HD
HETATM   10  C   UNL     1      40.823 -11.032   1.722  1.00  0.00     0.237 C 
HETATM   11  C   UNL     1      41.064 -12.081   2.799  1.00  0.00     0.069 C 
BRANCH   4  12
HETATM   12  C   UNL     1      39.240 -13.531   1.949  1.00  0.00     0.251 C 
HETATM   13  N   UNL     1      40.246 -13.785   1.043  1.00  0.00    -0.323 N 
HETATM   14  H   UNL     1      41.208 -13.633   1.339  1.00  0.00     0.169 HD
HETATM   15  O   UNL     1      38.040 -13.694   1.750  1.00  0.00    -0.270 OA
BRANCH  13  16
HETATM   16  C   UNL     1      40.139 -14.214  -0.298  1.00  0.00     0.068 A 
HETATM   17  C   UNL     1      41.055 -15.202  -0.722  1.00  0.00     0.097 A 
HETATM   18  C   UNL     1      41.032 -15.659  -2.046  1.00  0.00     0.075 A 
HETATM   19  C   UNL     1      40.103 -15.138  -2.948  1.00  0.00     0.070 A 
HETATM   20  C   UNL     1      39.205 -14.158  -2.522  1.00  0.00     0.039 A 
HETATM   21  C   UNL     1      39.216 -13.698  -1.204  1.00  0.00     0.035 A 
BRANCH  17  22
HETATM   22  O   UNL     1      41.944 -15.624   0.243  1.00  0.00    -0.354 OA
HETATM   23  C   UNL     1      41.864 -16.988   0.648  1.00  0.00     0.210 C 
ENDBRANCH  17  22
BRANCH  19  24
HETATM   24  O   UNL     1      39.978 -15.483  -4.264  1.00  0.00    -0.356 OA
HETATM   25  C   UNL     1      38.862 -16.290  -4.624  1.00  0.00     0.210 C 
ENDBRANCH  19  24
ENDBRANCH  13  16
ENDBRANCH   4  12
ENDBRANCH   1   4
BRANCH   1  26
HETATM   26  C   UNL     1      39.480 -13.437   5.670  1.00  0.00     0.192 C 
BRANCH  26  27
HETATM   27  C   UNL     1      40.295 -12.395   6.343  1.00  0.00     0.070 A 
HETATM   28  O   UNL     1      39.586 -11.596   7.194  1.00  0.00    -0.325 OA
HETATM   29  C   UNL     1      40.452 -10.700   7.730  1.00  0.00     0.142 A 
HETATM   30  C   UNL     1      41.716 -10.903   7.231  1.00  0.00     0.027 A 
HETATM   31  C   UNL     1      41.617 -11.995   6.333  1.00  0.00     0.036 A 
ENDBRANCH  26  27
ENDBRANCH   1  26
BRANCH   2  32
HETATM   32  C   UNL     1      41.161 -15.854   5.140  1.00  0.00     0.228 C 
BRANCH  32  33
HETATM   33  N   UNL     1      42.326 -16.704   4.941  1.00  0.00    -0.347 N 
HETATM   34  C   UNL     1      43.487 -16.759   5.710  1.00  0.00     0.171 C 
HETATM   35  S   UNL     1      43.901 -15.844   7.025  1.00  0.00    -0.041 SA
HETATM   36  N   UNL     1      44.312 -17.739   5.166  1.00  0.00    -0.357 N 
HETATM   37  C   UNL     1      43.822 -18.135   3.865  1.00  0.00     0.135 C 
HETATM   38  H   UNL     1      45.280 -17.819   5.452  1.00  0.00     0.162 HD
HETATM   39  C   UNL     1      42.340 -17.753   3.935  1.00  0.00     0.155 C 
BRANCH  37  40
HETATM   40  C   UNL     1      44.067 -19.570   3.494  1.00  0.00    -0.034 A 
HETATM   41  C   UNL     1      44.640 -20.483   4.391  1.00  0.00     0.009 A 
HETATM   42  C   UNL     1      44.812 -21.821   4.028  1.00  0.00     0.001 A 
HETATM   43  C   UNL     1      44.407 -22.264   2.770  1.00  0.00     0.000 A 
HETATM   44  C   UNL     1      43.831 -21.370   1.871  1.00  0.00     0.001 A 
HETATM   45  C   UNL     1      43.661 -20.033   2.231  1.00  0.00     0.009 A 
ENDBRANCH  37  40
ENDBRANCH  32  33
ENDBRANCH   2  32
TORSDOF 10
ENDMDL
MODEL 3
REMARK VINA RESULT:      -8.2      1.960      4.340
REMARK  10 active torsions:
REMARK  status: ('A' for Active; 'I' for Inactive)
REMARK    1  A    between atoms: C_6  and  N_7 
REMARK    2  A    between atoms: C_6  and  C_29 
REMARK       I    between atoms: N_7  and  C_8 
REMARK    3  A    between atoms: N_7  and  C_23 
REMARK    4  A    between atoms: C_8  and  C_9 
REMARK    5  A    between atoms: C_9  and  N_10 
REMARK    6  A    between atoms: C_14  and  C_15 
REMARK    7  A    between atoms: C_23  and  C_24 
REMARK       I    between atoms: C_29  and  N_30 
REMARK    8  A    between atoms: N_30  and  C_31 
REMARK    9  A    between atoms: C_32  and  O_33 
REMARK   10  A    between atoms: C_36  and  O_37 
ROOT
HETATM    1  N   UNL     1      41.156 -15.427   1.616  1.00  0.00    -0.326 N 
HETATM    2  C   UNL     1      40.954 -15.318   0.218  1.00  0.00     0.239 C 
HETATM    3  O   UNL     1      41.403 -16.159  -0.560  1.00  0.00    -0.271 OA
ENDROOT
BRANCH   1   4
HETATM    4  C   UNL     1      42.201 -16.400   2.115  1.00  0.00     0.120 C 
HETATM    5  C   UNL     1      41.555 -17.595   2.861  1.00  0.00     0.069 C 
HETATM    6  C   UNL     1      42.543 -18.676   3.292  1.00  0.00     0.237 C 
HETATM    7  N   UNL     1      43.422 -19.096   2.144  1.00  0.00    -0.075 N 
HETATM    8  C   UNL     1      44.403 -20.156   2.582  1.00  0.00     0.269 C 
HETATM    9  H   UNL     1      42.815 -19.533   1.433  1.00  0.00     0.279 HD
HETATM   10  C   UNL     1      44.133 -17.945   1.486  1.00  0.00     0.237 C 
HETATM   11  C   UNL     1      43.104 -16.948   0.969  1.00  0.00     0.069 C 
BRANCH   4  12
HETATM   12  C   UNL     1      43.179 -15.620   3.063  1.00  0.00     0.251 C 
HETATM   13  N   UNL     1      42.932 -15.844   4.399  1.00  0.00    -0.323 N 
HETATM   14  H   UNL     1      42.287 -16.591   4.649  1.00  0.00     0.169 HD
HETATM   15  O   UNL     1      43.950 -14.779   2.609  1.00  0.00    -0.270 OA
BRANCH  13  16
HETATM   16  C   UNL     1      43.436 -15.147   5.520  1.00  0.00     0.068 A 
HETATM   17  C   UNL     1      43.925 -15.932   6.587  1.00  0.00     0.097 A 
HETATM   18  C   UNL     1      44.415 -15.317   7.745  1.00  0.00     0.075 A 
HETATM   19  C   UNL     1      44.420 -13.924   7.846  1.00  0.00     0.070 A 
HETATM   20  C   UNL     1      43.930 -13.156   6.789  1.00  0.00     0.039 A 
HETATM   21  C   UNL     1      43.444 -13.759   5.628  1.00  0.00     0.035 A 
BRANCH  17  22
HETATM   22  O   UNL     1      43.845 -17.295   6.391  1.00  0.00    -0.354 OA
HETATM   23  C   UNL     1      45.069 -18.025   6.406  1.00  0.00     0.210 C 
ENDBRANCH  17  22
BRANCH  19  24
HETATM   24  O   UNL     1      44.856 -13.196   8.917  1.00  0.00    -0.356 OA
HETATM   25  C   UNL     1      45.803 -12.165   8.664  1.00  0.00     0.210 C 
ENDBRANCH  19  24
ENDBRANCH  13  16
ENDBRANCH   4  12
ENDBRANCH   1   4
BRANCH   1  26
HETATM   26  C   UNL     1      39.918 -15.340   2.419  1.00  0.00     0.192 C 
BRANCH  26  27
HETATM   27  C   UNL     1      39.914 -14.245   3.420  1.00  0.00     0.070 A 
HETATM   28  O   UNL     1      39.873 -14.675   4.716  1.00  0.00    -0.325 OA
HETATM   29  C   UNL     1      39.874 -13.576   5.512  1.00  0.00     0.142 A 
HETATM   30  C   UNL     1      39.908 -12.435   4.746  1.00  0.00     0.027 A 
HETATM   31  C   UNL     1      39.931 -12.864   3.396  1.00  0.00     0.036 A 
ENDBRANCH  26  27
ENDBRANCH   1  26
BRANCH   2  32
HETATM   32  C   UNL     1      40.231 -14.036  -0.255  1.00  0.00     0.228 C 
BRANCH  32  33
HETATM   33  N   UNL     1      41.005 -13.204  -1.165  1.00  0.00    -0.347 N 
HETATM   34  C   UNL     1      41.054 -13.273  -2.557  1.00  0.00     0.171 C 
HETATM   35  S   UNL     1      40.300 -14.346  -3.566  1.00  0.00    -0.041 SA
HETATM   36  N   UNL     1      41.900 -12.263  -3.004  1.00  0.00    -0.357 N 
HETATM   37  C   UNL     1      42.638 -11.705  -1.894  1.00  0.00     0.135 C 
HETATM   38  H   UNL     1      42.225 -12.246  -3.963  1.00  0.00     0.162 HD
HETATM   39  C   UNL     1      41.749 -12.048  -0.693  1.00  0.00     0.155 C 
BRANCH  37  40
HETATM   40  C   UNL     1      42.973 -10.245  -2.010  1.00  0.00    -0.034 A 
HETATM   41  C   UNL     1      42.341  -9.410  -2.943  1.00  0.00     0.009 A 
HETATM   42  C   UNL     1      42.644  -8.047  -2.994  1.00  0.00     0.001 A 
HETATM   43  C   UNL     1      43.573  -7.502  -2.109  1.00  0.00     0.000 A 
HETATM   44  C   UNL     1      44.203  -8.318  -1.173  1.00  0.00     0.001 A 
HETATM   45  C   UNL     1      43.904  -9.680  -1.123  1.00  0.00     0.009 A 
ENDBRANCH  37  40
ENDBRANCH  32  33
ENDBRANCH   2  32
TORSDOF 10
ENDMDL
MODEL 4
REMARK VINA RESULT:      -8.0      3.046      9.210
REMARK  10 active torsions:
REMARK  status: ('A' for Active; 'I' for Inactive)
REMARK    1  A    between atoms: C_6  and  N_7 
REMARK    2  A    between atoms: C_6  and  C_29 
REMARK       I    between atoms: N_7  and  C_8 
REMARK    3  A    between atoms: N_7  and  C_23 
REMARK    4  A    between atoms: C_8  and  C_9 
REMARK    5  A    between atoms: C_9  and  N_10 
REMARK    6  A    between atoms: C_14  and  C_15 
REMARK    7  A    between atoms: C_23  and  C_24 
REMARK       I    between atoms: C_29  and  N_30 
REMARK    8  A    between atoms: N_30  and  C_31 
REMARK    9  A    between atoms: C_32  and  O_33 
REMARK   10  A    between atoms: C_36  and  O_37 
ROOT
HETATM    1  N   UNL     1      41.071 -13.831   1.377  1.00  0.00    -0.326 N 
HETATM    2  C   UNL     1      40.807 -15.204   1.153  1.00  0.00     0.239 C 
HETATM    3  O   UNL     1      40.890 -15.695   0.028  1.00  0.00    -0.271 OA
ENDROOT
BRANCH   1   4
HETATM    4  C   UNL     1      41.130 -12.908   0.180  1.00  0.00     0.120 C 
HETATM    5  C   UNL     1      41.769 -11.544   0.545  1.00  0.00     0.069 C 
HETATM    6  C   UNL     1      41.967 -10.605  -0.642  1.00  0.00     0.237 C 
HETATM    7  N   UNL     1      42.665 -11.304  -1.778  1.00  0.00    -0.075 N 
HETATM    8  C   UNL     1      42.846 -10.372  -2.950  1.00  0.00     0.269 C 
HETATM    9  H   UNL     1      43.612 -11.554  -1.452  1.00  0.00     0.279 HD
HETATM   10  C   UNL     1      41.984 -12.577  -2.202  1.00  0.00     0.237 C 
HETATM   11  C   UNL     1      41.912 -13.529  -1.016  1.00  0.00     0.069 C 
BRANCH   4  12
HETATM   12  C   UNL     1      39.667 -12.708  -0.353  1.00  0.00     0.251 C 
HETATM   13  N   UNL     1      39.422 -13.385  -1.527  1.00  0.00    -0.323 N 
HETATM   14  H   UNL     1      40.113 -14.063  -1.843  1.00  0.00     0.169 HD
HETATM   15  O   UNL     1      38.919 -11.887   0.168  1.00  0.00    -0.270 OA
BRANCH  13  16
HETATM   16  C   UNL     1      38.327 -13.256  -2.410  1.00  0.00     0.068 A 
HETATM   17  C   UNL     1      38.073 -14.348  -3.269  1.00  0.00     0.097 A 
HETATM   18  C   UNL     1      37.023 -14.285  -4.193  1.00  0.00     0.075 A 
HETATM   19  C   UNL     1      36.225 -13.142  -4.265  1.00  0.00     0.070 A 
HETATM   20  C   UNL     1      36.486 -12.066  -3.416  1.00  0.00     0.039 A 
HETATM   21  C   UNL     1      37.527 -12.119  -2.488  1.00  0.00     0.035 A 
BRANCH  17  22
HETATM   22  O   UNL     1      38.940 -15.411  -3.130  1.00  0.00    -0.354 OA
HETATM   23  C   UNL     1      39.093 -16.274  -4.255  1.00  0.00     0.210 C 
ENDBRANCH  17  22
BRANCH  19  24
HETATM   24  O   UNL     1      35.179 -12.943  -5.123  1.00  0.00    -0.356 OA
HETATM   25  C   UNL     1      35.328 -13.421  -6.454  1.00  0.00     0.210 C 
ENDBRANCH  19  24
ENDBRANCH  13  16
ENDBRANCH   4  12
ENDBRANCH   1   4
BRANCH   1  26
HETATM   26  C   UNL     1      42.056 -13.566   2.447  1.00  0.00     0.192 C 
BRANCH  26  27
HETATM   27  C   UNL     1      41.478 -12.966   3.675  1.00  0.00     0.070 A 
HETATM   28  O   UNL     1      42.388 -12.745   4.670  1.00  0.00    -0.325 OA
HETATM   29  C   UNL     1      41.724 -12.200   5.719  1.00  0.00     0.142 A 
HETATM   30  C   UNL     1      40.389 -12.072   5.421  1.00  0.00     0.027 A 
HETATM   31  C   UNL     1      40.227 -12.568   4.103  1.00  0.00     0.036 A 
ENDBRANCH  26  27
ENDBRANCH   1  26
BRANCH   2  32
HETATM   32  C   UNL     1      40.321 -16.001   2.385  1.00  0.00     0.228 C 
BRANCH  32  33
HETATM   33  N   UNL     1      41.344 -16.818   3.021  1.00  0.00    -0.347 N 
HETATM   34  C   UNL     1      41.660 -16.892   4.377  1.00  0.00     0.171 C 
HETATM   35  S   UNL     1      41.010 -16.042   5.639  1.00  0.00    -0.041 SA
HETATM   36  N   UNL     1      42.681 -17.826   4.526  1.00  0.00    -0.357 N 
HETATM   37  C   UNL     1      43.240 -18.161   3.236  1.00  0.00     0.135 C 
HETATM   38  H   UNL     1      43.190 -17.904   5.398  1.00  0.00     0.162 HD
HETATM   39  C   UNL     1      42.099 -17.810   2.275  1.00  0.00     0.155 C 
BRANCH  37  40
HETATM   40  C   UNL     1      43.746 -19.569   3.098  1.00  0.00    -0.034 A 
HETATM   41  C   UNL     1      44.354 -20.248   4.163  1.00  0.00     0.009 A 
HETATM   42  C   UNL     1      44.772 -21.573   4.013  1.00  0.00     0.001 A 
HETATM   43  C   UNL     1      44.579 -22.237   2.803  1.00  0.00     0.000 A 
HETATM   44  C   UNL     1      43.970 -21.577   1.738  1.00  0.00     0.001 A 
HETATM   45  C   UNL     1      43.555 -20.253   1.886  1.00  0.00     0.009 A 
ENDBRANCH  37  40
ENDBRANCH  32  33
ENDBRANCH   2  32
TORSDOF 10
ENDMDL
MODEL 5
REMARK VINA RESULT:      -8.0      3.056      9.511
REMARK  10 active torsions:
REMARK  status: ('A' for Active; 'I' for Inactive)
REMARK    1  A    between atoms: C_6  and  N_7 
REMARK    2  A    between atoms: C_6  and  C_29 
REMARK       I    between atoms: N_7  and  C_8 
REMARK    3  A    between atoms: N_7  and  C_23 
REMARK    4  A    between atoms: C_8  and  C_9 
REMARK    5  A    between atoms: C_9  and  N_10 
REMARK    6  A    between atoms: C_14  and  C_15 
REMARK    7  A    between atoms: C_23  and  C_24 
REMARK       I    between atoms: C_29  and  N_30 
REMARK    8  A    between atoms: N_30  and  C_31 
REMARK    9  A    between atoms: C_32  and  O_33 
REMARK   10  A    between atoms: C_36  and  O_37 
ROOT
HETATM    1  N   UNL     1      40.996 -14.038   0.703  1.00  0.00    -0.326 N 
HETATM    2  C   UNL     1      41.090 -15.451   0.726  1.00  0.00     0.239 C 
HETATM    3  O   UNL     1      41.369 -16.089  -0.288  1.00  0.00    -0.271 OA
ENDROOT
BRANCH   1   4
HETATM    4  C   UNL     1      40.916 -13.347  -0.640  1.00  0.00     0.120 C 
HETATM    5  C   UNL     1      41.608 -11.960  -0.609  1.00  0.00     0.069 C 
HETATM    6  C   UNL     1      41.667 -11.256  -1.961  1.00  0.00     0.237 C 
HETATM    7  N   UNL     1      42.213 -12.170  -3.026  1.00  0.00    -0.075 N 
HETATM    8  C   UNL     1      42.256 -11.469  -4.362  1.00  0.00     0.269 C 
HETATM    9  H   UNL     1      43.190 -12.387  -2.776  1.00  0.00     0.279 HD
HETATM   10  C   UNL     1      41.472 -13.476  -3.128  1.00  0.00     0.237 C 
HETATM   11  C   UNL     1      41.538 -14.197  -1.788  1.00  0.00     0.069 C 
BRANCH   4  12
HETATM   12  C   UNL     1      39.400 -13.200  -1.022  1.00  0.00     0.251 C 
HETATM   13  N   UNL     1      38.851 -12.007  -0.607  1.00  0.00    -0.323 N 
HETATM   14  H   UNL     1      39.479 -11.283  -0.264  1.00  0.00     0.169 HD
HETATM   15  O   UNL     1      38.778 -14.150  -1.486  1.00  0.00    -0.270 OA
BRANCH  13  16
HETATM   16  C   UNL     1      37.490 -11.630  -0.559  1.00  0.00     0.068 A 
HETATM   17  C   UNL     1      36.953 -11.044  -1.726  1.00  0.00     0.097 A 
HETATM   18  C   UNL     1      35.620 -10.617  -1.748  1.00  0.00     0.075 A 
HETATM   19  C   UNL     1      34.820 -10.770  -0.614  1.00  0.00     0.070 A 
HETATM   20  C   UNL     1      35.360 -11.346   0.536  1.00  0.00     0.039 A 
HETATM   21  C   UNL     1      36.686 -11.779   0.568  1.00  0.00     0.035 A 
BRANCH  17  22
HETATM   22  O   UNL     1      37.840 -10.916  -2.774  1.00  0.00    -0.354 OA
HETATM   23  C   UNL     1      37.566 -11.669  -3.952  1.00  0.00     0.210 C 
ENDBRANCH  17  22
BRANCH  19  24
HETATM   24  O   UNL     1      33.513 -10.390  -0.495  1.00  0.00    -0.356 OA
HETATM   25  C   UNL     1      32.996 -10.236   0.822  1.00  0.00     0.210 C 
ENDBRANCH  19  24
ENDBRANCH  13  16
ENDBRANCH   4  12
ENDBRANCH   1   4
BRANCH   1  26
HETATM   26  C   UNL     1      41.809 -13.356   1.733  1.00  0.00     0.192 C 
BRANCH  26  27
HETATM   27  C   UNL     1      41.018 -12.579   2.720  1.00  0.00     0.070 A 
HETATM   28  O   UNL     1      39.676 -12.561   2.470  1.00  0.00    -0.325 OA
HETATM   29  C   UNL     1      39.088 -11.821   3.442  1.00  0.00     0.142 A 
HETATM   30  C   UNL     1      40.035 -11.351   4.319  1.00  0.00     0.027 A 
HETATM   31  C   UNL     1      41.282 -11.836   3.854  1.00  0.00     0.036 A 
ENDBRANCH  26  27
ENDBRANCH   1  26
BRANCH   2  32
HETATM   32  C   UNL     1      40.723 -16.123   2.069  1.00  0.00     0.228 C 
BRANCH  32  33
HETATM   33  N   UNL     1      41.812 -16.861   2.694  1.00  0.00    -0.347 N 
HETATM   34  C   UNL     1      42.401 -16.629   3.936  1.00  0.00     0.171 C 
HETATM   35  S   UNL     1      42.079 -15.426   5.026  1.00  0.00    -0.041 SA
HETATM   36  N   UNL     1      43.378 -17.600   4.132  1.00  0.00    -0.357 N 
HETATM   37  C   UNL     1      43.635 -18.303   2.896  1.00  0.00     0.135 C 
HETATM   38  H   UNL     1      44.054 -17.512   4.881  1.00  0.00     0.162 HD
HETATM   39  C   UNL     1      42.338 -18.083   2.109  1.00  0.00     0.155 C 
BRANCH  37  40
HETATM   40  C   UNL     1      44.022 -19.747   3.044  1.00  0.00    -0.034 A 
HETATM   41  C   UNL     1      44.570 -20.252   4.232  1.00  0.00     0.009 A 
HETATM   42  C   UNL     1      44.878 -21.610   4.351  1.00  0.00     0.001 A 
HETATM   43  C   UNL     1      44.633 -22.479   3.289  1.00  0.00     0.000 A 
HETATM   44  C   UNL     1      44.083 -21.994   2.106  1.00  0.00     0.001 A 
HETATM   45  C   UNL     1      43.779 -20.637   1.985  1.00  0.00     0.009 A 
ENDBRANCH  37  40
ENDBRANCH  32  33
ENDBRANCH   2  32
TORSDOF 10
ENDMDL
MODEL 6
REMARK VINA RESULT:      -7.9      2.864      8.715
REMARK  10 active torsions:
REMARK  status: ('A' for Active; 'I' for Inactive)
REMARK    1  A    between atoms: C_6  and  N_7 
REMARK    2  A    between atoms: C_6  and  C_29 
REMARK       I    between atoms: N_7  and  C_8 
REMARK    3  A    between atoms: N_7  and  C_23 
REMARK    4  A    between atoms: C_8  and  C_9 
REMARK    5  A    between atoms: C_9  and  N_10 
REMARK    6  A    between atoms: C_14  and  C_15 
REMARK    7  A    between atoms: C_23  and  C_24 
REMARK       I    between atoms: C_29  and  N_30 
REMARK    8  A    between atoms: N_30  and  C_31 
REMARK    9  A    between atoms: C_32  and  O_33 
REMARK   10  A    between atoms: C_36  and  O_37 
ROOT
HETATM    1  N   UNL     1      41.268 -13.487   3.332  1.00  0.00    -0.326 N 
HETATM    2  C   UNL     1      41.545 -14.836   3.000  1.00  0.00     0.239 C 
HETATM    3  O   UNL     1      41.853 -15.161   1.853  1.00  0.00    -0.271 OA
ENDROOT
BRANCH   1   4
HETATM    4  C   UNL     1      41.032 -12.505   2.206  1.00  0.00     0.120 C 
HETATM    5  C   UNL     1      40.668 -11.098   2.744  1.00  0.00     0.069 C 
HETATM    6  C   UNL     1      40.530 -10.028   1.665  1.00  0.00     0.237 C 
HETATM    7  N   UNL     1      41.724 -10.024   0.749  1.00  0.00    -0.075 N 
HETATM    8  C   UNL     1      41.573  -8.971  -0.321  1.00  0.00     0.269 C 
HETATM    9  H   UNL     1      42.546  -9.755   1.312  1.00  0.00     0.279 HD
HETATM   10  C   UNL     1      42.014 -11.370   0.142  1.00  0.00     0.237 C 
HETATM   11  C   UNL     1      42.260 -12.380   1.255  1.00  0.00     0.069 C 
BRANCH   4  12
HETATM   12  C   UNL     1      39.877 -13.068   1.303  1.00  0.00     0.251 C 
HETATM   13  N   UNL     1      40.327 -13.583   0.108  1.00  0.00    -0.323 N 
HETATM   14  H   UNL     1      41.329 -13.712  -0.012  1.00  0.00     0.169 HD
HETATM   15  O   UNL     1      38.702 -12.884   1.606  1.00  0.00    -0.270 OA
BRANCH  13  16
HETATM   16  C   UNL     1      39.579 -13.949  -1.033  1.00  0.00     0.068 A 
HETATM   17  C   UNL     1      40.314 -14.311  -2.184  1.00  0.00     0.097 A 
HETATM   18  C   UNL     1      39.646 -14.658  -3.364  1.00  0.00     0.075 A 
HETATM   19  C   UNL     1      38.250 -14.647  -3.404  1.00  0.00     0.070 A 
HETATM   20  C   UNL     1      37.531 -14.284  -2.265  1.00  0.00     0.039 A 
HETATM   21  C   UNL     1      38.187 -13.940  -1.082  1.00  0.00     0.035 A 
BRANCH  17  22
HETATM   22  O   UNL     1      41.684 -14.259  -2.039  1.00  0.00    -0.354 OA
HETATM   23  C   UNL     1      42.386 -13.316  -2.845  1.00  0.00     0.210 C 
ENDBRANCH  17  22
BRANCH  19  24
HETATM   24  O   UNL     1      37.474 -14.951  -4.487  1.00  0.00    -0.356 OA
HETATM   25  C   UNL     1      36.219 -14.290  -4.597  1.00  0.00     0.210 C 
ENDBRANCH  19  24
ENDBRANCH  13  16
ENDBRANCH   4  12
ENDBRANCH   1   4
BRANCH   1  26
HETATM   26  C   UNL     1      42.036 -12.974   4.487  1.00  0.00     0.192 C 
BRANCH  26  27
HETATM   27  C   UNL     1      41.198 -12.447   5.592  1.00  0.00     0.070 A 
HETATM   28  O   UNL     1      39.982 -13.057   5.711  1.00  0.00    -0.325 OA
HETATM   29  C   UNL     1      39.333 -12.477   6.751  1.00  0.00     0.142 A 
HETATM   30  C   UNL     1      40.111 -11.489   7.305  1.00  0.00     0.027 A 
HETATM   31  C   UNL     1      41.315 -11.466   6.557  1.00  0.00     0.036 A 
ENDBRANCH  26  27
ENDBRANCH   1  26
BRANCH   2  32
HETATM   32  C   UNL     1      41.336 -15.861   4.137  1.00  0.00     0.228 C 
BRANCH  32  33
HETATM   33  N   UNL     1      42.443 -16.786   4.330  1.00  0.00    -0.347 N 
HETATM   34  C   UNL     1      43.398 -16.780   5.346  1.00  0.00     0.171 C 
HETATM   35  S   UNL     1      43.584 -15.697   6.584  1.00  0.00    -0.041 SA
HETATM   36  N   UNL     1      44.241 -17.869   5.146  1.00  0.00    -0.357 N 
HETATM   37  C   UNL     1      44.020 -18.433   3.834  1.00  0.00     0.135 C 
HETATM   38  H   UNL     1      45.112 -17.951   5.655  1.00  0.00     0.162 HD
HETATM   39  C   UNL     1      42.595 -17.974   3.506  1.00  0.00     0.155 C 
BRANCH  37  40
HETATM   40  C   UNL     1      44.225 -19.917   3.727  1.00  0.00    -0.034 A 
HETATM   41  C   UNL     1      44.071 -20.604   2.515  1.00  0.00     0.009 A 
HETATM   42  C   UNL     1      44.313 -21.978   2.441  1.00  0.00     0.001 A 
HETATM   43  C   UNL     1      44.719 -22.680   3.576  1.00  0.00     0.000 A 
HETATM   44  C   UNL     1      44.883 -22.010   4.785  1.00  0.00     0.001 A 
HETATM   45  C   UNL     1      44.639 -20.638   4.860  1.00  0.00     0.009 A 
ENDBRANCH  37  40
ENDBRANCH  32  33
ENDBRANCH   2  32
TORSDOF 10
ENDMDL
MODEL 7
REMARK VINA RESULT:      -7.9      2.856      9.136
REMARK  10 active torsions:
REMARK  status: ('A' for Active; 'I' for Inactive)
REMARK    1  A    between atoms: C_6  and  N_7 
REMARK    2  A    between atoms: C_6  and  C_29 
REMARK       I    between atoms: N_7  and  C_8 
REMARK    3  A    between atoms: N_7  and  C_23 
REMARK    4  A    between atoms: C_8  and  C_9 
REMARK    5  A    between atoms: C_9  and  N_10 
REMARK    6  A    between atoms: C_14  and  C_15 
REMARK    7  A    between atoms: C_23  and  C_24 
REMARK       I    between atoms: C_29  and  N_30 
REMARK    8  A    between atoms: N_30  and  C_31 
REMARK    9  A    between atoms: C_32  and  O_33 
REMARK   10  A    between atoms: C_36  and  O_37 
ROOT
HETATM    1  N   UNL     1      41.907 -14.097   2.662  1.00  0.00    -0.326 N 
HETATM    2  C   UNL     1      43.008 -14.931   2.977  1.00  0.00     0.239 C 
HETATM    3  O   UNL     1      43.696 -15.441   2.094  1.00  0.00    -0.271 OA
ENDROOT
BRANCH   1   4
HETATM    4  C   UNL     1      41.385 -14.105   1.242  1.00  0.00     0.120 C 
HETATM    5  C   UNL     1      42.086 -13.030   0.373  1.00  0.00     0.069 C 
HETATM    6  C   UNL     1      41.691 -13.059  -1.101  1.00  0.00     0.237 C 
HETATM    7  N   UNL     1      41.805 -14.449  -1.667  1.00  0.00    -0.075 N 
HETATM    8  C   UNL     1      41.402 -14.470  -3.121  1.00  0.00     0.269 C 
HETATM    9  H   UNL     1      42.801 -14.716  -1.634  1.00  0.00     0.279 HD
HETATM   10  C   UNL     1      41.037 -15.477  -0.881  1.00  0.00     0.237 C 
HETATM   11  C   UNL     1      41.544 -15.494   0.555  1.00  0.00     0.069 C 
BRANCH   4  12
HETATM   12  C   UNL     1      39.836 -13.853   1.292  1.00  0.00     0.251 C 
HETATM   13  N   UNL     1      39.477 -12.601   0.844  1.00  0.00    -0.323 N 
HETATM   14  H   UNL     1      40.184 -12.038   0.377  1.00  0.00     0.169 HD
HETATM   15  O   UNL     1      39.090 -14.656   1.844  1.00  0.00    -0.270 OA
BRANCH  13  16
HETATM   16  C   UNL     1      38.232 -11.944   0.962  1.00  0.00     0.068 A 
HETATM   17  C   UNL     1      38.189 -10.817   1.812  1.00  0.00     0.097 A 
HETATM   18  C   UNL     1      36.985 -10.129   2.006  1.00  0.00     0.075 A 
HETATM   19  C   UNL     1      35.825 -10.556   1.357  1.00  0.00     0.070 A 
HETATM   20  C   UNL     1      35.876 -11.673   0.522  1.00  0.00     0.039 A 
HETATM   21  C   UNL     1      37.071 -12.364   0.319  1.00  0.00     0.035 A 
BRANCH  17  22
HETATM   22  O   UNL     1      39.385 -10.503   2.423  1.00  0.00    -0.354 OA
HETATM   23  C   UNL     1      39.326  -9.659   3.570  1.00  0.00     0.210 C 
ENDBRANCH  17  22
BRANCH  19  24
HETATM   24  O   UNL     1      34.587  -9.987   1.464  1.00  0.00    -0.356 OA
HETATM   25  C   UNL     1      33.651 -10.263   0.428  1.00  0.00     0.210 C 
ENDBRANCH  19  24
ENDBRANCH  13  16
ENDBRANCH   4  12
ENDBRANCH   1   4
BRANCH   1  26
HETATM   26  C   UNL     1      41.926 -12.782   3.337  1.00  0.00     0.192 C 
BRANCH  26  27
HETATM   27  C   UNL     1      41.032 -12.687   4.517  1.00  0.00     0.070 A 
HETATM   28  O   UNL     1      41.507 -11.883   5.514  1.00  0.00    -0.325 OA
HETATM   29  C   UNL     1      40.595 -11.893   6.517  1.00  0.00     0.142 A 
HETATM   30  C   UNL     1      39.534 -12.702   6.188  1.00  0.00     0.027 A 
HETATM   31  C   UNL     1      39.815 -13.218   4.898  1.00  0.00     0.036 A 
ENDBRANCH  26  27
ENDBRANCH   1  26
BRANCH   2  32
HETATM   32  C   UNL     1      43.213 -15.228   4.480  1.00  0.00     0.228 C 
BRANCH  32  33
HETATM   33  N   UNL     1      43.153 -16.639   4.833  1.00  0.00    -0.347 N 
HETATM   34  C   UNL     1      42.164 -17.298   5.562  1.00  0.00     0.171 C 
HETATM   35  S   UNL     1      40.815 -16.666   6.281  1.00  0.00    -0.041 SA
HETATM   36  N   UNL     1      42.507 -18.645   5.624  1.00  0.00    -0.357 N 
HETATM   37  C   UNL     1      43.871 -18.831   5.182  1.00  0.00     0.135 C 
HETATM   38  H   UNL     1      42.030 -19.273   6.259  1.00  0.00     0.162 HD
HETATM   39  C   UNL     1      44.111 -17.596   4.307  1.00  0.00     0.155 C 
BRANCH  37  40
HETATM   40  C   UNL     1      44.152 -20.135   4.491  1.00  0.00    -0.034 A 
HETATM   41  C   UNL     1      44.098 -20.264   3.096  1.00  0.00     0.009 A 
HETATM   42  C   UNL     1      44.409 -21.480   2.482  1.00  0.00     0.001 A 
HETATM   43  C   UNL     1      44.787 -22.578   3.255  1.00  0.00     0.000 A 
HETATM   44  C   UNL     1      44.851 -22.463   4.641  1.00  0.00     0.001 A 
HETATM   45  C   UNL     1      44.537 -21.250   5.254  1.00  0.00     0.009 A 
ENDBRANCH  37  40
ENDBRANCH  32  33
ENDBRANCH   2  32
TORSDOF 10
ENDMDL
MODEL 8
REMARK VINA RESULT:      -7.8      2.113      3.108
REMARK  10 active torsions:
REMARK  status: ('A' for Active; 'I' for Inactive)
REMARK    1  A    between atoms: C_6  and  N_7 
REMARK    2  A    between atoms: C_6  and  C_29 
REMARK       I    between atoms: N_7  and  C_8 
REMARK    3  A    between atoms: N_7  and  C_23 
REMARK    4  A    between atoms: C_8  and  C_9 
REMARK    5  A    between atoms: C_9  and  N_10 
REMARK    6  A    between atoms: C_14  and  C_15 
REMARK    7  A    between atoms: C_23  and  C_24 
REMARK       I    between atoms: C_29  and  N_30 
REMARK    8  A    between atoms: N_30  and  C_31 
REMARK    9  A    between atoms: C_32  and  O_33 
REMARK   10  A    between atoms: C_36  and  O_37 
ROOT
HETATM    1  N   UNL     1      41.374 -13.600   3.044  1.00  0.00    -0.326 N 
HETATM    2  C   UNL     1      40.188 -14.164   2.513  1.00  0.00     0.239 C 
HETATM    3  O   UNL     1      39.675 -15.162   3.018  1.00  0.00    -0.271 OA
ENDROOT
BRANCH   1   4
HETATM    4  C   UNL     1      42.182 -14.421   4.024  1.00  0.00     0.120 C 
HETATM    5  C   UNL     1      43.236 -13.554   4.759  1.00  0.00     0.069 C 
HETATM    6  C   UNL     1      44.009 -14.293   5.847  1.00  0.00     0.237 C 
HETATM    7  N   UNL     1      43.076 -15.016   6.782  1.00  0.00    -0.075 N 
HETATM    8  C   UNL     1      43.850 -15.752   7.847  1.00  0.00     0.269 C 
HETATM    9  H   UNL     1      42.512 -14.302   7.269  1.00  0.00     0.279 HD
HETATM   10  C   UNL     1      42.122 -15.939   6.075  1.00  0.00     0.237 C 
HETATM   11  C   UNL     1      41.290 -15.138   5.081  1.00  0.00     0.069 C 
BRANCH   4  12
HETATM   12  C   UNL     1      42.878 -15.581   3.228  1.00  0.00     0.251 C 
HETATM   13  N   UNL     1      42.373 -16.826   3.534  1.00  0.00    -0.323 N 
HETATM   14  H   UNL     1      41.520 -16.874   4.086  1.00  0.00     0.169 HD
HETATM   15  O   UNL     1      43.878 -15.362   2.550  1.00  0.00    -0.270 OA
BRANCH  13  16
HETATM   16  C   UNL     1      42.897 -18.096   3.207  1.00  0.00     0.068 A 
HETATM   17  C   UNL     1      43.891 -18.613   4.067  1.00  0.00     0.097 A 
HETATM   18  C   UNL     1      44.480 -19.853   3.795  1.00  0.00     0.075 A 
HETATM   19  C   UNL     1      44.085 -20.581   2.671  1.00  0.00     0.070 A 
HETATM   20  C   UNL     1      43.106 -20.062   1.823  1.00  0.00     0.039 A 
HETATM   21  C   UNL     1      42.509 -18.828   2.088  1.00  0.00     0.035 A 
BRANCH  17  22
HETATM   22  O   UNL     1      44.223 -17.797   5.128  1.00  0.00    -0.354 OA
HETATM   23  C   UNL     1      45.072 -18.350   6.131  1.00  0.00     0.210 C 
ENDBRANCH  17  22
BRANCH  19  24
HETATM   24  O   UNL     1      44.582 -21.793   2.282  1.00  0.00    -0.356 OA
HETATM   25  C   UNL     1      44.775 -22.775   3.293  1.00  0.00     0.210 C 
ENDBRANCH  19  24
ENDBRANCH  13  16
ENDBRANCH   4  12
ENDBRANCH   1   4
BRANCH   1  26
HETATM   26  C   UNL     1      41.284 -12.152   3.332  1.00  0.00     0.192 C 
BRANCH  26  27
HETATM   27  C   UNL     1      40.559 -11.822   4.583  1.00  0.00     0.070 A 
HETATM   28  O   UNL     1      41.243 -10.989   5.422  1.00  0.00    -0.325 OA
HETATM   29  C   UNL     1      40.466 -10.777   6.513  1.00  0.00     0.142 A 
HETATM   30  C   UNL     1      39.285 -11.471   6.397  1.00  0.00     0.027 A 
HETATM   31  C   UNL     1      39.344 -12.148   5.153  1.00  0.00     0.036 A 
ENDBRANCH  26  27
ENDBRANCH   1  26
BRANCH   2  32
HETATM   32  C   UNL     1      39.654 -13.505   1.220  1.00  0.00     0.228 C 
BRANCH  32  33
HETATM   33  N   UNL     1      40.649 -13.338   0.171  1.00  0.00    -0.347 N 
HETATM   34  C   UNL     1      41.365 -14.330  -0.497  1.00  0.00     0.171 C 
HETATM   35  S   UNL     1      41.337 -15.966  -0.254  1.00  0.00    -0.041 SA
HETATM   36  N   UNL     1      42.177 -13.708  -1.441  1.00  0.00    -0.357 N 
HETATM   37  C   UNL     1      42.213 -12.283  -1.203  1.00  0.00     0.135 C 
HETATM   38  H   UNL     1      42.915 -14.220  -1.908  1.00  0.00     0.162 HD
HETATM   39  C   UNL     1      40.914 -12.040  -0.427  1.00  0.00     0.155 C 
BRANCH  37  40
HETATM   40  C   UNL     1      42.362 -11.428  -2.430  1.00  0.00    -0.034 A 
HETATM   41  C   UNL     1      42.265 -11.961  -3.723  1.00  0.00     0.009 A 
HETATM   42  C   UNL     1      42.364 -11.130  -4.842  1.00  0.00     0.001 A 
HETATM   43  C   UNL     1      42.551  -9.758  -4.681  1.00  0.00     0.000 A 
HETATM   44  C   UNL     1      42.642  -9.214  -3.403  1.00  0.00     0.001 A 
HETATM   45  C   UNL     1      42.546 -10.043  -2.285  1.00  0.00     0.009 A 
ENDBRANCH  37  40
ENDBRANCH  32  33
ENDBRANCH   2  32
TORSDOF 10
ENDMDL
MODEL 9
REMARK VINA RESULT:      -7.7      2.179      3.590
REMARK  10 active torsions:
REMARK  status: ('A' for Active; 'I' for Inactive)
REMARK    1  A    between atoms: C_6  and  N_7 
REMARK    2  A    between atoms: C_6  and  C_29 
REMARK       I    between atoms: N_7  and  C_8 
REMARK    3  A    between atoms: N_7  and  C_23 
REMARK    4  A    between atoms: C_8  and  C_9 
REMARK    5  A    between atoms: C_9  and  N_10 
REMARK    6  A    between atoms: C_14  and  C_15 
REMARK    7  A    between atoms: C_23  and  C_24 
REMARK       I    between atoms: C_29  and  N_30 
REMARK    8  A    between atoms: N_30  and  C_31 
REMARK    9  A    between atoms: C_32  and  O_33 
REMARK   10  A    between atoms: C_36  and  O_37 
ROOT
HETATM    1  N   UNL     1      41.459 -14.615   1.823  1.00  0.00    -0.326 N 
HETATM    2  C   UNL     1      40.759 -14.013   0.748  1.00  0.00     0.239 C 
HETATM    3  O   UNL     1      40.204 -12.923   0.878  1.00  0.00    -0.271 OA
ENDROOT
BRANCH   1   4
HETATM    4  C   UNL     1      41.240 -14.067   3.216  1.00  0.00     0.120 C 
HETATM    5  C   UNL     1      42.365 -13.083   3.624  1.00  0.00     0.069 C 
HETATM    6  C   UNL     1      42.148 -12.403   4.972  1.00  0.00     0.237 C 
HETATM    7  N   UNL     1      40.770 -11.801   5.062  1.00  0.00    -0.075 N 
HETATM    8  C   UNL     1      40.560 -11.142   6.402  1.00  0.00     0.269 C 
HETATM    9  H   UNL     1      40.712 -11.053   4.354  1.00  0.00     0.279 HD
HETATM   10  C   UNL     1      39.671 -12.786   4.769  1.00  0.00     0.237 C 
HETATM   11  C   UNL     1      39.863 -13.353   3.368  1.00  0.00     0.069 C 
BRANCH   4  12
HETATM   12  C   UNL     1      41.178 -15.280   4.211  1.00  0.00     0.251 C 
HETATM   13  N   UNL     1      42.366 -15.496   4.874  1.00  0.00    -0.323 N 
HETATM   14  H   UNL     1      43.091 -14.787   4.803  1.00  0.00     0.169 HD
HETATM   15  O   UNL     1      40.204 -16.026   4.227  1.00  0.00    -0.270 OA
BRANCH  13  16
HETATM   16  C   UNL     1      42.755 -16.613   5.648  1.00  0.00     0.068 A 
HETATM   17  C   UNL     1      43.386 -16.340   6.881  1.00  0.00     0.097 A 
HETATM   18  C   UNL     1      43.827 -17.393   7.692  1.00  0.00     0.075 A 
HETATM   19  C   UNL     1      43.644 -18.714   7.281  1.00  0.00     0.070 A 
HETATM   20  C   UNL     1      43.024 -18.975   6.058  1.00  0.00     0.039 A 
HETATM   21  C   UNL     1      42.576 -17.933   5.244  1.00  0.00     0.035 A 
BRANCH  17  22
HETATM   22  O   UNL     1      43.540 -15.002   7.173  1.00  0.00    -0.354 OA
HETATM   23  C   UNL     1      44.824 -14.429   6.932  1.00  0.00     0.210 C 
ENDBRANCH  17  22
BRANCH  19  24
HETATM   24  O   UNL     1      44.034 -19.832   7.964  1.00  0.00    -0.356 OA
HETATM   25  C   UNL     1      43.612 -21.090   7.452  1.00  0.00     0.210 C 
ENDBRANCH  19  24
ENDBRANCH  13  16
ENDBRANCH   4  12
ENDBRANCH   1   4
BRANCH   1  26
HETATM   26  C   UNL     1      42.842 -15.021   1.498  1.00  0.00     0.192 C 
BRANCH  26  27
HETATM   27  C   UNL     1      43.086 -16.483   1.582  1.00  0.00     0.070 A 
HETATM   28  O   UNL     1      41.948 -17.239   1.582  1.00  0.00    -0.325 OA
HETATM   29  C   UNL     1      42.322 -18.540   1.663  1.00  0.00     0.142 A 
HETATM   30  C   UNL     1      43.691 -18.638   1.724  1.00  0.00     0.027 A 
HETATM   31  C   UNL     1      44.186 -17.311   1.674  1.00  0.00     0.036 A 
ENDBRANCH  26  27
ENDBRANCH   1  26
BRANCH   2  32
HETATM   32  C   UNL     1      40.661 -14.859  -0.542  1.00  0.00     0.228 C 
BRANCH  32  33
HETATM   33  N   UNL     1      41.041 -14.155  -1.759  1.00  0.00    -0.347 N 
HETATM   34  C   UNL     1      40.709 -14.477  -3.074  1.00  0.00     0.171 C 
HETATM   35  S   UNL     1      39.844 -15.771  -3.635  1.00  0.00    -0.041 SA
HETATM   36  N   UNL     1      41.263 -13.506  -3.903  1.00  0.00    -0.357 N 
HETATM   37  C   UNL     1      42.205 -12.698  -3.161  1.00  0.00     0.135 C 
HETATM   38  H   UNL     1      41.304 -13.642  -4.905  1.00  0.00     0.162 HD
HETATM   39  C   UNL     1      41.735 -12.879  -1.714  1.00  0.00     0.155 C 
BRANCH  37  40
HETATM   40  C   UNL     1      42.308 -11.264  -3.597  1.00  0.00    -0.034 A 
HETATM   41  C   UNL     1      42.454 -10.216  -2.677  1.00  0.00     0.009 A 
HETATM   42  C   UNL     1      42.592  -8.898  -3.119  1.00  0.00     0.001 A 
HETATM   43  C   UNL     1      42.595  -8.613  -4.484  1.00  0.00     0.000 A 
HETATM   44  C   UNL     1      42.457  -9.644  -5.409  1.00  0.00     0.001 A 
HETATM   45  C   UNL     1      42.316 -10.961  -4.968  1.00  0.00     0.009 A 
ENDBRANCH  37  40
ENDBRANCH  32  33
ENDBRANCH   2  32
TORSDOF 10
ENDMDL
MODEL 10
REMARK VINA RESULT:      -7.7      2.375      4.132
REMARK  10 active torsions:
REMARK  status: ('A' for Active; 'I' for Inactive)
REMARK    1  A    between atoms: C_6  and  N_7 
REMARK    2  A    between atoms: C_6  and  C_29 
REMARK       I    between atoms: N_7  and  C_8 
REMARK    3  A    between atoms: N_7  and  C_23 
REMARK    4  A    between atoms: C_8  and  C_9 
REMARK    5  A    between atoms: C_9  and  N_10 
REMARK    6  A    between atoms: C_14  and  C_15 
REMARK    7  A    between atoms: C_23  and  C_24 
REMARK       I    between atoms: C_29  and  N_30 
REMARK    8  A    between atoms: N_30  and  C_31 
REMARK    9  A    between atoms: C_32  and  O_33 
REMARK   10  A    between atoms: C_36  and  O_37 
ROOT
HETATM    1  N   UNL     1      41.574 -13.123   4.509  1.00  0.00    -0.326 N 
HETATM    2  C   UNL     1      40.293 -13.285   3.926  1.00  0.00     0.239 C 
HETATM    3  O   UNL     1      39.610 -14.283   4.154  1.00  0.00    -0.271 OA
ENDROOT
BRANCH   1   4
HETATM    4  C   UNL     1      42.230 -14.328   5.145  1.00  0.00     0.120 C 
HETATM    5  C   UNL     1      43.392 -13.915   6.083  1.00  0.00     0.069 C 
HETATM    6  C   UNL     1      44.025 -15.073   6.849  1.00  0.00     0.237 C 
HETATM    7  N   UNL     1      42.976 -15.909   7.534  1.00  0.00    -0.075 N 
HETATM    8  C   UNL     1      43.610 -17.058   8.278  1.00  0.00     0.269 C 
HETATM    9  H   UNL     1      42.521 -15.314   8.243  1.00  0.00     0.279 HD
HETATM   10  C   UNL     1      41.903 -16.399   6.600  1.00  0.00     0.237 C 
HETATM   11  C   UNL     1      41.221 -15.205   5.946  1.00  0.00     0.069 C 
BRANCH   4  12
HETATM   12  C   UNL     1      42.752 -15.261   3.996  1.00  0.00     0.251 C 
HETATM   13  N   UNL     1      42.343 -16.569   4.132  1.00  0.00    -0.323 N 
HETATM   14  H   UNL     1      41.631 -16.779   4.828  1.00  0.00     0.169 HD
HETATM   15  O   UNL     1      43.577 -14.851   3.184  1.00  0.00    -0.270 OA
BRANCH  13  16
HETATM   16  C   UNL     1      42.801 -17.714   3.443  1.00  0.00     0.068 A 
HETATM   17  C   UNL     1      42.183 -17.998   2.205  1.00  0.00     0.097 A 
HETATM   18  C   UNL     1      42.561 -19.132   1.476  1.00  0.00     0.075 A 
HETATM   19  C   UNL     1      43.549 -19.984   1.973  1.00  0.00     0.070 A 
HETATM   20  C   UNL     1      44.151 -19.699   3.199  1.00  0.00     0.039 A 
HETATM   21  C   UNL     1      43.785 -18.569   3.932  1.00  0.00     0.035 A 
BRANCH  17  22
HETATM   22  O   UNL     1      41.202 -17.107   1.827  1.00  0.00    -0.354 OA
HETATM   23  C   UNL     1      41.361 -16.464   0.565  1.00  0.00     0.210 C 
ENDBRANCH  17  22
BRANCH  19  24
HETATM   24  O   UNL     1      44.004 -21.125   1.373  1.00  0.00    -0.356 OA
HETATM   25  C   UNL     1      44.486 -22.160   2.222  1.00  0.00     0.210 C 
ENDBRANCH  19  24
ENDBRANCH  13  16
ENDBRANCH   4  12
ENDBRANCH   1   4
BRANCH   1  26
HETATM   26  C   UNL     1      41.764 -11.837   5.212  1.00  0.00     0.192 C 
BRANCH  26  27
HETATM   27  C   UNL     1      40.892 -11.653   6.399  1.00  0.00     0.070 A 
HETATM   28  O   UNL     1      41.484 -10.980   7.429  1.00  0.00    -0.325 OA
HETATM   29  C   UNL     1      40.578 -10.889   8.433  1.00  0.00     0.142 A 
HETATM   30  C   UNL     1      39.404 -11.503   8.071  1.00  0.00     0.027 A 
HETATM   31  C   UNL     1      39.604 -12.000   6.759  1.00  0.00     0.036 A 
ENDBRANCH  26  27
ENDBRANCH   1  26
BRANCH   2  32
HETATM   32  C   UNL     1      39.870 -12.187   2.924  1.00  0.00     0.228 C 
BRANCH  32  33
HETATM   33  N   UNL     1      40.142 -12.502   1.529  1.00  0.00    -0.347 N 
HETATM   34  C   UNL     1      39.401 -13.317   0.675  1.00  0.00     0.171 C 
HETATM   35  S   UNL     1      38.043 -14.200   1.008  1.00  0.00    -0.041 SA
HETATM   36  N   UNL     1      40.019 -13.300  -0.572  1.00  0.00    -0.357 N 
HETATM   37  C   UNL     1      41.331 -12.703  -0.469  1.00  0.00     0.135 C 
HETATM   38  H   UNL     1      39.757 -13.965  -1.290  1.00  0.00     0.162 HD
HETATM   39  C   UNL     1      41.210 -11.843   0.794  1.00  0.00     0.155 C 
BRANCH  37  40
HETATM   40  C   UNL     1      41.792 -11.946  -1.682  1.00  0.00    -0.034 A 
HETATM   41  C   UNL     1      42.434 -10.703  -1.583  1.00  0.00     0.009 A 
HETATM   42  C   UNL     1      42.890 -10.047  -2.729  1.00  0.00     0.001 A 
HETATM   43  C   UNL     1      42.720 -10.628  -3.984  1.00  0.00     0.000 A 
HETATM   44  C   UNL     1      42.091 -11.865  -4.097  1.00  0.00     0.001 A 
HETATM   45  C   UNL     1      41.632 -12.520  -2.954  1.00  0.00     0.009 A 
ENDBRANCH  37  40
ENDBRANCH  32  33
ENDBRANCH   2  32
TORSDOF 10
ENDMDL
