MODEL 1
REMARK VINA RESULT:      -9.3      0.000      0.000
REMARK  6 active torsions:
REMARK  status: ('A' for Active; 'I' for Inactive)
REMARK    1  A    between atoms: C_2  and  O_3 
REMARK    2  A    between atoms: O_3  and  C_4 
REMARK    3  A    between atoms: C_4  and  C_5 
REMARK    4  A    between atoms: C_10  and  N_11 
REMARK       I    between atoms: N_11  and  C_12 
REMARK    5  A    between atoms: C_12  and  C_13 
REMARK    6  A    between atoms: C_13  and  N_14 
ROOT
HETATM    1  N   UNL     1      43.437 -17.086   3.168  1.00  0.00    -0.322 N 
HETATM    2  C   UNL     1      42.169 -16.829   2.691  1.00  0.00     0.253 C 
HETATM    3  O   UNL     1      41.128 -17.324   3.113  1.00  0.00    -0.271 OA
HETATM    4  H   UNL     1      44.123 -16.330   3.168  1.00  0.00     0.169 HD
ENDROOT
BRANCH   2   5
HETATM    5  C   UNL     1      42.136 -15.764   1.571  1.00  0.00     0.275 C 
HETATM    6  C   UNL     1      41.576 -16.359   0.290  1.00  0.00     0.050 C 
BRANCH   5   7
HETATM    7  N   UNL     1      41.393 -14.462   1.987  1.00  0.00    -0.058 N 
HETATM    8  H   UNL     1      41.432 -14.566   3.013  1.00  0.00     0.281 HD
HETATM    9  C   UNL     1      42.187 -13.196   1.740  1.00  0.00     0.246 C 
HETATM   10  C   UNL     1      41.497 -12.164   0.839  1.00  0.00     0.062 C 
HETATM   11  C   UNL     1      40.073 -11.957   1.329  1.00  0.00     0.020 C 
HETATM   12  C   UNL     1      41.555 -12.573  -0.622  1.00  0.00     0.020 A 
HETATM   13  C   UNL     1      39.309 -13.237   1.051  1.00  0.00     0.031 C 
HETATM   14  C   UNL     1      39.235 -13.459  -0.459  1.00  0.00     0.138 C 
HETATM   15  C   UNL     1      39.885 -14.457   1.774  1.00  0.00     0.242 C 
HETATM   16  N   UNL     1      40.495 -13.295  -1.172  1.00  0.00    -0.317 N 
HETATM   17  C   UNL     1      40.491 -13.725  -2.507  1.00  0.00     0.247 A 
HETATM   18  O   UNL     1      39.571 -14.354  -3.023  1.00  0.00    -0.268 OA
HETATM   19  C   UNL     1      41.692 -13.397  -3.310  1.00  0.00     0.074 A 
HETATM   20  C   UNL     1      42.689 -12.694  -2.761  1.00  0.00     0.007 A 
HETATM   21  C   UNL     1      42.619 -12.267  -1.388  1.00  0.00     0.026 A 
ENDBRANCH   5   7
ENDBRANCH   2   5
BRANCH   1  22
HETATM   22  C   UNL     1      43.777 -18.156   3.987  1.00  0.00     0.080 A 
HETATM   23  C   UNL     1      43.993 -17.985   5.345  1.00  0.00     0.137 A 
HETATM   24  N   UNL     1      44.341 -19.213   5.856  1.00  0.00    -0.349 N 
HETATM   25  H   UNL     1      44.547 -19.388   6.831  1.00  0.00     0.166 HD
HETATM   26  C   UNL     1      44.406 -20.156   4.858  1.00  0.00     0.045 A 
HETATM   27  C   UNL     1      44.037 -19.525   3.666  1.00  0.00     0.023 A 
HETATM   28  C   UNL     1      44.775 -21.506   4.928  1.00  0.00     0.033 A 
HETATM   29  C   UNL     1      44.062 -20.288   2.480  1.00  0.00     0.058 A 
HETATM   30  C   UNL     1      44.434 -21.632   2.541  1.00  0.00     0.117 A 
HETATM   31  C   UNL     1      44.784 -22.237   3.739  1.00  0.00     0.044 A 
HETATM   32  F   UNL     1      44.464 -22.349   1.411  1.00  0.00    -0.206 F 
BRANCH  23  33
HETATM   33  C   UNL     1      43.841 -16.780   6.123  1.00  0.00     0.312 C 
HETATM   34  O   UNL     1      44.775 -16.194   6.659  1.00  0.00    -0.258 OA
BRANCH  33  35
HETATM   35  O   UNL     1      42.538 -16.392   6.132  1.00  0.00    -0.317 OA
BRANCH  35  36
HETATM   36  C   UNL     1      42.299 -14.997   5.886  1.00  0.00     0.175 C 
HETATM   37  C   UNL     1      40.828 -14.763   5.591  1.00  0.00     0.034 C 
ENDBRANCH  35  36
ENDBRANCH  33  35
ENDBRANCH  23  33
ENDBRANCH   1  22
TORSDOF 6
ENDMDL
MODEL 2
REMARK VINA RESULT:      -9.1      1.632      2.700
REMARK  6 active torsions:
REMARK  status: ('A' for Active; 'I' for Inactive)
REMARK    1  A    between atoms: C_2  and  O_3 
REMARK    2  A    between atoms: O_3  and  C_4 
REMARK    3  A    between atoms: C_4  and  C_5 
REMARK    4  A    between atoms: C_10  and  N_11 
REMARK       I    between atoms: N_11  and  C_12 
REMARK    5  A    between atoms: C_12  and  C_13 
REMARK    6  A    between atoms: C_13  and  N_14 
ROOT
HETATM    1  N   UNL     1      43.241 -16.767   4.120  1.00  0.00    -0.322 N 
HETATM    2  C   UNL     1      41.921 -16.399   3.971  1.00  0.00     0.253 C 
HETATM    3  O   UNL     1      40.960 -16.927   4.526  1.00  0.00    -0.271 OA
HETATM    4  H   UNL     1      43.958 -16.041   4.091  1.00  0.00     0.169 HD
ENDROOT
BRANCH   2   5
HETATM    5  C   UNL     1      41.724 -15.164   3.064  1.00  0.00     0.275 C 
HETATM    6  C   UNL     1      43.056 -14.477   2.808  1.00  0.00     0.050 C 
BRANCH   5   7
HETATM    7  N   UNL     1      40.967 -15.487   1.744  1.00  0.00    -0.058 N 
HETATM    8  H   UNL     1      40.760 -16.484   1.909  1.00  0.00     0.281 HD
HETATM    9  C   UNL     1      39.590 -14.861   1.655  1.00  0.00     0.246 C 
HETATM   10  C   UNL     1      39.369 -13.955   0.437  1.00  0.00     0.062 C 
HETATM   11  C   UNL     1      39.836 -14.685  -0.811  1.00  0.00     0.020 C 
HETATM   12  C   UNL     1      40.051 -12.609   0.614  1.00  0.00     0.020 A 
HETATM   13  C   UNL     1      41.346 -14.803  -0.727  1.00  0.00     0.031 C 
HETATM   14  C   UNL     1      41.961 -13.405  -0.770  1.00  0.00     0.138 C 
HETATM   15  C   UNL     1      41.827 -15.594   0.492  1.00  0.00     0.242 C 
HETATM   16  N   UNL     1      41.343 -12.428   0.117  1.00  0.00    -0.317 N 
HETATM   17  C   UNL     1      42.041 -11.220   0.263  1.00  0.00     0.247 A 
HETATM   18  O   UNL     1      43.173 -11.026  -0.169  1.00  0.00    -0.268 OA
HETATM   19  C   UNL     1      41.345 -10.141   1.002  1.00  0.00     0.074 A 
HETATM   20  C   UNL     1      40.103 -10.337   1.457  1.00  0.00     0.007 A 
HETATM   21  C   UNL     1      39.437 -11.598   1.255  1.00  0.00     0.026 A 
ENDBRANCH   5   7
ENDBRANCH   2   5
BRANCH   1  22
HETATM   22  C   UNL     1      43.675 -17.966   4.672  1.00  0.00     0.080 A 
HETATM   23  C   UNL     1      44.017 -18.063   6.011  1.00  0.00     0.137 A 
HETATM   24  N   UNL     1      44.433 -19.355   6.229  1.00  0.00    -0.349 N 
HETATM   25  H   UNL     1      44.734 -19.714   7.126  1.00  0.00     0.166 HD
HETATM   26  C   UNL     1      44.417 -20.077   5.059  1.00  0.00     0.045 A 
HETATM   27  C   UNL     1      43.926 -19.234   4.058  1.00  0.00     0.023 A 
HETATM   28  C   UNL     1      44.813 -21.400   4.822  1.00  0.00     0.033 A 
HETATM   29  C   UNL     1      43.850 -19.743   2.745  1.00  0.00     0.058 A 
HETATM   30  C   UNL     1      44.247 -21.058   2.499  1.00  0.00     0.117 A 
HETATM   31  C   UNL     1      44.721 -21.878   3.513  1.00  0.00     0.044 A 
HETATM   32  F   UNL     1      44.181 -21.533   1.249  1.00  0.00    -0.206 F 
BRANCH  23  33
HETATM   33  C   UNL     1      43.921 -17.044   7.027  1.00  0.00     0.312 C 
HETATM   34  O   UNL     1      43.262 -17.168   8.054  1.00  0.00    -0.258 OA
BRANCH  33  35
HETATM   35  O   UNL     1      44.686 -15.973   6.688  1.00  0.00    -0.317 OA
BRANCH  35  36
HETATM   36  C   UNL     1      44.063 -14.687   6.839  1.00  0.00     0.175 C 
HETATM   37  C   UNL     1      45.096 -13.651   7.246  1.00  0.00     0.034 C 
ENDBRANCH  35  36
ENDBRANCH  33  35
ENDBRANCH  23  33
ENDBRANCH   1  22
TORSDOF 6
ENDMDL
MODEL 3
REMARK VINA RESULT:      -8.7      1.844      3.126
REMARK  6 active torsions:
REMARK  status: ('A' for Active; 'I' for Inactive)
REMARK    1  A    between atoms: C_2  and  O_3 
REMARK    2  A    between atoms: O_3  and  C_4 
REMARK    3  A    between atoms: C_4  and  C_5 
REMARK    4  A    between atoms: C_10  and  N_11 
REMARK       I    between atoms: N_11  and  C_12 
REMARK    5  A    between atoms: C_12  and  C_13 
REMARK    6  A    between atoms: C_13  and  N_14 
ROOT
HETATM    1  N   UNL     1      41.841 -15.734   2.277  1.00  0.00    -0.322 N 
HETATM    2  C   UNL     1      40.615 -16.086   1.752  1.00  0.00     0.253 C 
HETATM    3  O   UNL     1      39.890 -16.988   2.160  1.00  0.00    -0.271 OA
HETATM    4  H   UNL     1      42.113 -14.751   2.271  1.00  0.00     0.169 HD
ENDROOT
BRANCH   2   5
HETATM    5  C   UNL     1      40.156 -15.171   0.593  1.00  0.00     0.275 C 
HETATM    6  C   UNL     1      39.564 -13.882   1.140  1.00  0.00     0.050 C 
BRANCH   5   7
HETATM    7  N   UNL     1      41.273 -14.905  -0.455  1.00  0.00    -0.058 N 
HETATM    8  H   UNL     1      42.088 -15.248   0.075  1.00  0.00     0.281 HD
HETATM    9  C   UNL     1      41.227 -15.834  -1.652  1.00  0.00     0.246 C 
HETATM   10  C   UNL     1      41.109 -15.132  -3.011  1.00  0.00     0.062 C 
HETATM   11  C   UNL     1      42.147 -14.024  -3.085  1.00  0.00     0.020 C 
HETATM   12  C   UNL     1      39.699 -14.626  -3.256  1.00  0.00     0.020 A 
HETATM   13  C   UNL     1      41.732 -12.951  -2.096  1.00  0.00     0.031 C 
HETATM   14  C   UNL     1      40.400 -12.348  -2.540  1.00  0.00     0.138 C 
HETATM   15  C   UNL     1      41.673 -13.448  -0.650  1.00  0.00     0.242 C 
HETATM   16  N   UNL     1      39.373 -13.315  -2.907  1.00  0.00    -0.317 N 
HETATM   17  C   UNL     1      38.086 -12.787  -3.084  1.00  0.00     0.247 A 
HETATM   18  O   UNL     1      37.770 -11.637  -2.796  1.00  0.00    -0.268 OA
HETATM   19  C   UNL     1      37.067 -13.707  -3.642  1.00  0.00     0.074 A 
HETATM   20  C   UNL     1      37.408 -14.956  -3.979  1.00  0.00     0.007 A 
HETATM   21  C   UNL     1      38.755 -15.426  -3.787  1.00  0.00     0.026 A 
ENDBRANCH   5   7
ENDBRANCH   2   5
BRANCH   1  22
HETATM   22  C   UNL     1      42.589 -16.521   3.146  1.00  0.00     0.080 A 
HETATM   23  C   UNL     1      43.042 -16.026   4.358  1.00  0.00     0.137 A 
HETATM   24  N   UNL     1      43.769 -17.028   4.956  1.00  0.00    -0.349 N 
HETATM   25  H   UNL     1      44.213 -16.949   5.862  1.00  0.00     0.166 HD
HETATM   26  C   UNL     1      43.840 -18.133   4.140  1.00  0.00     0.045 A 
HETATM   27  C   UNL     1      43.089 -17.852   2.995  1.00  0.00     0.023 A 
HETATM   28  C   UNL     1      44.522 -19.341   4.333  1.00  0.00     0.033 A 
HETATM   29  C   UNL     1      43.040 -18.832   1.982  1.00  0.00     0.058 A 
HETATM   30  C   UNL     1      43.721 -20.036   2.163  1.00  0.00     0.117 A 
HETATM   31  C   UNL     1      44.450 -20.294   3.315  1.00  0.00     0.044 A 
HETATM   32  F   UNL     1      43.678 -20.959   1.194  1.00  0.00    -0.206 F 
BRANCH  23  33
HETATM   33  C   UNL     1      42.780 -14.735   4.943  1.00  0.00     0.312 C 
HETATM   34  O   UNL     1      43.164 -13.677   4.455  1.00  0.00    -0.258 OA
BRANCH  33  35
HETATM   35  O   UNL     1      42.029 -14.875   6.067  1.00  0.00    -0.317 OA
BRANCH  35  36
HETATM   36  C   UNL     1      40.687 -15.347   5.868  1.00  0.00     0.175 C 
HETATM   37  C   UNL     1      39.857 -14.283   5.171  1.00  0.00     0.034 C 
ENDBRANCH  35  36
ENDBRANCH  33  35
ENDBRANCH  23  33
ENDBRANCH   1  22
TORSDOF 6
ENDMDL
MODEL 4
REMARK VINA RESULT:      -8.7      1.916      3.184
REMARK  6 active torsions:
REMARK  status: ('A' for Active; 'I' for Inactive)
REMARK    1  A    between atoms: C_2  and  O_3 
REMARK    2  A    between atoms: O_3  and  C_4 
REMARK    3  A    between atoms: C_4  and  C_5 
REMARK    4  A    between atoms: C_10  and  N_11 
REMARK       I    between atoms: N_11  and  C_12 
REMARK    5  A    between atoms: C_12  and  C_13 
REMARK    6  A    between atoms: C_13  and  N_14 
ROOT
HETATM    1  N   UNL     1      42.758 -16.194   4.320  1.00  0.00    -0.322 N 
HETATM    2  C   UNL     1      41.455 -15.889   4.652  1.00  0.00     0.253 C 
HETATM    3  O   UNL     1      40.815 -16.381   5.577  1.00  0.00    -0.271 OA
HETATM    4  H   UNL     1      43.356 -15.453   3.952  1.00  0.00     0.169 HD
ENDROOT
BRANCH   2   5
HETATM    5  C   UNL     1      40.842 -14.772   3.778  1.00  0.00     0.275 C 
HETATM    6  C   UNL     1      40.724 -13.481   4.573  1.00  0.00     0.050 C 
BRANCH   5   7
HETATM    7  N   UNL     1      41.594 -14.566   2.432  1.00  0.00    -0.058 N 
HETATM    8  H   UNL     1      42.391 -15.202   2.585  1.00  0.00     0.281 HD
HETATM    9  C   UNL     1      40.892 -15.176   1.236  1.00  0.00     0.246 C 
HETATM   10  C   UNL     1      40.567 -14.191   0.105  1.00  0.00     0.062 C 
HETATM   11  C   UNL     1      41.812 -13.379  -0.213  1.00  0.00     0.020 C 
HETATM   12  C   UNL     1      39.375 -13.318   0.452  1.00  0.00     0.020 A 
HETATM   13  C   UNL     1      42.077 -12.475   0.976  1.00  0.00     0.031 C 
HETATM   14  C   UNL     1      40.921 -11.487   1.122  1.00  0.00     0.138 C 
HETATM   15  C   UNL     1      42.332 -13.242   2.276  1.00  0.00     0.242 C 
HETATM   16  N   UNL     1      39.590 -12.073   1.046  1.00  0.00    -0.317 N 
HETATM   17  C   UNL     1      38.536 -11.224   1.413  1.00  0.00     0.247 A 
HETATM   18  O   UNL     1      38.690 -10.121   1.929  1.00  0.00    -0.268 OA
HETATM   19  C   UNL     1      37.165 -11.728   1.163  1.00  0.00     0.074 A 
HETATM   20  C   UNL     1      36.987 -12.919   0.582  1.00  0.00     0.007 A 
HETATM   21  C   UNL     1      38.117 -13.732   0.212  1.00  0.00     0.026 A 
ENDBRANCH   5   7
ENDBRANCH   2   5
BRANCH   1  22
HETATM   22  C   UNL     1      43.455 -17.308   4.774  1.00  0.00     0.080 A 
HETATM   23  C   UNL     1      44.088 -17.311   6.006  1.00  0.00     0.137 A 
HETATM   24  N   UNL     1      44.707 -18.531   6.139  1.00  0.00    -0.349 N 
HETATM   25  H   UNL     1      45.239 -18.816   6.951  1.00  0.00     0.166 HD
HETATM   26  C   UNL     1      44.532 -19.292   5.008  1.00  0.00     0.045 A 
HETATM   27  C   UNL     1      43.730 -18.556   4.131  1.00  0.00     0.023 A 
HETATM   28  C   UNL     1      45.037 -20.563   4.701  1.00  0.00     0.033 A 
HETATM   29  C   UNL     1      43.438 -19.120   2.872  1.00  0.00     0.058 A 
HETATM   30  C   UNL     1      43.941 -20.382   2.557  1.00  0.00     0.117 A 
HETATM   31  C   UNL     1      44.727 -21.098   3.449  1.00  0.00     0.044 A 
HETATM   32  F   UNL     1      43.669 -20.908   1.356  1.00  0.00    -0.206 F 
BRANCH  23  33
HETATM   33  C   UNL     1      44.082 -16.274   7.009  1.00  0.00     0.312 C 
HETATM   34  O   UNL     1      43.596 -16.412   8.126  1.00  0.00    -0.258 OA
BRANCH  33  35
HETATM   35  O   UNL     1      44.715 -15.167   6.540  1.00  0.00    -0.317 OA
BRANCH  35  36
HETATM   36  C   UNL     1      44.144 -13.908   6.930  1.00  0.00     0.175 C 
HETATM   37  C   UNL     1      45.040 -13.220   7.944  1.00  0.00     0.034 C 
ENDBRANCH  35  36
ENDBRANCH  33  35
ENDBRANCH  23  33
ENDBRANCH   1  22
TORSDOF 6
ENDMDL
MODEL 5
REMARK VINA RESULT:      -8.4      1.849      2.899
REMARK  6 active torsions:
REMARK  status: ('A' for Active; 'I' for Inactive)
REMARK    1  A    between atoms: C_2  and  O_3 
REMARK    2  A    between atoms: O_3  and  C_4 
REMARK    3  A    between atoms: C_4  and  C_5 
REMARK    4  A    between atoms: C_10  and  N_11 
REMARK       I    between atoms: N_11  and  C_12 
REMARK    5  A    between atoms: C_12  and  C_13 
REMARK    6  A    between atoms: C_13  and  N_14 
ROOT
HETATM    1  N   UNL     1      41.711 -17.076   2.390  1.00  0.00    -0.322 N 
HETATM    2  C   UNL     1      42.071 -16.609   1.143  1.00  0.00     0.253 C 
HETATM    3  O   UNL     1      43.031 -16.992   0.481  1.00  0.00    -0.271 OA
HETATM    4  H   UNL     1      40.719 -17.130   2.625  1.00  0.00     0.169 HD
ENDROOT
BRANCH   2   5
HETATM    5  C   UNL     1      41.089 -15.561   0.571  1.00  0.00     0.275 C 
HETATM    6  C   UNL     1      39.995 -15.255   1.581  1.00  0.00     0.050 C 
BRANCH   5   7
HETATM    7  N   UNL     1      41.796 -14.273   0.063  1.00  0.00    -0.058 N 
HETATM    8  H   UNL     1      42.699 -14.679  -0.226  1.00  0.00     0.281 HD
HETATM    9  C   UNL     1      41.231 -13.733  -1.235  1.00  0.00     0.246 C 
HETATM   10  C   UNL     1      40.732 -12.284  -1.170  1.00  0.00     0.062 C 
HETATM   11  C   UNL     1      41.800 -11.424  -0.516  1.00  0.00     0.020 C 
HETATM   12  C   UNL     1      39.393 -12.188  -0.462  1.00  0.00     0.020 A 
HETATM   13  C   UNL     1      41.881 -11.835   0.942  1.00  0.00     0.031 C 
HETATM   14  C   UNL     1      40.557 -11.506   1.630  1.00  0.00     0.138 C 
HETATM   15  C   UNL     1      42.269 -13.303   1.138  1.00  0.00     0.242 C 
HETATM   16  N   UNL     1      39.362 -11.926   0.909  1.00  0.00    -0.317 N 
HETATM   17  C   UNL     1      38.164 -11.845   1.632  1.00  0.00     0.247 A 
HETATM   18  O   UNL     1      38.102 -11.608   2.835  1.00  0.00    -0.268 OA
HETATM   19  C   UNL     1      36.915 -12.081   0.869  1.00  0.00     0.074 A 
HETATM   20  C   UNL     1      36.972 -12.318  -0.446  1.00  0.00     0.007 A 
HETATM   21  C   UNL     1      38.238 -12.368  -1.130  1.00  0.00     0.026 A 
ENDBRANCH   5   7
ENDBRANCH   2   5
BRANCH   1  22
HETATM   22  C   UNL     1      42.530 -17.826   3.225  1.00  0.00     0.080 A 
HETATM   23  C   UNL     1      42.953 -17.338   4.451  1.00  0.00     0.137 A 
HETATM   24  N   UNL     1      43.767 -18.295   5.008  1.00  0.00    -0.349 N 
HETATM   25  H   UNL     1      44.212 -18.210   5.913  1.00  0.00     0.166 HD
HETATM   26  C   UNL     1      43.922 -19.361   4.153  1.00  0.00     0.045 A 
HETATM   27  C   UNL     1      43.139 -19.105   3.024  1.00  0.00     0.023 A 
HETATM   28  C   UNL     1      44.705 -20.514   4.298  1.00  0.00     0.033 A 
HETATM   29  C   UNL     1      43.162 -20.050   1.978  1.00  0.00     0.058 A 
HETATM   30  C   UNL     1      43.943 -21.198   2.112  1.00  0.00     0.117 A 
HETATM   31  C   UNL     1      44.703 -21.434   3.248  1.00  0.00     0.044 A 
HETATM   32  F   UNL     1      43.968 -22.087   1.110  1.00  0.00    -0.206 F 
BRANCH  23  33
HETATM   33  C   UNL     1      42.589 -16.094   5.083  1.00  0.00     0.312 C 
HETATM   34  O   UNL     1      43.391 -15.359   5.649  1.00  0.00    -0.258 OA
BRANCH  33  35
HETATM   35  O   UNL     1      41.260 -15.858   4.920  1.00  0.00    -0.317 OA
BRANCH  35  36
HETATM   36  C   UNL     1      40.711 -14.797   5.718  1.00  0.00     0.175 C 
HETATM   37  C   UNL     1      40.408 -13.591   4.846  1.00  0.00     0.034 C 
ENDBRANCH  35  36
ENDBRANCH  33  35
ENDBRANCH  23  33
ENDBRANCH   1  22
TORSDOF 6
ENDMDL
MODEL 6
REMARK VINA RESULT:      -8.3      1.670      2.358
REMARK  6 active torsions:
REMARK  status: ('A' for Active; 'I' for Inactive)
REMARK    1  A    between atoms: C_2  and  O_3 
REMARK    2  A    between atoms: O_3  and  C_4 
REMARK    3  A    between atoms: C_4  and  C_5 
REMARK    4  A    between atoms: C_10  and  N_11 
REMARK       I    between atoms: N_11  and  C_12 
REMARK    5  A    between atoms: C_12  and  C_13 
REMARK    6  A    between atoms: C_13  and  N_14 
ROOT
HETATM    1  N   UNL     1      42.964 -15.852   4.546  1.00  0.00    -0.322 N 
HETATM    2  C   UNL     1      41.630 -15.527   4.414  1.00  0.00     0.253 C 
HETATM    3  O   UNL     1      40.690 -16.125   4.930  1.00  0.00    -0.271 OA
HETATM    4  H   UNL     1      43.652 -15.098   4.566  1.00  0.00     0.169 HD
ENDROOT
BRANCH   2   5
HETATM    5  C   UNL     1      41.388 -14.245   3.586  1.00  0.00     0.275 C 
HETATM    6  C   UNL     1      42.387 -14.156   2.443  1.00  0.00     0.050 C 
BRANCH   5   7
HETATM    7  N   UNL     1      39.919 -14.102   3.094  1.00  0.00    -0.058 N 
HETATM    8  H   UNL     1      39.432 -14.554   3.883  1.00  0.00     0.281 HD
HETATM    9  C   UNL     1      39.392 -12.682   3.134  1.00  0.00     0.246 C 
HETATM   10  C   UNL     1      38.887 -12.142   1.790  1.00  0.00     0.062 C 
HETATM   11  C   UNL     1      37.953 -13.167   1.167  1.00  0.00     0.020 C 
HETATM   12  C   UNL     1      40.037 -11.768   0.872  1.00  0.00     0.020 A 
HETATM   13  C   UNL     1      38.797 -14.364   0.771  1.00  0.00     0.031 C 
HETATM   14  C   UNL     1      39.788 -13.943  -0.313  1.00  0.00     0.138 C 
HETATM   15  C   UNL     1      39.504 -15.026   1.956  1.00  0.00     0.242 C 
HETATM   16  N   UNL     1      40.512 -12.707  -0.045  1.00  0.00    -0.317 N 
HETATM   17  C   UNL     1      41.584 -12.439  -0.908  1.00  0.00     0.247 A 
HETATM   18  O   UNL     1      42.020 -13.239  -1.731  1.00  0.00    -0.268 OA
HETATM   19  C   UNL     1      42.215 -11.104  -0.782  1.00  0.00     0.074 A 
HETATM   20  C   UNL     1      41.733 -10.218   0.097  1.00  0.00     0.007 A 
HETATM   21  C   UNL     1      40.614 -10.554   0.940  1.00  0.00     0.026 A 
ENDBRANCH   5   7
ENDBRANCH   2   5
BRANCH   1  22
HETATM   22  C   UNL     1      43.443 -17.066   5.024  1.00  0.00     0.080 A 
HETATM   23  C   UNL     1      43.815 -17.225   6.349  1.00  0.00     0.137 A 
HETATM   24  N   UNL     1      44.271 -18.514   6.488  1.00  0.00    -0.349 N 
HETATM   25  H   UNL     1      44.601 -18.912   7.359  1.00  0.00     0.166 HD
HETATM   26  C   UNL     1      44.251 -19.172   5.281  1.00  0.00     0.045 A 
HETATM   27  C   UNL     1      43.716 -18.291   4.337  1.00  0.00     0.023 A 
HETATM   28  C   UNL     1      44.679 -20.468   4.965  1.00  0.00     0.033 A 
HETATM   29  C   UNL     1      43.627 -18.731   3.001  1.00  0.00     0.058 A 
HETATM   30  C   UNL     1      44.056 -20.018   2.676  1.00  0.00     0.117 A 
HETATM   31  C   UNL     1      44.573 -20.877   3.634  1.00  0.00     0.044 A 
HETATM   32  F   UNL     1      43.977 -20.427   1.403  1.00  0.00    -0.206 F 
BRANCH  23  33
HETATM   33  C   UNL     1      43.711 -16.265   7.420  1.00  0.00     0.312 C 
HETATM   34  O   UNL     1      43.624 -16.574   8.604  1.00  0.00    -0.258 OA
BRANCH  33  35
HETATM   35  O   UNL     1      43.762 -15.001   6.922  1.00  0.00    -0.317 OA
BRANCH  35  36
HETATM   36  C   UNL     1      44.586 -14.075   7.648  1.00  0.00     0.175 C 
HETATM   37  C   UNL     1      45.715 -13.576   6.764  1.00  0.00     0.034 C 
ENDBRANCH  35  36
ENDBRANCH  33  35
ENDBRANCH  23  33
ENDBRANCH   1  22
TORSDOF 6
ENDMDL
MODEL 7
REMARK VINA RESULT:      -8.2      2.213      3.855
REMARK  6 active torsions:
REMARK  status: ('A' for Active; 'I' for Inactive)
REMARK    1  A    between atoms: C_2  and  O_3 
REMARK    2  A    between atoms: O_3  and  C_4 
REMARK    3  A    between atoms: C_4  and  C_5 
REMARK    4  A    between atoms: C_10  and  N_11 
REMARK       I    between atoms: N_11  and  C_12 
REMARK    5  A    between atoms: C_12  and  C_13 
REMARK    6  A    between atoms: C_13  and  N_14 
ROOT
HETATM    1  N   UNL     1      43.155 -16.712   3.151  1.00  0.00    -0.322 N 
HETATM    2  C   UNL     1      41.911 -16.144   2.976  1.00  0.00     0.253 C 
HETATM    3  O   UNL     1      40.980 -16.188   3.776  1.00  0.00    -0.271 OA
HETATM    4  H   UNL     1      43.971 -16.234   2.767  1.00  0.00     0.169 HD
ENDROOT
BRANCH   2   5
HETATM    5  C   UNL     1      41.780 -15.341   1.661  1.00  0.00     0.275 C 
HETATM    6  C   UNL     1      41.643 -16.284   0.477  1.00  0.00     0.050 C 
BRANCH   5   7
HETATM    7  N   UNL     1      40.643 -14.281   1.702  1.00  0.00    -0.058 N 
HETATM    8  H   UNL     1      40.390 -14.343   2.700  1.00  0.00     0.281 HD
HETATM    9  C   UNL     1      41.129 -12.853   1.560  1.00  0.00     0.246 C 
HETATM   10  C   UNL     1      40.512 -12.073   0.391  1.00  0.00     0.062 C 
HETATM   11  C   UNL     1      39.003 -12.248   0.425  1.00  0.00     0.020 C 
HETATM   12  C   UNL     1      41.117 -12.489  -0.937  1.00  0.00     0.020 A 
HETATM   13  C   UNL     1      38.709 -13.696   0.078  1.00  0.00     0.031 C 
HETATM   14  C   UNL     1      39.161 -13.969  -1.356  1.00  0.00     0.138 C 
HETATM   15  C   UNL     1      39.324 -14.693   1.063  1.00  0.00     0.242 C 
HETATM   16  N   UNL     1      40.495 -13.487  -1.689  1.00  0.00    -0.317 N 
HETATM   17  C   UNL     1      41.009 -13.937  -2.913  1.00  0.00     0.247 A 
HETATM   18  O   UNL     1      40.482 -14.806  -3.602  1.00  0.00    -0.268 OA
HETATM   19  C   UNL     1      42.276 -13.314  -3.366  1.00  0.00     0.074 A 
HETATM   20  C   UNL     1      42.846 -12.352  -2.632  1.00  0.00     0.007 A 
HETATM   21  C   UNL     1      42.251 -11.925  -1.392  1.00  0.00     0.026 A 
ENDBRANCH   5   7
ENDBRANCH   2   5
BRANCH   1  22
HETATM   22  C   UNL     1      43.463 -17.672   4.108  1.00  0.00     0.080 A 
HETATM   23  C   UNL     1      43.598 -19.009   3.772  1.00  0.00     0.137 A 
HETATM   24  N   UNL     1      43.866 -19.693   4.934  1.00  0.00    -0.349 N 
HETATM   25  H   UNL     1      44.022 -20.691   4.986  1.00  0.00     0.166 HD
HETATM   26  C   UNL     1      43.855 -18.842   6.014  1.00  0.00     0.045 A 
HETATM   27  C   UNL     1      43.622 -17.553   5.525  1.00  0.00     0.023 A 
HETATM   28  C   UNL     1      44.022 -19.126   7.376  1.00  0.00     0.033 A 
HETATM   29  C   UNL     1      43.530 -16.500   6.458  1.00  0.00     0.058 A 
HETATM   30  C   UNL     1      43.689 -16.775   7.816  1.00  0.00     0.117 A 
HETATM   31  C   UNL     1      43.932 -18.062   8.275  1.00  0.00     0.044 A 
HETATM   32  F   UNL     1      43.592 -15.773   8.698  1.00  0.00    -0.206 F 
BRANCH  23  33
HETATM   33  C   UNL     1      43.531 -19.605   2.460  1.00  0.00     0.312 C 
HETATM   34  O   UNL     1      42.669 -19.331   1.632  1.00  0.00    -0.258 OA
BRANCH  33  35
HETATM   35  O   UNL     1      44.569 -20.465   2.284  1.00  0.00    -0.317 OA
BRANCH  35  36
HETATM   36  C   UNL     1      44.214 -21.843   2.092  1.00  0.00     0.175 C 
HETATM   37  C   UNL     1      44.639 -22.665   3.296  1.00  0.00     0.034 C 
ENDBRANCH  35  36
ENDBRANCH  33  35
ENDBRANCH  23  33
ENDBRANCH   1  22
TORSDOF 6
ENDMDL
MODEL 8
REMARK VINA RESULT:      -8.1      1.839      3.502
REMARK  6 active torsions:
REMARK  status: ('A' for Active; 'I' for Inactive)
REMARK    1  A    between atoms: C_2  and  O_3 
REMARK    2  A    between atoms: O_3  and  C_4 
REMARK    3  A    between atoms: C_4  and  C_5 
REMARK    4  A    between atoms: C_10  and  N_11 
REMARK       I    between atoms: N_11  and  C_12 
REMARK    5  A    between atoms: C_12  and  C_13 
REMARK    6  A    between atoms: C_13  and  N_14 
ROOT
HETATM    1  N   UNL     1      41.365 -17.269   2.615  1.00  0.00    -0.322 N 
HETATM    2  C   UNL     1      41.334 -16.776   1.328  1.00  0.00     0.253 C 
HETATM    3  O   UNL     1      42.143 -17.029   0.440  1.00  0.00    -0.271 OA
HETATM    4  H   UNL     1      40.482 -17.459   3.089  1.00  0.00     0.169 HD
ENDROOT
BRANCH   2   5
HETATM    5  C   UNL     1      40.102 -15.887   1.039  1.00  0.00     0.275 C 
HETATM    6  C   UNL     1      39.553 -15.307   2.332  1.00  0.00     0.050 C 
BRANCH   5   7
HETATM    7  N   UNL     1      40.377 -14.789  -0.027  1.00  0.00    -0.058 N 
HETATM    8  H   UNL     1      40.411 -15.379  -0.873  1.00  0.00     0.281 HD
HETATM    9  C   UNL     1      39.194 -13.879  -0.292  1.00  0.00     0.246 C 
HETATM   10  C   UNL     1      39.464 -12.385  -0.071  1.00  0.00     0.062 C 
HETATM   11  C   UNL     1      40.751 -12.007  -0.787  1.00  0.00     0.020 C 
HETATM   12  C   UNL     1      39.497 -12.037   1.406  1.00  0.00     0.020 A 
HETATM   13  C   UNL     1      41.892 -12.685  -0.053  1.00  0.00     0.031 C 
HETATM   14  C   UNL     1      41.984 -12.119   1.363  1.00  0.00     0.138 C 
HETATM   15  C   UNL     1      41.786 -14.212  -0.044  1.00  0.00     0.242 C 
HETATM   16  N   UNL     1      40.718 -12.034   2.081  1.00  0.00    -0.317 N 
HETATM   17  C   UNL     1      40.821 -11.744   3.449  1.00  0.00     0.247 A 
HETATM   18  O   UNL     1      41.879 -11.724   4.070  1.00  0.00    -0.268 OA
HETATM   19  C   UNL     1      39.551 -11.463   4.161  1.00  0.00     0.074 A 
HETATM   20  C   UNL     1      38.396 -11.461   3.488  1.00  0.00     0.007 A 
HETATM   21  C   UNL     1      38.366 -11.750   2.077  1.00  0.00     0.026 A 
ENDBRANCH   5   7
ENDBRANCH   2   5
BRANCH   1  22
HETATM   22  C   UNL     1      42.465 -17.881   3.205  1.00  0.00     0.080 A 
HETATM   23  C   UNL     1      43.188 -17.256   4.208  1.00  0.00     0.137 A 
HETATM   24  N   UNL     1      44.218 -18.099   4.549  1.00  0.00    -0.349 N 
HETATM   25  H   UNL     1      44.904 -17.902   5.267  1.00  0.00     0.166 HD
HETATM   26  C   UNL     1      44.210 -19.224   3.759  1.00  0.00     0.045 A 
HETATM   27  C   UNL     1      43.103 -19.127   2.910  1.00  0.00     0.023 A 
HETATM   28  C   UNL     1      45.105 -20.302   3.730  1.00  0.00     0.033 A 
HETATM   29  C   UNL     1      42.900 -20.158   1.970  1.00  0.00     0.058 A 
HETATM   30  C   UNL     1      43.790 -21.232   1.931  1.00  0.00     0.117 A 
HETATM   31  C   UNL     1      44.875 -21.310   2.793  1.00  0.00     0.044 A 
HETATM   32  F   UNL     1      43.597 -22.203   1.031  1.00  0.00    -0.206 F 
BRANCH  23  33
HETATM   33  C   UNL     1      42.915 -15.988   4.840  1.00  0.00     0.312 C 
HETATM   34  O   UNL     1      42.662 -14.961   4.220  1.00  0.00    -0.258 OA
BRANCH  33  35
HETATM   35  O   UNL     1      42.947 -16.124   6.192  1.00  0.00    -0.317 OA
BRANCH  35  36
HETATM   36  C   UNL     1      44.197 -15.805   6.823  1.00  0.00     0.175 C 
HETATM   37  C   UNL     1      44.334 -14.301   6.981  1.00  0.00     0.034 C 
ENDBRANCH  35  36
ENDBRANCH  33  35
ENDBRANCH  23  33
ENDBRANCH   1  22
TORSDOF 6
ENDMDL
MODEL 9
REMARK VINA RESULT:      -8.0      1.758      2.785
REMARK  6 active torsions:
REMARK  status: ('A' for Active; 'I' for Inactive)
REMARK    1  A    between atoms: C_2  and  O_3 
REMARK    2  A    between atoms: O_3  and  C_4 
REMARK    3  A    between atoms: C_4  and  C_5 
REMARK    4  A    between atoms: C_10  and  N_11 
REMARK       I    between atoms: N_11  and  C_12 
REMARK    5  A    between atoms: C_12  and  C_13 
REMARK    6  A    between atoms: C_13  and  N_14 
ROOT
HETATM    1  N   UNL     1      42.979 -16.871   3.298  1.00  0.00    -0.322 N 
HETATM    2  C   UNL     1      41.715 -16.712   2.772  1.00  0.00     0.253 C 
HETATM    3  O   UNL     1      40.724 -17.376   3.065  1.00  0.00    -0.271 OA
HETATM    4  H   UNL     1      43.562 -16.044   3.431  1.00  0.00     0.169 HD
ENDROOT
BRANCH   2   5
HETATM    5  C   UNL     1      41.604 -15.529   1.783  1.00  0.00     0.275 C 
HETATM    6  C   UNL     1      42.774 -15.539   0.813  1.00  0.00     0.050 C 
BRANCH   5   7
HETATM    7  N   UNL     1      40.234 -15.472   1.049  1.00  0.00    -0.058 N 
HETATM    8  H   UNL     1      40.092 -16.479   0.876  1.00  0.00     0.281 HD
HETATM    9  C   UNL     1      39.069 -15.111   1.948  1.00  0.00     0.246 C 
HETATM   10  C   UNL     1      38.274 -13.873   1.512  1.00  0.00     0.062 C 
HETATM   11  C   UNL     1      37.943 -13.996   0.034  1.00  0.00     0.020 C 
HETATM   12  C   UNL     1      39.018 -12.590   1.837  1.00  0.00     0.020 A 
HETATM   13  C   UNL     1      39.246 -13.868  -0.732  1.00  0.00     0.031 C 
HETATM   14  C   UNL     1      39.818 -12.468  -0.516  1.00  0.00     0.138 C 
HETATM   15  C   UNL     1      40.266 -14.954  -0.383  1.00  0.00     0.242 C 
HETATM   16  N   UNL     1      39.840 -12.013   0.868  1.00  0.00    -0.317 N 
HETATM   17  C   UNL     1      40.573 -10.842   1.105  1.00  0.00     0.247 A 
HETATM   18  O   UNL     1      41.298 -10.304   0.273  1.00  0.00    -0.268 OA
HETATM   19  C   UNL     1      40.455 -10.252   2.460  1.00  0.00     0.074 A 
HETATM   20  C   UNL     1      39.652 -10.819   3.367  1.00  0.00     0.007 A 
HETATM   21  C   UNL     1      38.912 -12.013   3.048  1.00  0.00     0.026 A 
ENDBRANCH   5   7
ENDBRANCH   2   5
BRANCH   1  22
HETATM   22  C   UNL     1      43.410 -17.985   4.010  1.00  0.00     0.080 A 
HETATM   23  C   UNL     1      43.671 -17.917   5.369  1.00  0.00     0.137 A 
HETATM   24  N   UNL     1      44.106 -19.161   5.759  1.00  0.00    -0.349 N 
HETATM   25  H   UNL     1      44.360 -19.406   6.707  1.00  0.00     0.166 HD
HETATM   26  C   UNL     1      44.182 -20.012   4.681  1.00  0.00     0.045 A 
HETATM   27  C   UNL     1      43.731 -19.305   3.562  1.00  0.00     0.023 A 
HETATM   28  C   UNL     1      44.627 -21.339   4.622  1.00  0.00     0.033 A 
HETATM   29  C   UNL     1      43.750 -19.963   2.315  1.00  0.00     0.058 A 
HETATM   30  C   UNL     1      44.196 -21.283   2.246  1.00  0.00     0.117 A 
HETATM   31  C   UNL     1      44.628 -21.966   3.374  1.00  0.00     0.044 A 
HETATM   32  F   UNL     1      44.220 -21.899   1.058  1.00  0.00    -0.206 F 
BRANCH  23  33
HETATM   33  C   UNL     1      43.485 -16.793   6.253  1.00  0.00     0.312 C 
HETATM   34  O   UNL     1      44.153 -15.766   6.196  1.00  0.00    -0.258 OA
BRANCH  33  35
HETATM   35  O   UNL     1      42.455 -17.036   7.106  1.00  0.00    -0.317 OA
BRANCH  35  36
HETATM   36  C   UNL     1      41.139 -16.962   6.536  1.00  0.00     0.175 C 
HETATM   37  C   UNL     1      40.835 -15.537   6.108  1.00  0.00     0.034 C 
ENDBRANCH  35  36
ENDBRANCH  33  35
ENDBRANCH  23  33
ENDBRANCH   1  22
TORSDOF 6
ENDMDL
MODEL 10
REMARK VINA RESULT:      -8.0      2.581      4.402
REMARK  6 active torsions:
REMARK  status: ('A' for Active; 'I' for Inactive)
REMARK    1  A    between atoms: C_2  and  O_3 
REMARK    2  A    between atoms: O_3  and  C_4 
REMARK    3  A    between atoms: C_4  and  C_5 
REMARK    4  A    between atoms: C_10  and  N_11 
REMARK       I    between atoms: N_11  and  C_12 
REMARK    5  A    between atoms: C_12  and  C_13 
REMARK    6  A    between atoms: C_13  and  N_14 
ROOT
HETATM    1  N   UNL     1      42.095 -16.652   3.563  1.00  0.00    -0.322 N 
HETATM    2  C   UNL     1      42.586 -15.457   3.080  1.00  0.00     0.253 C 
HETATM    3  O   UNL     1      43.771 -15.182   2.910  1.00  0.00    -0.271 OA
HETATM    4  H   UNL     1      41.206 -16.998   3.202  1.00  0.00     0.169 HD
ENDROOT
BRANCH   2   5
HETATM    5  C   UNL     1      41.480 -14.456   2.676  1.00  0.00     0.275 C 
HETATM    6  C   UNL     1      42.042 -13.044   2.614  1.00  0.00     0.050 C 
BRANCH   5   7
HETATM    7  N   UNL     1      40.745 -14.852   1.364  1.00  0.00    -0.058 N 
HETATM    8  H   UNL     1      40.401 -15.784   1.638  1.00  0.00     0.281 HD
HETATM    9  C   UNL     1      39.469 -14.074   1.115  1.00  0.00     0.246 C 
HETATM   10  C   UNL     1      39.422 -13.315  -0.217  1.00  0.00     0.062 C 
HETATM   11  C   UNL     1      39.841 -14.256  -1.335  1.00  0.00     0.020 C 
HETATM   12  C   UNL     1      40.268 -12.055  -0.169  1.00  0.00     0.020 A 
HETATM   13  C   UNL     1      41.317 -14.551  -1.147  1.00  0.00     0.031 C 
HETATM   14  C   UNL     1      42.113 -13.259  -1.327  1.00  0.00     0.138 C 
HETATM   15  C   UNL     1      41.636 -15.229   0.187  1.00  0.00     0.242 C 
HETATM   16  N   UNL     1      41.593 -12.104  -0.606  1.00  0.00    -0.317 N 
HETATM   17  C   UNL     1      42.438 -10.986  -0.571  1.00  0.00     0.247 A 
HETATM   18  O   UNL     1      43.604 -10.994  -0.955  1.00  0.00    -0.268 OA
HETATM   19  C   UNL     1      41.860  -9.740  -0.015  1.00  0.00     0.074 A 
HETATM   20  C   UNL     1      40.585  -9.716   0.386  1.00  0.00     0.007 A 
HETATM   21  C   UNL     1      39.767 -10.899   0.303  1.00  0.00     0.026 A 
ENDBRANCH   5   7
ENDBRANCH   2   5
BRANCH   1  22
HETATM   22  C   UNL     1      42.853 -17.617   4.216  1.00  0.00     0.080 A 
HETATM   23  C   UNL     1      43.327 -18.736   3.550  1.00  0.00     0.137 A 
HETATM   24  N   UNL     1      44.000 -19.500   4.472  1.00  0.00    -0.349 N 
HETATM   25  H   UNL     1      44.462 -20.375   4.261  1.00  0.00     0.166 HD
HETATM   26  C   UNL     1      43.930 -18.931   5.722  1.00  0.00     0.045 A 
HETATM   27  C   UNL     1      43.227 -17.729   5.592  1.00  0.00     0.023 A 
HETATM   28  C   UNL     1      44.424 -19.402   6.946  1.00  0.00     0.033 A 
HETATM   29  C   UNL     1      42.991 -16.974   6.759  1.00  0.00     0.058 A 
HETATM   30  C   UNL     1      43.476 -17.438   7.982  1.00  0.00     0.117 A 
HETATM   31  C   UNL     1      44.180 -18.629   8.082  1.00  0.00     0.044 A 
HETATM   32  F   UNL     1      43.241 -16.720   9.088  1.00  0.00    -0.206 F 
BRANCH  23  33
HETATM   33  C   UNL     1      43.204 -19.051   2.148  1.00  0.00     0.312 C 
HETATM   34  O   UNL     1      43.435 -18.250   1.248  1.00  0.00    -0.258 OA
BRANCH  33  35
HETATM   35  O   UNL     1      42.838 -20.351   1.992  1.00  0.00    -0.317 OA
BRANCH  35  36
HETATM   36  C   UNL     1      43.842 -21.222   1.448  1.00  0.00     0.175 C 
HETATM   37  C   UNL     1      44.367 -22.152   2.528  1.00  0.00     0.034 C 
ENDBRANCH  35  36
ENDBRANCH  33  35
ENDBRANCH  23  33
ENDBRANCH   1  22
TORSDOF 6
ENDMDL
