MODEL 1
REMARK VINA RESULT:      -8.1      0.000      0.000
REMARK  3 active torsions:
REMARK  status: ('A' for Active; 'I' for Inactive)
REMARK    1  A    between atoms: O_2  and  C_3 
REMARK    2  A    between atoms: C_7  and  C_8 
REMARK    3  A    between atoms: C_19  and  N_20 
ROOT
HETATM    1  C   UNL     1      42.177 -17.451   6.018  1.00  0.00     0.244 A 
HETATM    2  N   UNL     1      43.157 -18.317   5.405  1.00  0.00    -0.151 N 
HETATM    3  C   UNL     1      44.194 -18.832   6.141  1.00  0.00     0.734 A 
HETATM    4  N   UNL     1      44.945 -19.589   5.371  1.00  0.00    -0.060 NA
HETATM    5  C   UNL     1      44.367 -19.574   4.126  1.00  0.00     0.103 A 
HETATM    6  C   UNL     1      43.217 -18.790   4.122  1.00  0.00     0.083 A 
HETATM    7  C   UNL     1      44.770 -20.213   2.946  1.00  0.00     0.034 A 
HETATM    8  C   UNL     1      43.996 -20.046   1.793  1.00  0.00     0.002 A 
HETATM    9  C   UNL     1      42.842 -19.261   1.815  1.00  0.00     0.002 A 
HETATM   10  C   UNL     1      42.423 -18.614   2.983  1.00  0.00     0.033 A 
HETATM   11  N   UNL     1      44.364 -18.563   7.455  1.00  0.00    -0.033 NA
HETATM   12  C   UNL     1      43.512 -17.814   8.055  1.00  0.00     0.193 A 
HETATM   13  N   UNL     1      42.398 -17.227   7.446  1.00  0.00    -0.339 N 
HETATM   14  H   UNL     1      41.834 -16.558   7.946  1.00  0.00     0.164 HD
ENDROOT
BRANCH   1  15
HETATM   15  C   UNL     1      42.129 -16.087   5.350  1.00  0.00    -0.014 A 
HETATM   16  C   UNL     1      41.066 -15.733   4.498  1.00  0.00     0.033 A 
HETATM   17  C   UNL     1      41.021 -14.467   3.905  1.00  0.00     0.044 A 
HETATM   18  C   UNL     1      42.030 -13.536   4.162  1.00  0.00     0.085 A 
HETATM   19 BR   UNL     1      39.554 -14.055   2.777  1.00  0.00    -0.048 Br
HETATM   20  C   UNL     1      43.110 -13.891   4.972  1.00  0.00     0.039 A 
HETATM   21  C   UNL     1      43.161 -15.157   5.563  1.00  0.00     0.014 A 
BRANCH  18  22
HETATM   22  O   UNL     1      41.989 -12.308   3.558  1.00  0.00    -0.355 OA
HETATM   23  C   UNL     1      41.455 -11.304   4.420  1.00  0.00     0.210 C 
ENDBRANCH  18  22
ENDBRANCH   1  15
BRANCH  12  24
HETATM   24  N   UNL     1      43.614 -17.494   9.361  1.00  0.00    -0.272 NA
HETATM   25  H   UNL     1      42.914 -16.803   9.622  1.00  0.00     0.127 HD
HETATM   26  H   UNL     1      44.530 -17.222   9.693  1.00  0.00     0.127 HD
ENDBRANCH  12  24
TORSDOF 3
ENDMDL
MODEL 2
REMARK VINA RESULT:      -8.0      3.655      6.538
REMARK  3 active torsions:
REMARK  status: ('A' for Active; 'I' for Inactive)
REMARK    1  A    between atoms: O_2  and  C_3 
REMARK    2  A    between atoms: C_7  and  C_8 
REMARK    3  A    between atoms: C_19  and  N_20 
ROOT
HETATM    1  C   UNL     1      41.233 -16.818   4.070  1.00  0.00     0.244 A 
HETATM    2  N   UNL     1      41.870 -15.589   4.481  1.00  0.00    -0.151 N 
HETATM    3  C   UNL     1      41.579 -14.406   3.852  1.00  0.00     0.734 A 
HETATM    4  N   UNL     1      42.275 -13.434   4.402  1.00  0.00    -0.060 NA
HETATM    5  C   UNL     1      43.007 -14.004   5.414  1.00  0.00     0.103 A 
HETATM    6  C   UNL     1      42.755 -15.369   5.502  1.00  0.00     0.083 A 
HETATM    7  C   UNL     1      43.911 -13.411   6.306  1.00  0.00     0.034 A 
HETATM    8  C   UNL     1      44.533 -14.214   7.267  1.00  0.00     0.002 A 
HETATM    9  C   UNL     1      44.259 -15.581   7.341  1.00  0.00     0.002 A 
HETATM   10  C   UNL     1      43.360 -16.192   6.459  1.00  0.00     0.033 A 
HETATM   11  N   UNL     1      40.703 -14.316   2.826  1.00  0.00    -0.033 NA
HETATM   12  C   UNL     1      40.094 -15.374   2.432  1.00  0.00     0.193 A 
HETATM   13  N   UNL     1      40.272 -16.649   2.981  1.00  0.00    -0.339 N 
HETATM   14  H   UNL     1      39.850 -17.456   2.550  1.00  0.00     0.164 HD
ENDROOT
BRANCH   1  15
HETATM   15  C   UNL     1      42.244 -17.859   3.622  1.00  0.00    -0.014 A 
HETATM   16  C   UNL     1      42.868 -18.714   4.550  1.00  0.00     0.033 A 
HETATM   17  C   UNL     1      43.782 -19.682   4.124  1.00  0.00     0.044 A 
HETATM   18  C   UNL     1      44.078 -19.818   2.767  1.00  0.00     0.085 A 
HETATM   19 BR   UNL     1      44.576 -20.805   5.430  1.00  0.00    -0.048 Br
HETATM   20  C   UNL     1      43.497 -18.949   1.841  1.00  0.00     0.039 A 
HETATM   21  C   UNL     1      42.586 -17.976   2.264  1.00  0.00     0.014 A 
BRANCH  18  22
HETATM   22  O   UNL     1      44.993 -20.753   2.361  1.00  0.00    -0.355 OA
HETATM   23  C   UNL     1      44.366 -21.905   1.796  1.00  0.00     0.210 C 
ENDBRANCH  18  22
ENDBRANCH   1  15
BRANCH  12  24
HETATM   24  N   UNL     1      39.211 -15.371   1.413  1.00  0.00    -0.272 NA
HETATM   25  H   UNL     1      38.259 -15.249   1.756  1.00  0.00     0.127 HD
HETATM   26  H   UNL     1      39.263 -16.144   0.763  1.00  0.00     0.127 HD
ENDBRANCH  12  24
TORSDOF 3
ENDMDL
MODEL 3
REMARK VINA RESULT:      -8.0      2.749      3.614
REMARK  3 active torsions:
REMARK  status: ('A' for Active; 'I' for Inactive)
REMARK    1  A    between atoms: O_2  and  C_3 
REMARK    2  A    between atoms: C_7  and  C_8 
REMARK    3  A    between atoms: C_19  and  N_20 
ROOT
HETATM    1  C   UNL     1      40.882 -16.911   3.543  1.00  0.00     0.244 A 
HETATM    2  N   UNL     1      42.078 -17.560   4.027  1.00  0.00    -0.151 N 
HETATM    3  C   UNL     1      42.593 -17.249   5.259  1.00  0.00     0.734 A 
HETATM    4  N   UNL     1      43.673 -17.968   5.477  1.00  0.00    -0.060 NA
HETATM    5  C   UNL     1      43.840 -18.767   4.373  1.00  0.00     0.103 A 
HETATM    6  C   UNL     1      42.829 -18.544   3.443  1.00  0.00     0.083 A 
HETATM    7  C   UNL     1      44.835 -19.713   4.097  1.00  0.00     0.034 A 
HETATM    8  C   UNL     1      44.780 -20.414   2.888  1.00  0.00     0.002 A 
HETATM    9  C   UNL     1      43.752 -20.180   1.973  1.00  0.00     0.002 A 
HETATM   10  C   UNL     1      42.749 -19.239   2.230  1.00  0.00     0.033 A 
HETATM   11  N   UNL     1      42.032 -16.333   6.079  1.00  0.00    -0.033 NA
HETATM   12  C   UNL     1      40.956 -15.739   5.708  1.00  0.00     0.193 A 
HETATM   13  N   UNL     1      40.304 -15.958   4.489  1.00  0.00    -0.339 N 
HETATM   14  H   UNL     1      39.530 -15.376   4.210  1.00  0.00     0.164 HD
ENDROOT
BRANCH   1  15
HETATM   15  C   UNL     1      41.128 -16.165   2.244  1.00  0.00    -0.014 A 
HETATM   16  C   UNL     1      41.372 -14.779   2.237  1.00  0.00     0.033 A 
HETATM   17  C   UNL     1      41.618 -14.104   1.036  1.00  0.00     0.044 A 
HETATM   18  C   UNL     1      41.633 -14.806  -0.171  1.00  0.00     0.085 A 
HETATM   19 BR   UNL     1      41.948 -12.239   1.105  1.00  0.00    -0.048 Br
HETATM   20  C   UNL     1      41.351 -16.173  -0.181  1.00  0.00     0.039 A 
HETATM   21  C   UNL     1      41.101 -16.849   1.016  1.00  0.00     0.014 A 
BRANCH  18  22
HETATM   22  O   UNL     1      41.850 -14.133  -1.343  1.00  0.00    -0.355 OA
HETATM   23  C   UNL     1      40.722 -14.198  -2.216  1.00  0.00     0.210 C 
ENDBRANCH  18  22
ENDBRANCH   1  15
BRANCH  12  24
HETATM   24  N   UNL     1      40.338 -14.809   6.463  1.00  0.00    -0.272 NA
HETATM   25  H   UNL     1      39.471 -14.503   6.026  1.00  0.00     0.127 HD
HETATM   26  H   UNL     1      40.894 -14.016   6.755  1.00  0.00     0.127 HD
ENDBRANCH  12  24
TORSDOF 3
ENDMDL
MODEL 4
REMARK VINA RESULT:      -7.9      2.831      3.589
REMARK  3 active torsions:
REMARK  status: ('A' for Active; 'I' for Inactive)
REMARK    1  A    between atoms: O_2  and  C_3 
REMARK    2  A    between atoms: C_7  and  C_8 
REMARK    3  A    between atoms: C_19  and  N_20 
ROOT
HETATM    1  C   UNL     1      40.609 -16.020   3.396  1.00  0.00     0.244 A 
HETATM    2  N   UNL     1      41.692 -16.814   3.926  1.00  0.00    -0.151 N 
HETATM    3  C   UNL     1      42.079 -16.685   5.236  1.00  0.00     0.734 A 
HETATM    4  N   UNL     1      43.074 -17.509   5.482  1.00  0.00    -0.060 NA
HETATM    5  C   UNL     1      43.314 -18.191   4.315  1.00  0.00     0.103 A 
HETATM    6  C   UNL     1      42.438 -17.785   3.313  1.00  0.00     0.083 A 
HETATM    7  C   UNL     1      44.269 -19.179   4.038  1.00  0.00     0.034 A 
HETATM    8  C   UNL     1      44.308 -19.734   2.754  1.00  0.00     0.002 A 
HETATM    9  C   UNL     1      43.414 -19.316   1.768  1.00  0.00     0.002 A 
HETATM   10  C   UNL     1      42.454 -18.331   2.025  1.00  0.00     0.033 A 
HETATM   11  N   UNL     1      41.488 -15.823   6.093  1.00  0.00    -0.033 NA
HETATM   12  C   UNL     1      40.507 -15.106   5.681  1.00  0.00     0.193 A 
HETATM   13  N   UNL     1      39.990 -15.134   4.380  1.00  0.00    -0.339 N 
HETATM   14  H   UNL     1      39.295 -14.463   4.091  1.00  0.00     0.164 HD
ENDROOT
BRANCH   1  15
HETATM   15  C   UNL     1      41.056 -15.156   2.230  1.00  0.00    -0.014 A 
HETATM   16  C   UNL     1      40.815 -15.550   0.900  1.00  0.00     0.033 A 
HETATM   17  C   UNL     1      41.213 -14.736  -0.167  1.00  0.00     0.044 A 
HETATM   18  C   UNL     1      41.846 -13.517   0.081  1.00  0.00     0.085 A 
HETATM   19 BR   UNL     1      40.847 -15.326  -1.931  1.00  0.00    -0.048 Br
HETATM   20  C   UNL     1      42.127 -13.136   1.394  1.00  0.00     0.039 A 
HETATM   21  C   UNL     1      41.735 -13.948   2.462  1.00  0.00     0.014 A 
BRANCH  18  22
HETATM   22  O   UNL     1      42.253 -12.739  -0.970  1.00  0.00    -0.355 OA
HETATM   23  C   UNL     1      42.479 -11.384  -0.578  1.00  0.00     0.210 C 
ENDBRANCH  18  22
ENDBRANCH   1  15
BRANCH  12  24
HETATM   24  N   UNL     1      39.869 -14.219   6.470  1.00  0.00    -0.272 NA
HETATM   25  H   UNL     1      38.942 -14.557   6.723  1.00  0.00     0.127 HD
HETATM   26  H   UNL     1      39.827 -13.264   6.140  1.00  0.00     0.127 HD
ENDBRANCH  12  24
TORSDOF 3
ENDMDL
MODEL 5
REMARK VINA RESULT:      -7.5      2.410      4.560
REMARK  3 active torsions:
REMARK  status: ('A' for Active; 'I' for Inactive)
REMARK    1  A    between atoms: O_2  and  C_3 
REMARK    2  A    between atoms: C_7  and  C_8 
REMARK    3  A    between atoms: C_19  and  N_20 
ROOT
HETATM    1  C   UNL     1      44.331 -18.289   3.148  1.00  0.00     0.244 A 
HETATM    2  N   UNL     1      44.111 -18.641   4.531  1.00  0.00    -0.151 N 
HETATM    3  C   UNL     1      44.081 -19.955   4.923  1.00  0.00     0.734 A 
HETATM    4  N   UNL     1      43.872 -20.021   6.220  1.00  0.00    -0.060 NA
HETATM    5  C   UNL     1      43.788 -18.726   6.668  1.00  0.00     0.103 A 
HETATM    6  C   UNL     1      43.956 -17.826   5.620  1.00  0.00     0.083 A 
HETATM    7  C   UNL     1      43.571 -18.242   7.965  1.00  0.00     0.034 A 
HETATM    8  C   UNL     1      43.534 -16.859   8.169  1.00  0.00     0.002 A 
HETATM    9  C   UNL     1      43.714 -15.975   7.104  1.00  0.00     0.002 A 
HETATM   10  C   UNL     1      43.931 -16.438   5.801  1.00  0.00     0.033 A 
HETATM   11  N   UNL     1      44.245 -20.981   4.059  1.00  0.00    -0.033 NA
HETATM   12  C   UNL     1      44.463 -20.726   2.821  1.00  0.00     0.193 A 
HETATM   13  N   UNL     1      44.536 -19.441   2.272  1.00  0.00    -0.339 N 
HETATM   14  H   UNL     1      44.595 -19.313   1.274  1.00  0.00     0.164 HD
ENDROOT
BRANCH   1  15
HETATM   15  C   UNL     1      43.175 -17.487   2.576  1.00  0.00    -0.014 A 
HETATM   16  C   UNL     1      43.206 -16.080   2.557  1.00  0.00     0.033 A 
HETATM   17  C   UNL     1      42.145 -15.351   2.009  1.00  0.00     0.044 A 
HETATM   18  C   UNL     1      41.046 -16.018   1.463  1.00  0.00     0.085 A 
HETATM   19 BR   UNL     1      42.259 -13.459   2.009  1.00  0.00    -0.048 Br
HETATM   20  C   UNL     1      40.985 -17.411   1.514  1.00  0.00     0.039 A 
HETATM   21  C   UNL     1      42.042 -18.142   2.065  1.00  0.00     0.014 A 
BRANCH  18  22
HETATM   22  O   UNL     1      40.001 -15.296   0.951  1.00  0.00    -0.355 OA
HETATM   23  C   UNL     1      38.936 -15.153   1.891  1.00  0.00     0.210 C 
ENDBRANCH  18  22
ENDBRANCH   1  15
BRANCH  12  24
HETATM   24  N   UNL     1      44.632 -21.692   1.895  1.00  0.00    -0.272 NA
HETATM   25  H   UNL     1      44.739 -22.604   2.336  1.00  0.00     0.127 HD
HETATM   26  H   UNL     1      45.355 -21.540   1.204  1.00  0.00     0.127 HD
ENDBRANCH  12  24
TORSDOF 3
ENDMDL
MODEL 6
REMARK VINA RESULT:      -7.4      6.294      8.737
REMARK  3 active torsions:
REMARK  status: ('A' for Active; 'I' for Inactive)
REMARK    1  A    between atoms: O_2  and  C_3 
REMARK    2  A    between atoms: C_7  and  C_8 
REMARK    3  A    between atoms: C_19  and  N_20 
ROOT
HETATM    1  C   UNL     1      39.845 -14.178  -1.254  1.00  0.00     0.244 A 
HETATM    2  N   UNL     1      40.880 -13.318  -1.779  1.00  0.00    -0.151 N 
HETATM    3  C   UNL     1      41.381 -13.514  -3.040  1.00  0.00     0.734 A 
HETATM    4  N   UNL     1      42.303 -12.610  -3.291  1.00  0.00    -0.060 NA
HETATM    5  C   UNL     1      42.377 -11.809  -2.179  1.00  0.00     0.103 A 
HETATM    6  C   UNL     1      41.470 -12.222  -1.208  1.00  0.00     0.083 A 
HETATM    7  C   UNL     1      43.199 -10.702  -1.928  1.00  0.00     0.034 A 
HETATM    8  C   UNL     1      43.078 -10.039  -0.703  1.00  0.00     0.002 A 
HETATM    9  C   UNL     1      42.155 -10.467   0.253  1.00  0.00     0.002 A 
HETATM   10  C   UNL     1      41.326 -11.570   0.022  1.00  0.00     0.033 A 
HETATM   11  N   UNL     1      40.953 -14.506  -3.853  1.00  0.00    -0.033 NA
HETATM   12  C   UNL     1      40.022 -15.289  -3.445  1.00  0.00     0.193 A 
HETATM   13  N   UNL     1      39.402 -15.208  -2.193  1.00  0.00    -0.339 N 
HETATM   14  H   UNL     1      38.760 -15.924  -1.892  1.00  0.00     0.164 HD
ENDROOT
BRANCH   1  15
HETATM   15  C   UNL     1      40.285 -14.885   0.016  1.00  0.00    -0.014 A 
HETATM   16  C   UNL     1      41.413 -15.727   0.025  1.00  0.00     0.033 A 
HETATM   17  C   UNL     1      41.822 -16.357   1.206  1.00  0.00     0.044 A 
HETATM   18  C   UNL     1      41.116 -16.147   2.392  1.00  0.00     0.085 A 
HETATM   19 BR   UNL     1      43.356 -17.468   1.146  1.00  0.00    -0.048 Br
HETATM   20  C   UNL     1      39.972 -15.348   2.386  1.00  0.00     0.039 A 
HETATM   21  C   UNL     1      39.558 -14.720   1.207  1.00  0.00     0.014 A 
BRANCH  18  22
HETATM   22  O   UNL     1      41.509 -16.788   3.537  1.00  0.00    -0.355 OA
HETATM   23  C   UNL     1      42.089 -15.888   4.482  1.00  0.00     0.210 C 
ENDBRANCH  18  22
ENDBRANCH   1  15
BRANCH  12  24
HETATM   24  N   UNL     1      39.544 -16.305  -4.192  1.00  0.00    -0.272 NA
HETATM   25  H   UNL     1      38.572 -16.143  -4.448  1.00  0.00     0.127 HD
HETATM   26  H   UNL     1      39.669 -17.239  -3.823  1.00  0.00     0.127 HD
ENDBRANCH  12  24
TORSDOF 3
ENDMDL
MODEL 7
REMARK VINA RESULT:      -7.3      1.929      2.228
REMARK  3 active torsions:
REMARK  status: ('A' for Active; 'I' for Inactive)
REMARK    1  A    between atoms: O_2  and  C_3 
REMARK    2  A    between atoms: C_7  and  C_8 
REMARK    3  A    between atoms: C_19  and  N_20 
ROOT
HETATM    1  C   UNL     1      42.449 -17.740   6.481  1.00  0.00     0.244 A 
HETATM    2  N   UNL     1      43.194 -18.419   5.446  1.00  0.00    -0.151 N 
HETATM    3  C   UNL     1      44.244 -19.241   5.766  1.00  0.00     0.734 A 
HETATM    4  N   UNL     1      44.757 -19.745   4.664  1.00  0.00    -0.060 NA
HETATM    5  C   UNL     1      44.009 -19.252   3.625  1.00  0.00     0.103 A 
HETATM    6  C   UNL     1      42.994 -18.422   4.092  1.00  0.00     0.083 A 
HETATM    7  C   UNL     1      44.137 -19.475   2.247  1.00  0.00     0.034 A 
HETATM    8  C   UNL     1      43.232 -18.856   1.379  1.00  0.00     0.002 A 
HETATM    9  C   UNL     1      42.217 -18.034   1.871  1.00  0.00     0.002 A 
HETATM   10  C   UNL     1      42.073 -17.798   3.243  1.00  0.00     0.033 A 
HETATM   11  N   UNL     1      44.645 -19.458   7.038  1.00  0.00    -0.033 NA
HETATM   12  C   UNL     1      44.007 -18.895   7.999  1.00  0.00     0.193 A 
HETATM   13  N   UNL     1      42.908 -18.043   7.835  1.00  0.00    -0.339 N 
HETATM   14  H   UNL     1      42.526 -17.543   8.622  1.00  0.00     0.164 HD
ENDROOT
BRANCH   1  15
HETATM   15  C   UNL     1      42.496 -16.231   6.316  1.00  0.00    -0.014 A 
HETATM   16  C   UNL     1      43.594 -15.483   6.783  1.00  0.00     0.033 A 
HETATM   17  C   UNL     1      43.637 -14.096   6.608  1.00  0.00     0.044 A 
HETATM   18  C   UNL     1      42.592 -13.439   5.955  1.00  0.00     0.085 A 
HETATM   19 BR   UNL     1      45.150 -13.155   7.254  1.00  0.00    -0.048 Br
HETATM   20  C   UNL     1      41.480 -14.165   5.523  1.00  0.00     0.039 A 
HETATM   21  C   UNL     1      41.431 -15.551   5.701  1.00  0.00     0.014 A 
BRANCH  18  22
HETATM   22  O   UNL     1      42.632 -12.078   5.809  1.00  0.00    -0.355 OA
HETATM   23  C   UNL     1      41.652 -11.424   6.615  1.00  0.00     0.210 C 
ENDBRANCH  18  22
ENDBRANCH   1  15
BRANCH  12  24
HETATM   24  N   UNL     1      44.346 -19.056   9.294  1.00  0.00    -0.272 NA
HETATM   25  H   UNL     1      44.557 -18.159   9.729  1.00  0.00     0.127 HD
HETATM   26  H   UNL     1      45.070 -19.733   9.494  1.00  0.00     0.127 HD
ENDBRANCH  12  24
TORSDOF 3
ENDMDL
MODEL 8
REMARK VINA RESULT:      -7.2      3.811      6.674
REMARK  3 active torsions:
REMARK  status: ('A' for Active; 'I' for Inactive)
REMARK    1  A    between atoms: O_2  and  C_3 
REMARK    2  A    between atoms: C_7  and  C_8 
REMARK    3  A    between atoms: C_19  and  N_20 
ROOT
HETATM    1  C   UNL     1      41.958 -17.310   3.497  1.00  0.00     0.244 A 
HETATM    2  N   UNL     1      42.624 -16.070   3.821  1.00  0.00    -0.151 N 
HETATM    3  C   UNL     1      42.759 -15.082   2.879  1.00  0.00     0.734 A 
HETATM    4  N   UNL     1      43.391 -14.057   3.408  1.00  0.00    -0.060 NA
HETATM    5  C   UNL     1      43.647 -14.388   4.715  1.00  0.00     0.103 A 
HETATM    6  C   UNL     1      43.153 -15.654   5.013  1.00  0.00     0.083 A 
HETATM    7  C   UNL     1      44.297 -13.649   5.713  1.00  0.00     0.034 A 
HETATM    8  C   UNL     1      44.426 -14.210   6.988  1.00  0.00     0.002 A 
HETATM    9  C   UNL     1      43.916 -15.479   7.265  1.00  0.00     0.002 A 
HETATM   10  C   UNL     1      43.264 -16.232   6.283  1.00  0.00     0.033 A 
HETATM   11  N   UNL     1      42.294 -15.204   1.616  1.00  0.00    -0.033 NA
HETATM   12  C   UNL     1      41.676 -16.277   1.279  1.00  0.00     0.193 A 
HETATM   13  N   UNL     1      41.448 -17.366   2.128  1.00  0.00    -0.339 N 
HETATM   14  H   UNL     1      41.059 -18.224   1.768  1.00  0.00     0.164 HD
ENDROOT
BRANCH   1  15
HETATM   15  C   UNL     1      42.868 -18.510   3.688  1.00  0.00    -0.014 A 
HETATM   16  C   UNL     1      43.091 -19.428   2.644  1.00  0.00     0.033 A 
HETATM   17  C   UNL     1      43.948 -20.518   2.824  1.00  0.00     0.044 A 
HETATM   18  C   UNL     1      44.601 -20.702   4.044  1.00  0.00     0.085 A 
HETATM   19 BR   UNL     1      44.207 -21.707   1.370  1.00  0.00    -0.048 Br
HETATM   20  C   UNL     1      44.357 -19.822   5.100  1.00  0.00     0.039 A 
HETATM   21  C   UNL     1      43.497 -18.734   4.925  1.00  0.00     0.014 A 
BRANCH  18  22
HETATM   22  O   UNL     1      45.420 -21.786   4.219  1.00  0.00    -0.355 OA
HETATM   23  C   UNL     1      45.063 -22.546   5.374  1.00  0.00     0.210 C 
ENDBRANCH  18  22
ENDBRANCH   1  15
BRANCH  12  24
HETATM   24  N   UNL     1      41.187 -16.480   0.039  1.00  0.00    -0.272 NA
HETATM   25  H   UNL     1      41.845 -17.009  -0.530  1.00  0.00     0.127 HD
HETATM   26  H   UNL     1      40.856 -15.663  -0.459  1.00  0.00     0.127 HD
ENDBRANCH  12  24
TORSDOF 3
ENDMDL
MODEL 9
REMARK VINA RESULT:      -6.8      3.280      5.165
REMARK  3 active torsions:
REMARK  status: ('A' for Active; 'I' for Inactive)
REMARK    1  A    between atoms: O_2  and  C_3 
REMARK    2  A    between atoms: C_7  and  C_8 
REMARK    3  A    between atoms: C_19  and  N_20 
ROOT
HETATM    1  C   UNL     1      41.604 -13.996   3.447  1.00  0.00     0.244 A 
HETATM    2  N   UNL     1      41.963 -15.305   3.942  1.00  0.00    -0.151 N 
HETATM    3  C   UNL     1      41.459 -16.437   3.356  1.00  0.00     0.734 A 
HETATM    4  N   UNL     1      41.930 -17.498   3.974  1.00  0.00    -0.060 NA
HETATM    5  C   UNL     1      42.767 -17.036   4.959  1.00  0.00     0.103 A 
HETATM    6  C   UNL     1      42.824 -15.645   4.950  1.00  0.00     0.083 A 
HETATM    7  C   UNL     1      43.518 -17.751   5.902  1.00  0.00     0.034 A 
HETATM    8  C   UNL     1      44.312 -17.040   6.808  1.00  0.00     0.002 A 
HETATM    9  C   UNL     1      44.359 -15.645   6.775  1.00  0.00     0.002 A 
HETATM   10  C   UNL     1      43.616 -14.913   5.842  1.00  0.00     0.033 A 
HETATM   11  N   UNL     1      40.607 -16.403   2.306  1.00  0.00    -0.033 NA
HETATM   12  C   UNL     1      40.269 -15.267   1.814  1.00  0.00     0.193 A 
HETATM   13  N   UNL     1      40.710 -14.028   2.291  1.00  0.00    -0.339 N 
HETATM   14  H   UNL     1      40.316 -13.172   1.933  1.00  0.00     0.164 HD
ENDROOT
BRANCH   1  15
HETATM   15  C   UNL     1      40.931 -13.151   4.515  1.00  0.00    -0.014 A 
HETATM   16  C   UNL     1      41.398 -11.858   4.818  1.00  0.00     0.033 A 
HETATM   17  C   UNL     1      40.758 -11.080   5.789  1.00  0.00     0.044 A 
HETATM   18  C   UNL     1      39.640 -11.578   6.461  1.00  0.00     0.085 A 
HETATM   19 BR   UNL     1      41.435  -9.344   6.139  1.00  0.00    -0.048 Br
HETATM   20  C   UNL     1      39.193 -12.874   6.197  1.00  0.00     0.039 A 
HETATM   21  C   UNL     1      39.833 -13.656   5.231  1.00  0.00     0.014 A 
BRANCH  18  22
HETATM   22  O   UNL     1      39.035 -10.818   7.426  1.00  0.00    -0.355 OA
HETATM   23  C   UNL     1      39.274 -11.329   8.738  1.00  0.00     0.210 C 
ENDBRANCH  18  22
ENDBRANCH   1  15
BRANCH  12  24
HETATM   24  N   UNL     1      39.421 -15.147   0.772  1.00  0.00    -0.272 NA
HETATM   25  H   UNL     1      39.414 -15.995   0.208  1.00  0.00     0.127 HD
HETATM   26  H   UNL     1      39.530 -14.327   0.189  1.00  0.00     0.127 HD
ENDBRANCH  12  24
TORSDOF 3
ENDMDL
MODEL 10
REMARK VINA RESULT:      -6.8      2.822      4.561
REMARK  3 active torsions:
REMARK  status: ('A' for Active; 'I' for Inactive)
REMARK    1  A    between atoms: O_2  and  C_3 
REMARK    2  A    between atoms: C_7  and  C_8 
REMARK    3  A    between atoms: C_19  and  N_20 
ROOT
HETATM    1  C   UNL     1      42.515 -15.203   2.855  1.00  0.00     0.244 A 
HETATM    2  N   UNL     1      42.740 -16.521   3.404  1.00  0.00    -0.151 N 
HETATM    3  C   UNL     1      42.404 -17.643   2.690  1.00  0.00     0.734 A 
HETATM    4  N   UNL     1      42.706 -18.714   3.390  1.00  0.00    -0.060 NA
HETATM    5  C   UNL     1      43.262 -18.270   4.564  1.00  0.00     0.103 A 
HETATM    6  C   UNL     1      43.316 -16.879   4.593  1.00  0.00     0.083 A 
HETATM    7  C   UNL     1      43.750 -19.001   5.655  1.00  0.00     0.034 A 
HETATM    8  C   UNL     1      44.284 -18.307   6.745  1.00  0.00     0.002 A 
HETATM    9  C   UNL     1      44.334 -16.912   6.749  1.00  0.00     0.002 A 
HETATM   10  C   UNL     1      43.852 -16.163   5.669  1.00  0.00     0.033 A 
HETATM   11  N   UNL     1      41.849 -17.589   1.458  1.00  0.00    -0.033 NA
HETATM   12  C   UNL     1      41.645 -16.445   0.915  1.00  0.00     0.193 A 
HETATM   13  N   UNL     1      41.945 -15.214   1.509  1.00  0.00    -0.339 N 
HETATM   14  H   UNL     1      41.653 -14.352   1.076  1.00  0.00     0.164 HD
ENDROOT
BRANCH   1  15
HETATM   15  C   UNL     1      41.589 -14.376   3.730  1.00  0.00    -0.014 A 
HETATM   16  C   UNL     1      41.778 -12.988   3.877  1.00  0.00     0.033 A 
HETATM   17  C   UNL     1      40.907 -12.231   4.669  1.00  0.00     0.044 A 
HETATM   18  C   UNL     1      39.833 -12.847   5.313  1.00  0.00     0.085 A 
HETATM   19 BR   UNL     1      41.216 -10.367   4.813  1.00  0.00    -0.048 Br
HETATM   20  C   UNL     1      39.660 -14.228   5.208  1.00  0.00     0.039 A 
HETATM   21  C   UNL     1      40.531 -14.988   4.422  1.00  0.00     0.014 A 
BRANCH  18  22
HETATM   22  O   UNL     1      39.000 -12.102   6.105  1.00  0.00    -0.355 OA
HETATM   23  C   UNL     1      39.338 -12.209   7.489  1.00  0.00     0.210 C 
ENDBRANCH  18  22
ENDBRANCH   1  15
BRANCH  12  24
HETATM   24  N   UNL     1      41.090 -16.306  -0.307  1.00  0.00    -0.272 NA
HETATM   25  H   UNL     1      41.530 -15.546  -0.822  1.00  0.00     0.127 HD
HETATM   26  H   UNL     1      40.082 -16.230  -0.343  1.00  0.00     0.127 HD
ENDBRANCH  12  24
TORSDOF 3
ENDMDL
