MODEL 1
REMARK VINA RESULT:      -9.9      0.000      0.000
REMARK  5 active torsions:
REMARK  status: ('A' for Active; 'I' for Inactive)
REMARK    1  A    between atoms: C_4  and  C_5 
REMARK    2  A    between atoms: C_6  and  N_7 
REMARK    3  A    between atoms: C_9  and  C_10 
REMARK       I    between atoms: C_10  and  N_11 
REMARK    4  A    between atoms: N_11  and  C_12 
REMARK    5  A    between atoms: C_12  and  C_13 
ROOT
HETATM    1  C   UNL     1      43.573 -18.225   4.170  1.00  0.00     0.019 A 
HETATM    2  C   UNL     1      43.746 -17.682   5.405  1.00  0.00     0.111 A 
HETATM    3  C   UNL     1      44.311 -18.553   6.523  1.00  0.00     0.273 A 
HETATM    4  O   UNL     1      44.455 -18.142   7.674  1.00  0.00    -0.266 OA
HETATM    5  N   UNL     1      44.647 -19.840   6.222  1.00  0.00    -0.321 N 
HETATM    6  C   UNL     1      44.485 -20.411   4.965  1.00  0.00     0.046 A 
HETATM    7  C   UNL     1      43.955 -19.642   3.922  1.00  0.00     0.006 A 
HETATM    8  C   UNL     1      44.853 -21.745   4.773  1.00  0.00     0.032 A 
HETATM    9  C   UNL     1      44.693 -22.332   3.519  1.00  0.00     0.026 A 
HETATM   10  C   UNL     1      44.171 -21.580   2.470  1.00  0.00     0.035 A 
HETATM   11 CL   UNL     1      43.972 -22.304   0.922  1.00  0.00    -0.084 Cl
HETATM   12  C   UNL     1      43.807 -20.246   2.663  1.00  0.00     0.038 A 
HETATM   13  H   UNL     1      45.018 -20.379   6.992  1.00  0.00     0.169 HD
ENDROOT
BRANCH   2  14
HETATM   14  N   UNL     1      43.399 -16.348   5.735  1.00  0.00    -0.375 N 
HETATM   15  C   UNL     1      44.315 -15.562   6.592  1.00  0.00     0.137 C 
HETATM   16  C   UNL     1      44.067 -14.066   6.386  1.00  0.00     0.096 C 
HETATM   17  C   UNL     1      42.596 -13.708   6.632  1.00  0.00     0.017 C 
HETATM   18  C   UNL     1      41.681 -14.595   5.790  1.00  0.00     0.021 C 
HETATM   19  C   UNL     1      41.979 -16.074   6.026  1.00  0.00     0.123 C 
BRANCH  16  20
HETATM   20  C   UNL     1      45.011 -13.254   7.260  1.00  0.00     0.223 C 
HETATM   21  N   UNL     1      44.487 -12.790   8.443  1.00  0.00    -0.358 N 
HETATM   22  H   UNL     1      43.621 -13.184   8.799  1.00  0.00     0.162 HD
HETATM   23  O   UNL     1      46.172 -13.038   6.922  1.00  0.00    -0.273 OA
BRANCH  21  24
HETATM   24  C   UNL     1      45.322 -12.138   9.438  1.00  0.00     0.154 C 
BRANCH  24  25
HETATM   25  C   UNL     1      44.711 -10.808   9.876  1.00  0.00     0.139 C 
HETATM   26  O   UNL     1      43.499 -10.551   9.131  1.00  0.00    -0.384 OA
HETATM   27  C   UNL     1      42.512 -10.036  10.037  1.00  0.00     0.168 C 
HETATM   28  C   UNL     1      43.221  -9.744  11.343  1.00  0.00     0.029 C 
HETATM   29  C   UNL     1      44.317 -10.780  11.342  1.00  0.00     0.035 C 
ENDBRANCH  24  25
ENDBRANCH  21  24
ENDBRANCH  16  20
ENDBRANCH   2  14
BRANCH   1  30
HETATM   30  C   UNL     1      43.013 -17.350   3.106  1.00  0.00    -0.023 A 
HETATM   31  C   UNL     1      43.848 -16.483   2.389  1.00  0.00     0.012 A 
HETATM   32  C   UNL     1      43.324 -15.686   1.369  1.00  0.00     0.001 A 
HETATM   33  C   UNL     1      41.966 -15.752   1.060  1.00  0.00     0.000 A 
HETATM   34  C   UNL     1      41.128 -16.612   1.769  1.00  0.00     0.001 A 
HETATM   35  C   UNL     1      41.649 -17.410   2.789  1.00  0.00     0.012 A 
ENDBRANCH   1  30
TORSDOF 5
ENDMDL
MODEL 2
REMARK VINA RESULT:      -9.5      4.141      6.911
REMARK  5 active torsions:
REMARK  status: ('A' for Active; 'I' for Inactive)
REMARK    1  A    between atoms: C_4  and  C_5 
REMARK    2  A    between atoms: C_6  and  N_7 
REMARK    3  A    between atoms: C_9  and  C_10 
REMARK       I    between atoms: C_10  and  N_11 
REMARK    4  A    between atoms: N_11  and  C_12 
REMARK    5  A    between atoms: C_12  and  C_13 
ROOT
HETATM    1  C   UNL     1      43.384 -18.054   3.797  1.00  0.00     0.019 A 
HETATM    2  C   UNL     1      42.961 -17.213   2.816  1.00  0.00     0.111 A 
HETATM    3  C   UNL     1      42.956 -17.705   1.372  1.00  0.00     0.273 A 
HETATM    4  O   UNL     1      42.627 -16.987   0.428  1.00  0.00    -0.266 OA
HETATM    5  N   UNL     1      43.352 -18.987   1.133  1.00  0.00    -0.321 N 
HETATM    6  C   UNL     1      43.781 -19.864   2.122  1.00  0.00     0.046 A 
HETATM    7  C   UNL     1      43.811 -19.438   3.455  1.00  0.00     0.006 A 
HETATM    8  C   UNL     1      44.177 -21.155   1.760  1.00  0.00     0.032 A 
HETATM    9  C   UNL     1      44.612 -22.044   2.741  1.00  0.00     0.026 A 
HETATM   10  C   UNL     1      44.644 -21.638   4.072  1.00  0.00     0.035 A 
HETATM   11 CL   UNL     1      45.182 -22.735   5.284  1.00  0.00    -0.084 Cl
HETATM   12  C   UNL     1      44.245 -20.348   4.432  1.00  0.00     0.038 A 
HETATM   13  H   UNL     1      43.333 -19.270   0.162  1.00  0.00     0.169 HD
ENDROOT
BRANCH   2  14
HETATM   14  N   UNL     1      42.549 -15.877   3.046  1.00  0.00    -0.375 N 
HETATM   15  C   UNL     1      41.297 -15.396   2.420  1.00  0.00     0.137 C 
HETATM   16  C   UNL     1      40.758 -14.189   3.190  1.00  0.00     0.096 C 
HETATM   17  C   UNL     1      41.814 -13.081   3.295  1.00  0.00     0.017 C 
HETATM   18  C   UNL     1      43.115 -13.635   3.872  1.00  0.00     0.021 C 
HETATM   19  C   UNL     1      43.600 -14.843   3.073  1.00  0.00     0.123 C 
BRANCH  16  20
HETATM   20  C   UNL     1      39.468 -13.695   2.553  1.00  0.00     0.223 C 
HETATM   21  N   UNL     1      38.954 -14.479   1.548  1.00  0.00    -0.358 N 
HETATM   22  H   UNL     1      39.286 -15.432   1.432  1.00  0.00     0.162 HD
HETATM   23  O   UNL     1      38.923 -12.659   2.926  1.00  0.00    -0.273 OA
BRANCH  21  24
HETATM   24  C   UNL     1      37.651 -14.207   0.964  1.00  0.00     0.154 C 
BRANCH  24  25
HETATM   25  C   UNL     1      37.793 -13.521  -0.393  1.00  0.00     0.139 C 
HETATM   26  O   UNL     1      37.808 -12.085  -0.223  1.00  0.00    -0.384 OA
HETATM   27  C   UNL     1      38.820 -11.539  -1.083  1.00  0.00     0.168 C 
HETATM   28  C   UNL     1      39.281 -12.660  -1.989  1.00  0.00     0.029 C 
HETATM   29  C   UNL     1      39.082 -13.873  -1.114  1.00  0.00     0.035 C 
ENDBRANCH  24  25
ENDBRANCH  21  24
ENDBRANCH  16  20
ENDBRANCH   2  14
BRANCH   1  30
HETATM   30  C   UNL     1      43.382 -17.540   5.192  1.00  0.00    -0.023 A 
HETATM   31  C   UNL     1      42.201 -17.535   5.946  1.00  0.00     0.012 A 
HETATM   32  C   UNL     1      42.210 -17.081   7.266  1.00  0.00     0.001 A 
HETATM   33  C   UNL     1      43.398 -16.630   7.840  1.00  0.00     0.000 A 
HETATM   34  C   UNL     1      44.578 -16.631   7.098  1.00  0.00     0.001 A 
HETATM   35  C   UNL     1      44.572 -17.085   5.777  1.00  0.00     0.012 A 
ENDBRANCH   1  30
TORSDOF 5
ENDMDL
MODEL 3
REMARK VINA RESULT:      -9.0      3.196      5.183
REMARK  5 active torsions:
REMARK  status: ('A' for Active; 'I' for Inactive)
REMARK    1  A    between atoms: C_4  and  C_5 
REMARK    2  A    between atoms: C_6  and  N_7 
REMARK    3  A    between atoms: C_9  and  C_10 
REMARK       I    between atoms: C_10  and  N_11 
REMARK    4  A    between atoms: N_11  and  C_12 
REMARK    5  A    between atoms: C_12  and  C_13 
ROOT
HETATM    1  C   UNL     1      41.419 -14.686   2.729  1.00  0.00     0.019 A 
HETATM    2  C   UNL     1      42.368 -15.549   3.179  1.00  0.00     0.111 A 
HETATM    3  C   UNL     1      43.026 -16.506   2.190  1.00  0.00     0.273 A 
HETATM    4  O   UNL     1      43.860 -17.343   2.532  1.00  0.00    -0.266 OA
HETATM    5  N   UNL     1      42.650 -16.429   0.881  1.00  0.00    -0.321 N 
HETATM    6  C   UNL     1      41.688 -15.548   0.400  1.00  0.00     0.046 A 
HETATM    7  C   UNL     1      41.055 -14.669   1.286  1.00  0.00     0.006 A 
HETATM    8  C   UNL     1      41.372 -15.565  -0.961  1.00  0.00     0.032 A 
HETATM    9  C   UNL     1      40.407 -14.690  -1.456  1.00  0.00     0.026 A 
HETATM   10  C   UNL     1      39.771 -13.805  -0.590  1.00  0.00     0.035 A 
HETATM   11 CL   UNL     1      38.579 -12.725  -1.201  1.00  0.00    -0.084 Cl
HETATM   12  C   UNL     1      40.091 -13.788   0.770  1.00  0.00     0.038 A 
HETATM   13  H   UNL     1      43.112 -17.081   0.261  1.00  0.00     0.169 HD
ENDROOT
BRANCH   2  14
HETATM   14  N   UNL     1      42.768 -15.645   4.535  1.00  0.00    -0.375 N 
HETATM   15  C   UNL     1      43.844 -14.756   5.028  1.00  0.00     0.137 C 
HETATM   16  C   UNL     1      43.751 -14.618   6.549  1.00  0.00     0.096 C 
HETATM   17  C   UNL     1      43.778 -15.990   7.233  1.00  0.00     0.017 C 
HETATM   18  C   UNL     1      42.707 -16.904   6.642  1.00  0.00     0.021 C 
HETATM   19  C   UNL     1      42.839 -16.996   5.123  1.00  0.00     0.123 C 
BRANCH  16  20
HETATM   20  C   UNL     1      44.852 -13.699   7.059  1.00  0.00     0.223 C 
HETATM   21  N   UNL     1      44.629 -13.116   8.284  1.00  0.00    -0.358 N 
HETATM   22  H   UNL     1      43.902 -13.482   8.892  1.00  0.00     0.162 HD
HETATM   23  O   UNL     1      45.876 -13.503   6.411  1.00  0.00    -0.273 OA
BRANCH  21  24
HETATM   24  C   UNL     1      45.663 -12.345   8.956  1.00  0.00     0.154 C 
BRANCH  24  25
HETATM   25  C   UNL     1      45.084 -11.067   9.560  1.00  0.00     0.139 C 
HETATM   26  O   UNL     1      43.809 -10.765   8.950  1.00  0.00    -0.384 OA
HETATM   27  C   UNL     1      42.903 -10.343   9.981  1.00  0.00     0.168 C 
HETATM   28  C   UNL     1      43.723 -10.154  11.239  1.00  0.00     0.029 C 
HETATM   29  C   UNL     1      44.822 -11.171  11.052  1.00  0.00     0.035 C 
ENDBRANCH  24  25
ENDBRANCH  21  24
ENDBRANCH  16  20
ENDBRANCH   2  14
BRANCH   1  30
HETATM   30  C   UNL     1      40.794 -13.773   3.722  1.00  0.00    -0.023 A 
HETATM   31  C   UNL     1      39.870 -14.264   4.654  1.00  0.00     0.012 A 
HETATM   32  C   UNL     1      39.309 -13.411   5.606  1.00  0.00     0.001 A 
HETATM   33  C   UNL     1      39.667 -12.063   5.633  1.00  0.00     0.000 A 
HETATM   34  C   UNL     1      40.586 -11.566   4.709  1.00  0.00     0.001 A 
HETATM   35  C   UNL     1      41.149 -12.417   3.756  1.00  0.00     0.012 A 
ENDBRANCH   1  30
TORSDOF 5
ENDMDL
MODEL 4
REMARK VINA RESULT:      -9.0      2.932      5.347
REMARK  5 active torsions:
REMARK  status: ('A' for Active; 'I' for Inactive)
REMARK    1  A    between atoms: C_4  and  C_5 
REMARK    2  A    between atoms: C_6  and  N_7 
REMARK    3  A    between atoms: C_9  and  C_10 
REMARK       I    between atoms: C_10  and  N_11 
REMARK    4  A    between atoms: N_11  and  C_12 
REMARK    5  A    between atoms: C_12  and  C_13 
ROOT
HETATM    1  C   UNL     1      41.202 -15.433   1.853  1.00  0.00     0.019 A 
HETATM    2  C   UNL     1      40.811 -14.920   3.050  1.00  0.00     0.111 A 
HETATM    3  C   UNL     1      39.854 -13.732   3.068  1.00  0.00     0.273 A 
HETATM    4  O   UNL     1      39.490 -13.189   4.111  1.00  0.00    -0.266 OA
HETATM    5  N   UNL     1      39.408 -13.253   1.872  1.00  0.00    -0.321 N 
HETATM    6  C   UNL     1      39.791 -13.768   0.638  1.00  0.00     0.046 A 
HETATM    7  C   UNL     1      40.679 -14.848   0.589  1.00  0.00     0.006 A 
HETATM    8  C   UNL     1      39.280 -13.189  -0.526  1.00  0.00     0.032 A 
HETATM    9  C   UNL     1      39.657 -13.692  -1.770  1.00  0.00     0.026 A 
HETATM   10  C   UNL     1      40.537 -14.770  -1.837  1.00  0.00     0.035 A 
HETATM   11 CL   UNL     1      41.004 -15.391  -3.373  1.00  0.00    -0.084 Cl
HETATM   12  C   UNL     1      41.044 -15.348  -0.672  1.00  0.00     0.038 A 
HETATM   13  H   UNL     1      38.776 -12.466   1.931  1.00  0.00     0.169 HD
ENDROOT
BRANCH   2  14
HETATM   14  N   UNL     1      41.266 -15.403   4.302  1.00  0.00    -0.375 N 
HETATM   15  C   UNL     1      42.585 -14.958   4.804  1.00  0.00     0.137 C 
HETATM   16  C   UNL     1      42.650 -15.126   6.323  1.00  0.00     0.096 C 
HETATM   17  C   UNL     1      42.331 -16.568   6.737  1.00  0.00     0.017 C 
HETATM   18  C   UNL     1      41.002 -17.017   6.134  1.00  0.00     0.021 C 
HETATM   19  C   UNL     1      40.989 -16.817   4.620  1.00  0.00     0.123 C 
BRANCH  16  20
HETATM   20  C   UNL     1      44.003 -14.663   6.844  1.00  0.00     0.223 C 
HETATM   21  N   UNL     1      44.003 -13.487   7.556  1.00  0.00    -0.358 N 
HETATM   22  H   UNL     1      43.129 -13.111   7.908  1.00  0.00     0.162 HD
HETATM   23  O   UNL     1      45.025 -15.313   6.641  1.00  0.00    -0.273 OA
BRANCH  21  24
HETATM   24  C   UNL     1      45.196 -13.016   8.240  1.00  0.00     0.154 C 
BRANCH  24  25
HETATM   25  C   UNL     1      44.916 -11.719   8.996  1.00  0.00     0.139 C 
HETATM   26  O   UNL     1      43.493 -11.465   9.031  1.00  0.00    -0.384 OA
HETATM   27  C   UNL     1      43.148 -11.007  10.348  1.00  0.00     0.168 C 
HETATM   28  C   UNL     1      44.447 -10.746  11.079  1.00  0.00     0.029 C 
HETATM   29  C   UNL     1      45.372 -11.754  10.444  1.00  0.00     0.035 C 
ENDBRANCH  24  25
ENDBRANCH  21  24
ENDBRANCH  16  20
ENDBRANCH   2  14
BRANCH   1  30
HETATM   30  C   UNL     1      42.141 -16.586   1.873  1.00  0.00    -0.023 A 
HETATM   31  C   UNL     1      41.652 -17.899   1.889  1.00  0.00     0.012 A 
HETATM   32  C   UNL     1      42.536 -18.979   1.875  1.00  0.00     0.001 A 
HETATM   33  C   UNL     1      43.912 -18.754   1.845  1.00  0.00     0.000 A 
HETATM   34  C   UNL     1      44.407 -17.451   1.829  1.00  0.00     0.001 A 
HETATM   35  C   UNL     1      43.525 -16.368   1.843  1.00  0.00     0.012 A 
ENDBRANCH   1  30
TORSDOF 5
ENDMDL
MODEL 5
REMARK VINA RESULT:      -8.8      4.349      5.943
REMARK  5 active torsions:
REMARK  status: ('A' for Active; 'I' for Inactive)
REMARK    1  A    between atoms: C_4  and  C_5 
REMARK    2  A    between atoms: C_6  and  N_7 
REMARK    3  A    between atoms: C_9  and  C_10 
REMARK       I    between atoms: C_10  and  N_11 
REMARK    4  A    between atoms: N_11  and  C_12 
REMARK    5  A    between atoms: C_12  and  C_13 
ROOT
HETATM    1  C   UNL     1      43.390 -18.071   3.807  1.00  0.00     0.019 A 
HETATM    2  C   UNL     1      42.958 -17.229   2.831  1.00  0.00     0.111 A 
HETATM    3  C   UNL     1      42.942 -17.719   1.387  1.00  0.00     0.273 A 
HETATM    4  O   UNL     1      42.604 -17.000   0.447  1.00  0.00    -0.266 OA
HETATM    5  N   UNL     1      43.337 -19.001   1.142  1.00  0.00    -0.321 N 
HETATM    6  C   UNL     1      43.775 -19.879   2.128  1.00  0.00     0.046 A 
HETATM    7  C   UNL     1      43.816 -19.454   3.460  1.00  0.00     0.006 A 
HETATM    8  C   UNL     1      44.169 -21.169   1.760  1.00  0.00     0.032 A 
HETATM    9  C   UNL     1      44.613 -22.059   2.736  1.00  0.00     0.026 A 
HETATM   10  C   UNL     1      44.656 -21.654   4.068  1.00  0.00     0.035 A 
HETATM   11 CL   UNL     1      45.205 -22.752   5.273  1.00  0.00    -0.084 Cl
HETATM   12  C   UNL     1      44.259 -20.365   4.433  1.00  0.00     0.038 A 
HETATM   13  H   UNL     1      43.309 -19.283   0.172  1.00  0.00     0.169 HD
ENDROOT
BRANCH   2  14
HETATM   14  N   UNL     1      42.546 -15.894   3.067  1.00  0.00    -0.375 N 
HETATM   15  C   UNL     1      41.279 -15.419   2.468  1.00  0.00     0.137 C 
HETATM   16  C   UNL     1      40.754 -14.211   3.246  1.00  0.00     0.096 C 
HETATM   17  C   UNL     1      41.808 -13.100   3.323  1.00  0.00     0.017 C 
HETATM   18  C   UNL     1      43.124 -13.647   3.871  1.00  0.00     0.021 C 
HETATM   19  C   UNL     1      43.595 -14.856   3.066  1.00  0.00     0.123 C 
BRANCH  16  20
HETATM   20  C   UNL     1      39.447 -13.724   2.637  1.00  0.00     0.223 C 
HETATM   21  N   UNL     1      39.196 -12.377   2.749  1.00  0.00    -0.358 N 
HETATM   22  H   UNL     1      39.950 -11.743   2.995  1.00  0.00     0.162 HD
HETATM   23  O   UNL     1      38.674 -14.496   2.075  1.00  0.00    -0.273 OA
BRANCH  21  24
HETATM   24  C   UNL     1      38.066 -11.758   2.077  1.00  0.00     0.154 C 
BRANCH  24  25
HETATM   25  C   UNL     1      37.918 -10.295   2.492  1.00  0.00     0.139 C 
HETATM   26  O   UNL     1      36.598  -9.815   2.150  1.00  0.00    -0.384 OA
HETATM   27  C   UNL     1      36.109  -9.021   3.242  1.00  0.00     0.168 C 
HETATM   28  C   UNL     1      37.270  -8.813   4.191  1.00  0.00     0.029 C 
HETATM   29  C   UNL     1      38.072 -10.074   3.986  1.00  0.00     0.035 C 
ENDBRANCH  24  25
ENDBRANCH  21  24
ENDBRANCH  16  20
ENDBRANCH   2  14
BRANCH   1  30
HETATM   30  C   UNL     1      43.399 -17.558   5.203  1.00  0.00    -0.023 A 
HETATM   31  C   UNL     1      44.570 -17.020   5.754  1.00  0.00     0.012 A 
HETATM   32  C   UNL     1      44.567 -16.511   7.053  1.00  0.00     0.001 A 
HETATM   33  C   UNL     1      43.395 -16.534   7.809  1.00  0.00     0.000 A 
HETATM   34  C   UNL     1      42.226 -17.069   7.270  1.00  0.00     0.001 A 
HETATM   35  C   UNL     1      42.226 -17.579   5.970  1.00  0.00     0.012 A 
ENDBRANCH   1  30
TORSDOF 5
ENDMDL
MODEL 6
REMARK VINA RESULT:      -8.8      1.808      2.378
REMARK  5 active torsions:
REMARK  status: ('A' for Active; 'I' for Inactive)
REMARK    1  A    between atoms: C_4  and  C_5 
REMARK    2  A    between atoms: C_6  and  N_7 
REMARK    3  A    between atoms: C_9  and  C_10 
REMARK       I    between atoms: C_10  and  N_11 
REMARK    4  A    between atoms: N_11  and  C_12 
REMARK    5  A    between atoms: C_12  and  C_13 
ROOT
HETATM    1  C   UNL     1      42.925 -17.955   4.245  1.00  0.00     0.019 A 
HETATM    2  C   UNL     1      42.662 -17.319   5.418  1.00  0.00     0.111 A 
HETATM    3  C   UNL     1      43.048 -17.996   6.728  1.00  0.00     0.273 A 
HETATM    4  O   UNL     1      42.804 -17.502   7.828  1.00  0.00    -0.266 OA
HETATM    5  N   UNL     1      43.674 -19.207   6.662  1.00  0.00    -0.321 N 
HETATM    6  C   UNL     1      43.959 -19.868   5.473  1.00  0.00     0.046 A 
HETATM    7  C   UNL     1      43.602 -19.280   4.254  1.00  0.00     0.006 A 
HETATM    8  C   UNL     1      44.593 -21.113   5.524  1.00  0.00     0.032 A 
HETATM    9  C   UNL     1      44.882 -21.789   4.340  1.00  0.00     0.026 A 
HETATM   10  C   UNL     1      44.538 -21.216   3.119  1.00  0.00     0.035 A 
HETATM   11 CL   UNL     1      44.893 -22.051   1.657  1.00  0.00    -0.084 Cl
HETATM   12  C   UNL     1      43.906 -19.971   3.070  1.00  0.00     0.038 A 
HETATM   13  H   UNL     1      43.913 -19.618   7.554  1.00  0.00     0.169 HD
ENDROOT
BRANCH   2  14
HETATM   14  N   UNL     1      42.010 -16.064   5.506  1.00  0.00    -0.375 N 
HETATM   15  C   UNL     1      42.584 -15.019   6.383  1.00  0.00     0.137 C 
HETATM   16  C   UNL     1      42.096 -13.639   5.940  1.00  0.00     0.096 C 
HETATM   17  C   UNL     1      40.564 -13.579   5.898  1.00  0.00     0.017 C 
HETATM   18  C   UNL     1      40.007 -14.720   5.049  1.00  0.00     0.021 C 
HETATM   19  C   UNL     1      40.535 -16.070   5.527  1.00  0.00     0.123 C 
BRANCH  16  20
HETATM   20  C   UNL     1      42.689 -12.561   6.835  1.00  0.00     0.223 C 
HETATM   21  N   UNL     1      41.836 -11.549   7.206  1.00  0.00    -0.358 N 
HETATM   22  H   UNL     1      40.834 -11.667   7.090  1.00  0.00     0.162 HD
HETATM   23  O   UNL     1      43.860 -12.606   7.204  1.00  0.00    -0.273 OA
BRANCH  21  24
HETATM   24  C   UNL     1      42.228 -10.546   8.182  1.00  0.00     0.154 C 
BRANCH  24  25
HETATM   25  C   UNL     1      41.030 -10.100   9.018  1.00  0.00     0.139 C 
HETATM   26  O   UNL     1      40.565  -8.808   8.566  1.00  0.00    -0.384 OA
HETATM   27  C   UNL     1      39.130  -8.830   8.537  1.00  0.00     0.168 C 
HETATM   28  C   UNL     1      38.694 -10.106   9.225  1.00  0.00     0.029 C 
HETATM   29  C   UNL     1      39.840 -11.036   8.914  1.00  0.00     0.035 C 
ENDBRANCH  24  25
ENDBRANCH  21  24
ENDBRANCH  16  20
ENDBRANCH   2  14
BRANCH   1  30
HETATM   30  C   UNL     1      42.527 -17.268   2.987  1.00  0.00    -0.023 A 
HETATM   31  C   UNL     1      41.372 -17.662   2.298  1.00  0.00     0.012 A 
HETATM   32  C   UNL     1      40.985 -16.995   1.135  1.00  0.00     0.001 A 
HETATM   33  C   UNL     1      41.747 -15.931   0.654  1.00  0.00     0.000 A 
HETATM   34  C   UNL     1      42.899 -15.533   1.332  1.00  0.00     0.001 A 
HETATM   35  C   UNL     1      43.289 -16.198   2.496  1.00  0.00     0.012 A 
ENDBRANCH   1  30
TORSDOF 5
ENDMDL
MODEL 7
REMARK VINA RESULT:      -8.6      3.015      4.584
REMARK  5 active torsions:
REMARK  status: ('A' for Active; 'I' for Inactive)
REMARK    1  A    between atoms: C_4  and  C_5 
REMARK    2  A    between atoms: C_6  and  N_7 
REMARK    3  A    between atoms: C_9  and  C_10 
REMARK       I    between atoms: C_10  and  N_11 
REMARK    4  A    between atoms: N_11  and  C_12 
REMARK    5  A    between atoms: C_12  and  C_13 
ROOT
HETATM    1  C   UNL     1      42.682 -16.225   3.804  1.00  0.00     0.019 A 
HETATM    2  C   UNL     1      41.756 -15.488   3.135  1.00  0.00     0.111 A 
HETATM    3  C   UNL     1      41.097 -16.080   1.893  1.00  0.00     0.273 A 
HETATM    4  O   UNL     1      40.283 -15.456   1.214  1.00  0.00    -0.266 OA
HETATM    5  N   UNL     1      41.448 -17.345   1.526  1.00  0.00    -0.321 N 
HETATM    6  C   UNL     1      42.386 -18.117   2.201  1.00  0.00     0.046 A 
HETATM    7  C   UNL     1      43.020 -17.596   3.335  1.00  0.00     0.006 A 
HETATM    8  C   UNL     1      42.678 -19.400   1.727  1.00  0.00     0.032 A 
HETATM    9  C   UNL     1      43.619 -20.183   2.392  1.00  0.00     0.026 A 
HETATM   10  C   UNL     1      44.255 -19.682   3.524  1.00  0.00     0.035 A 
HETATM   11 CL   UNL     1      45.418 -20.649   4.345  1.00  0.00    -0.084 Cl
HETATM   12  C   UNL     1      43.960 -18.401   3.998  1.00  0.00     0.038 A 
HETATM   13  H   UNL     1      40.986 -17.698   0.699  1.00  0.00     0.169 HD
ENDROOT
BRANCH   2  14
HETATM   14  N   UNL     1      41.382 -14.171   3.501  1.00  0.00    -0.375 N 
HETATM   15  C   UNL     1      40.427 -13.981   4.615  1.00  0.00     0.137 C 
HETATM   16  C   UNL     1      40.572 -12.573   5.194  1.00  0.00     0.096 C 
HETATM   17  C   UNL     1      40.408 -11.505   4.106  1.00  0.00     0.017 C 
HETATM   18  C   UNL     1      41.354 -11.781   2.939  1.00  0.00     0.021 C 
HETATM   19  C   UNL     1      41.174 -13.202   2.408  1.00  0.00     0.123 C 
BRANCH  16  20
HETATM   20  C   UNL     1      39.596 -12.377   6.345  1.00  0.00     0.223 C 
HETATM   21  N   UNL     1      40.133 -11.892   7.514  1.00  0.00    -0.358 N 
HETATM   22  H   UNL     1      41.055 -11.469   7.507  1.00  0.00     0.162 HD
HETATM   23  O   UNL     1      38.401 -12.632   6.223  1.00  0.00    -0.273 OA
BRANCH  21  24
HETATM   24  C   UNL     1      39.289 -11.512   8.635  1.00  0.00     0.154 C 
BRANCH  24  25
HETATM   25  C   UNL     1      40.049 -10.614   9.610  1.00  0.00     0.139 C 
HETATM   26  O   UNL     1      40.358 -11.345  10.818  1.00  0.00    -0.384 OA
HETATM   27  C   UNL     1      41.703 -11.028  11.207  1.00  0.00     0.168 C 
HETATM   28  C   UNL     1      42.154  -9.876  10.335  1.00  0.00     0.029 C 
HETATM   29  C   UNL     1      41.378 -10.121   9.065  1.00  0.00     0.035 C 
ENDBRANCH  24  25
ENDBRANCH  21  24
ENDBRANCH  16  20
ENDBRANCH   2  14
BRANCH   1  30
HETATM   30  C   UNL     1      43.310 -15.613   5.006  1.00  0.00    -0.023 A 
HETATM   31  C   UNL     1      44.015 -14.407   4.901  1.00  0.00     0.012 A 
HETATM   32  C   UNL     1      44.576 -13.820   6.037  1.00  0.00     0.001 A 
HETATM   33  C   UNL     1      44.436 -14.433   7.281  1.00  0.00     0.000 A 
HETATM   34  C   UNL     1      43.736 -15.634   7.394  1.00  0.00     0.001 A 
HETATM   35  C   UNL     1      43.174 -16.223   6.260  1.00  0.00     0.012 A 
ENDBRANCH   1  30
TORSDOF 5
ENDMDL
MODEL 8
REMARK VINA RESULT:      -8.6      3.076      4.433
REMARK  5 active torsions:
REMARK  status: ('A' for Active; 'I' for Inactive)
REMARK    1  A    between atoms: C_4  and  C_5 
REMARK    2  A    between atoms: C_6  and  N_7 
REMARK    3  A    between atoms: C_9  and  C_10 
REMARK       I    between atoms: C_10  and  N_11 
REMARK    4  A    between atoms: N_11  and  C_12 
REMARK    5  A    between atoms: C_12  and  C_13 
ROOT
HETATM    1  C   UNL     1      43.357 -17.831   3.895  1.00  0.00     0.019 A 
HETATM    2  C   UNL     1      42.884 -16.972   2.954  1.00  0.00     0.111 A 
HETATM    3  C   UNL     1      42.782 -17.445   1.507  1.00  0.00     0.273 A 
HETATM    4  O   UNL     1      42.403 -16.711   0.595  1.00  0.00    -0.266 OA
HETATM    5  N   UNL     1      43.147 -18.729   1.228  1.00  0.00    -0.321 N 
HETATM    6  C   UNL     1      43.626 -19.624   2.178  1.00  0.00     0.046 A 
HETATM    7  C   UNL     1      43.746 -19.215   3.511  1.00  0.00     0.006 A 
HETATM    8  C   UNL     1      43.982 -20.914   1.775  1.00  0.00     0.032 A 
HETATM    9  C   UNL     1      44.468 -21.820   2.716  1.00  0.00     0.026 A 
HETATM   10  C   UNL     1      44.589 -21.431   4.048  1.00  0.00     0.035 A 
HETATM   11 CL   UNL     1      45.189 -22.550   5.209  1.00  0.00    -0.084 Cl
HETATM   12  C   UNL     1      44.229 -20.142   4.447  1.00  0.00     0.038 A 
HETATM   13  H   UNL     1      43.062 -19.000   0.257  1.00  0.00     0.169 HD
ENDROOT
BRANCH   2  14
HETATM   14  N   UNL     1      42.503 -15.635   3.226  1.00  0.00    -0.375 N 
HETATM   15  C   UNL     1      41.360 -15.385   4.132  1.00  0.00     0.137 C 
HETATM   16  C   UNL     1      41.452 -13.973   4.713  1.00  0.00     0.096 C 
HETATM   17  C   UNL     1      41.547 -12.921   3.601  1.00  0.00     0.017 C 
HETATM   18  C   UNL     1      42.688 -13.257   2.642  1.00  0.00     0.021 C 
HETATM   19  C   UNL     1      42.552 -14.679   2.103  1.00  0.00     0.123 C 
BRANCH  16  20
HETATM   20  C   UNL     1      40.282 -13.715   5.650  1.00  0.00     0.223 C 
HETATM   21  N   UNL     1      40.444 -12.685   6.546  1.00  0.00    -0.358 N 
HETATM   22  H   UNL     1      41.186 -12.007   6.405  1.00  0.00     0.162 HD
HETATM   23  O   UNL     1      39.256 -14.388   5.596  1.00  0.00    -0.273 OA
BRANCH  21  24
HETATM   24  C   UNL     1      39.349 -12.234   7.389  1.00  0.00     0.154 C 
BRANCH  24  25
HETATM   25  C   UNL     1      39.578 -10.799   7.859  1.00  0.00     0.139 C 
HETATM   26  O   UNL     1      38.479 -10.371   8.696  1.00  0.00    -0.384 OA
HETATM   27  C   UNL     1      39.018  -9.649   9.814  1.00  0.00     0.168 C 
HETATM   28  C   UNL     1      40.487  -9.422   9.527  1.00  0.00     0.029 C 
HETATM   29  C   UNL     1      40.834 -10.631   8.695  1.00  0.00     0.035 C 
ENDBRANCH  24  25
ENDBRANCH  21  24
ENDBRANCH  16  20
ENDBRANCH   2  14
BRANCH   1  30
HETATM   30  C   UNL     1      43.450 -17.334   5.294  1.00  0.00    -0.023 A 
HETATM   31  C   UNL     1      42.563 -17.801   6.274  1.00  0.00     0.012 A 
HETATM   32  C   UNL     1      42.674 -17.356   7.592  1.00  0.00     0.001 A 
HETATM   33  C   UNL     1      43.670 -16.445   7.940  1.00  0.00     0.000 A 
HETATM   34  C   UNL     1      44.557 -15.974   6.972  1.00  0.00     0.001 A 
HETATM   35  C   UNL     1      44.449 -16.417   5.652  1.00  0.00     0.012 A 
ENDBRANCH   1  30
TORSDOF 5
ENDMDL
MODEL 9
REMARK VINA RESULT:      -8.6      3.938      7.401
REMARK  5 active torsions:
REMARK  status: ('A' for Active; 'I' for Inactive)
REMARK    1  A    between atoms: C_4  and  C_5 
REMARK    2  A    between atoms: C_6  and  N_7 
REMARK    3  A    between atoms: C_9  and  C_10 
REMARK       I    between atoms: C_10  and  N_11 
REMARK    4  A    between atoms: N_11  and  C_12 
REMARK    5  A    between atoms: C_12  and  C_13 
ROOT
HETATM    1  C   UNL     1      42.642 -15.927   4.377  1.00  0.00     0.019 A 
HETATM    2  C   UNL     1      42.486 -14.607   4.664  1.00  0.00     0.111 A 
HETATM    3  C   UNL     1      42.988 -14.078   6.004  1.00  0.00     0.273 A 
HETATM    4  O   UNL     1      42.844 -12.906   6.350  1.00  0.00    -0.266 OA
HETATM    5  N   UNL     1      43.602 -14.956   6.848  1.00  0.00    -0.321 N 
HETATM    6  C   UNL     1      43.777 -16.307   6.569  1.00  0.00     0.046 A 
HETATM    7  C   UNL     1      43.314 -16.825   5.354  1.00  0.00     0.006 A 
HETATM    8  C   UNL     1      44.411 -17.118   7.514  1.00  0.00     0.032 A 
HETATM    9  C   UNL     1      44.590 -18.474   7.250  1.00  0.00     0.026 A 
HETATM   10  C   UNL     1      44.139 -19.006   6.044  1.00  0.00     0.035 A 
HETATM   11 CL   UNL     1      44.359 -20.681   5.718  1.00  0.00    -0.084 Cl
HETATM   12  C   UNL     1      43.509 -18.192   5.100  1.00  0.00     0.038 A 
HETATM   13  H   UNL     1      43.919 -14.562   7.723  1.00  0.00     0.169 HD
ENDROOT
BRANCH   2  14
HETATM   14  N   UNL     1      41.848 -13.681   3.801  1.00  0.00    -0.375 N 
HETATM   15  C   UNL     1      42.503 -13.326   2.522  1.00  0.00     0.137 C 
HETATM   16  C   UNL     1      41.465 -12.787   1.536  1.00  0.00     0.096 C 
HETATM   17  C   UNL     1      40.691 -11.607   2.135  1.00  0.00     0.017 C 
HETATM   18  C   UNL     1      40.098 -11.988   3.490  1.00  0.00     0.021 C 
HETATM   19  C   UNL     1      41.174 -12.530   4.429  1.00  0.00     0.123 C 
BRANCH  16  20
HETATM   20  C   UNL     1      42.134 -12.427   0.217  1.00  0.00     0.223 C 
HETATM   21  N   UNL     1      41.967 -13.327  -0.808  1.00  0.00    -0.358 N 
HETATM   22  H   UNL     1      41.244 -14.037  -0.743  1.00  0.00     0.162 HD
HETATM   23  O   UNL     1      42.776 -11.388   0.086  1.00  0.00    -0.273 OA
BRANCH  21  24
HETATM   24  C   UNL     1      42.418 -13.031  -2.158  1.00  0.00     0.154 C 
BRANCH  24  25
HETATM   25  C   UNL     1      41.392 -13.493  -3.191  1.00  0.00     0.139 C 
HETATM   26  O   UNL     1      41.564 -14.903  -3.462  1.00  0.00    -0.384 OA
HETATM   27  C   UNL     1      40.265 -15.511  -3.531  1.00  0.00     0.168 C 
HETATM   28  C   UNL     1      39.251 -14.387  -3.538  1.00  0.00     0.029 C 
HETATM   29  C   UNL     1      39.955 -13.325  -2.730  1.00  0.00     0.035 C 
ENDBRANCH  24  25
ENDBRANCH  21  24
ENDBRANCH  16  20
ENDBRANCH   2  14
BRANCH   1  30
HETATM   30  C   UNL     1      42.134 -16.409   3.065  1.00  0.00    -0.023 A 
HETATM   31  C   UNL     1      43.016 -16.623   1.997  1.00  0.00     0.012 A 
HETATM   32  C   UNL     1      42.540 -17.107   0.778  1.00  0.00     0.001 A 
HETATM   33  C   UNL     1      41.182 -17.380   0.617  1.00  0.00     0.000 A 
HETATM   34  C   UNL     1      40.297 -17.169   1.674  1.00  0.00     0.001 A 
HETATM   35  C   UNL     1      40.770 -16.686   2.895  1.00  0.00     0.012 A 
ENDBRANCH   1  30
TORSDOF 5
ENDMDL
MODEL 10
REMARK VINA RESULT:      -8.5      3.705      9.085
REMARK  5 active torsions:
REMARK  status: ('A' for Active; 'I' for Inactive)
REMARK    1  A    between atoms: C_4  and  C_5 
REMARK    2  A    between atoms: C_6  and  N_7 
REMARK    3  A    between atoms: C_9  and  C_10 
REMARK       I    between atoms: C_10  and  N_11 
REMARK    4  A    between atoms: N_11  and  C_12 
REMARK    5  A    between atoms: C_12  and  C_13 
ROOT
HETATM    1  C   UNL     1      42.303 -12.173   6.909  1.00  0.00     0.019 A 
HETATM    2  C   UNL     1      43.196 -13.165   6.647  1.00  0.00     0.111 A 
HETATM    3  C   UNL     1      44.376 -13.366   7.592  1.00  0.00     0.273 A 
HETATM    4  O   UNL     1      45.245 -14.214   7.397  1.00  0.00    -0.266 OA
HETATM    5  N   UNL     1      44.466 -12.553   8.684  1.00  0.00    -0.321 N 
HETATM    6  C   UNL     1      43.560 -11.538   8.972  1.00  0.00     0.046 A 
HETATM    7  C   UNL     1      42.475 -11.319   8.115  1.00  0.00     0.006 A 
HETATM    8  C   UNL     1      43.757 -10.757  10.114  1.00  0.00     0.032 A 
HETATM    9  C   UNL     1      42.859  -9.734  10.413  1.00  0.00     0.026 A 
HETATM   10  C   UNL     1      41.772  -9.505   9.574  1.00  0.00     0.035 A 
HETATM   11 CL   UNL     1      40.664  -8.242   9.944  1.00  0.00    -0.084 Cl
HETATM   12  C   UNL     1      41.575 -10.289   8.435  1.00  0.00     0.038 A 
HETATM   13  H   UNL     1      45.262 -12.722   9.282  1.00  0.00     0.169 HD
ENDROOT
BRANCH   2  14
HETATM   14  N   UNL     1      43.119 -14.016   5.517  1.00  0.00    -0.375 N 
HETATM   15  C   UNL     1      43.181 -15.481   5.719  1.00  0.00     0.137 C 
HETATM   16  C   UNL     1      42.555 -16.201   4.523  1.00  0.00     0.096 C 
HETATM   17  C   UNL     1      43.218 -15.771   3.208  1.00  0.00     0.017 C 
HETATM   18  C   UNL     1      43.205 -14.250   3.074  1.00  0.00     0.021 C 
HETATM   19  C   UNL     1      43.830 -13.584   4.299  1.00  0.00     0.123 C 
BRANCH  16  20
HETATM   20  C   UNL     1      42.612 -17.707   4.730  1.00  0.00     0.223 C 
HETATM   21  N   UNL     1      43.866 -18.270   4.718  1.00  0.00    -0.358 N 
HETATM   22  H   UNL     1      44.685 -17.678   4.815  1.00  0.00     0.162 HD
HETATM   23  O   UNL     1      41.592 -18.369   4.903  1.00  0.00    -0.273 OA
BRANCH  21  24
HETATM   24  C   UNL     1      44.072 -19.668   5.058  1.00  0.00     0.154 C 
BRANCH  24  25
HETATM   25  C   UNL     1      44.739 -20.417   3.906  1.00  0.00     0.139 C 
HETATM   26  O   UNL     1      44.917 -21.808   4.258  1.00  0.00    -0.384 OA
HETATM   27  C   UNL     1      44.573 -22.610   3.118  1.00  0.00     0.168 C 
HETATM   28  C   UNL     1      44.404 -21.665   1.947  1.00  0.00     0.029 C 
HETATM   29  C   UNL     1      43.920 -20.409   2.627  1.00  0.00     0.035 C 
ENDBRANCH  24  25
ENDBRANCH  21  24
ENDBRANCH  16  20
ENDBRANCH   2  14
BRANCH   1  30
HETATM   30  C   UNL     1      41.170 -12.000   5.961  1.00  0.00    -0.023 A 
HETATM   31  C   UNL     1      41.263 -11.089   4.901  1.00  0.00     0.012 A 
HETATM   32  C   UNL     1      40.209 -10.953   3.996  1.00  0.00     0.001 A 
HETATM   33  C   UNL     1      39.058 -11.727   4.143  1.00  0.00     0.000 A 
HETATM   34  C   UNL     1      38.957 -12.636   5.196  1.00  0.00     0.001 A 
HETATM   35  C   UNL     1      40.009 -12.774   6.103  1.00  0.00     0.012 A 
ENDBRANCH   1  30
TORSDOF 5
ENDMDL
