MODEL 1
REMARK VINA RESULT:      -8.8      0.000      0.000
REMARK  3 active torsions:
REMARK  status: ('A' for Active; 'I' for Inactive)
REMARK    1  A    between atoms: C_2  and  C_3 
REMARK    2  A    between atoms: C_9  and  N_10 
REMARK    3  A    between atoms: C_12  and  C_13 
ROOT
HETATM    1  C   UNL     1      41.643 -15.534   2.830  1.00  0.00    -0.006 A 
HETATM    2  C   UNL     1      42.172 -14.854   3.977  1.00  0.00     0.063 A 
HETATM    3  C   UNL     1      43.087 -15.552   4.773  1.00  0.00     0.165 A 
HETATM    4  N   UNL     1      43.663 -15.024   5.841  1.00  0.00    -0.222 NA
HETATM    5  C   UNL     1      43.343 -13.775   6.163  1.00  0.00     0.237 A 
HETATM    6  N   UNL     1      42.474 -13.004   5.515  1.00  0.00    -0.229 NA
HETATM    7  C   UNL     1      41.893 -13.551   4.442  1.00  0.00     0.117 A 
HETATM    8  N   UNL     1      43.441 -16.807   4.513  1.00  0.00    -0.228 NA
HETATM    9  C   UNL     1      42.924 -17.471   3.457  1.00  0.00     0.070 A 
HETATM   10  C   UNL     1      42.038 -16.857   2.592  1.00  0.00     0.046 A 
ENDROOT
BRANCH   9  11
HETATM   11  C   UNL     1      43.364 -18.872   3.305  1.00  0.00    -0.004 A 
HETATM   12  C   UNL     1      43.957 -19.583   4.368  1.00  0.00     0.053 A 
HETATM   13  C   UNL     1      44.366 -20.885   4.154  1.00  0.00     0.106 A 
HETATM   14  C   UNL     1      44.211 -21.507   2.940  1.00  0.00     0.105 A 
HETATM   15  O   UNL     1      44.961 -21.688   5.077  1.00  0.00    -0.323 OA
HETATM   16  O   UNL     1      44.685 -22.781   2.945  1.00  0.00    -0.323 OA
HETATM   17  C   UNL     1      43.641 -20.862   1.869  1.00  0.00     0.040 A 
HETATM   18  C   UNL     1      45.176 -22.883   4.297  1.00  0.00     0.352 A 
HETATM   19  C   UNL     1      43.222 -19.538   2.057  1.00  0.00     0.017 A 
ENDBRANCH   9  11
BRANCH   1  20
HETATM   20  C   UNL     1      40.710 -14.928   1.867  1.00  0.00    -0.025 A 
HETATM   21  C   UNL     1      41.181 -14.302   0.701  1.00  0.00     0.014 A 
HETATM   22  C   UNL     1      40.291 -13.744  -0.223  1.00  0.00     0.024 A 
HETATM   23  C   UNL     1      38.921 -13.820   0.005  1.00  0.00     0.034 A 
HETATM   24  C   UNL     1      38.431 -14.446   1.149  1.00  0.00     0.024 A 
HETATM   25 CL   UNL     1      37.824 -13.137  -1.131  1.00  0.00    -0.084 Cl
HETATM   26  C   UNL     1      39.321 -14.998   2.074  1.00  0.00     0.014 A 
ENDBRANCH   1  20
BRANCH   7  27
HETATM   27  N   UNL     1      41.004 -12.684   3.809  1.00  0.00    -0.286 NA
HETATM   28  H   UNL     1      41.184 -12.731   2.810  1.00  0.00     0.125 HD
HETATM   29  H   UNL     1      41.069 -11.735   4.159  1.00  0.00     0.125 HD
ENDBRANCH   7  27
TORSDOF 3
ENDMDL
MODEL 2
REMARK VINA RESULT:      -8.5      2.583      3.938
REMARK  3 active torsions:
REMARK  status: ('A' for Active; 'I' for Inactive)
REMARK    1  A    between atoms: C_2  and  C_3 
REMARK    2  A    between atoms: C_9  and  N_10 
REMARK    3  A    between atoms: C_12  and  C_13 
ROOT
HETATM    1  C   UNL     1      41.654 -15.438   3.011  1.00  0.00    -0.006 A 
HETATM    2  C   UNL     1      41.403 -15.212   1.616  1.00  0.00     0.063 A 
HETATM    3  C   UNL     1      41.699 -16.255   0.733  1.00  0.00     0.165 A 
HETATM    4  N   UNL     1      41.488 -16.177  -0.572  1.00  0.00    -0.222 NA
HETATM    5  C   UNL     1      40.978 -15.047  -1.050  1.00  0.00     0.237 A 
HETATM    6  N   UNL     1      40.672 -13.969  -0.333  1.00  0.00    -0.229 NA
HETATM    7  C   UNL     1      40.896 -14.057   0.982  1.00  0.00     0.117 A 
HETATM    8  N   UNL     1      42.222 -17.406   1.143  1.00  0.00    -0.228 NA
HETATM    9  C   UNL     1      42.496 -17.619   2.448  1.00  0.00     0.070 A 
HETATM   10  C   UNL     1      42.209 -16.663   3.404  1.00  0.00     0.046 A 
ENDROOT
BRANCH   9  11
HETATM   11  C   UNL     1      43.116 -18.921   2.767  1.00  0.00    -0.004 A 
HETATM   12  C   UNL     1      43.624 -19.205   4.051  1.00  0.00     0.053 A 
HETATM   13  C   UNL     1      44.209 -20.436   4.280  1.00  0.00     0.106 A 
HETATM   14  C   UNL     1      44.310 -21.388   3.297  1.00  0.00     0.105 A 
HETATM   15  O   UNL     1      44.751 -20.846   5.459  1.00  0.00    -0.323 OA
HETATM   16  O   UNL     1      44.924 -22.520   3.732  1.00  0.00    -0.323 OA
HETATM   17  C   UNL     1      43.834 -21.165   2.027  1.00  0.00     0.040 A 
HETATM   18  C   UNL     1      45.218 -22.163   5.098  1.00  0.00     0.352 A 
HETATM   19  C   UNL     1      43.239 -19.923   1.767  1.00  0.00     0.017 A 
ENDBRANCH   9  11
BRANCH   1  20
HETATM   20  C   UNL     1      41.355 -14.464   4.073  1.00  0.00    -0.025 A 
HETATM   21  C   UNL     1      42.307 -13.508   4.465  1.00  0.00     0.014 A 
HETATM   22  C   UNL     1      42.013 -12.571   5.460  1.00  0.00     0.024 A 
HETATM   23  C   UNL     1      40.759 -12.572   6.063  1.00  0.00     0.034 A 
HETATM   24  C   UNL     1      39.796 -13.503   5.681  1.00  0.00     0.024 A 
HETATM   25 CL   UNL     1      40.395 -11.418   7.286  1.00  0.00    -0.084 Cl
HETATM   26  C   UNL     1      40.093 -14.443   4.690  1.00  0.00     0.014 A 
ENDBRANCH   1  20
BRANCH   7  27
HETATM   27  N   UNL     1      40.545 -12.896   1.669  1.00  0.00    -0.286 NA
HETATM   28  H   UNL     1      40.706 -13.062   2.659  1.00  0.00     0.125 HD
HETATM   29  H   UNL     1      39.591 -12.608   1.485  1.00  0.00     0.125 HD
ENDBRANCH   7  27
TORSDOF 3
ENDMDL
MODEL 3
REMARK VINA RESULT:      -8.3      4.708      8.204
REMARK  3 active torsions:
REMARK  status: ('A' for Active; 'I' for Inactive)
REMARK    1  A    between atoms: C_2  and  C_3 
REMARK    2  A    between atoms: C_9  and  N_10 
REMARK    3  A    between atoms: C_12  and  C_13 
ROOT
HETATM    1  C   UNL     1      43.577 -16.801   5.381  1.00  0.00    -0.006 A 
HETATM    2  C   UNL     1      42.576 -16.247   4.517  1.00  0.00     0.063 A 
HETATM    3  C   UNL     1      42.379 -14.863   4.564  1.00  0.00     0.165 A 
HETATM    4  N   UNL     1      41.504 -14.232   3.797  1.00  0.00    -0.222 NA
HETATM    5  C   UNL     1      40.780 -14.962   2.954  1.00  0.00     0.237 A 
HETATM    6  N   UNL     1      40.843 -16.284   2.820  1.00  0.00    -0.229 NA
HETATM    7  C   UNL     1      41.726 -16.911   3.605  1.00  0.00     0.117 A 
HETATM    8  N   UNL     1      43.060 -14.077   5.392  1.00  0.00    -0.228 NA
HETATM    9  C   UNL     1      43.981 -14.589   6.236  1.00  0.00     0.070 A 
HETATM   10  C   UNL     1      44.272 -15.941   6.242  1.00  0.00     0.046 A 
ENDROOT
BRANCH   9  11
HETATM   11  C   UNL     1      44.636 -13.617   7.135  1.00  0.00    -0.004 A 
HETATM   12  C   UNL     1      43.930 -12.974   8.171  1.00  0.00     0.053 A 
HETATM   13  C   UNL     1      44.596 -12.060   8.965  1.00  0.00     0.106 A 
HETATM   14  C   UNL     1      45.922 -11.761   8.775  1.00  0.00     0.105 A 
HETATM   15  O   UNL     1      44.046 -11.356   9.991  1.00  0.00    -0.323 OA
HETATM   16  O   UNL     1      46.377 -10.834   9.659  1.00  0.00    -0.323 OA
HETATM   17  C   UNL     1      46.658 -12.356   7.779  1.00  0.00     0.040 A 
HETATM   18  C   UNL     1      45.178 -10.567  10.415  1.00  0.00     0.352 A 
HETATM   19  C   UNL     1      46.006 -13.284   6.956  1.00  0.00     0.017 A 
ENDBRANCH   9  11
BRANCH   1  20
HETATM   20  C   UNL     1      43.939 -18.227   5.421  1.00  0.00    -0.025 A 
HETATM   21  C   UNL     1      43.514 -19.052   6.475  1.00  0.00     0.014 A 
HETATM   22  C   UNL     1      43.842 -20.411   6.500  1.00  0.00     0.024 A 
HETATM   23  C   UNL     1      44.588 -20.960   5.461  1.00  0.00     0.034 A 
HETATM   24  C   UNL     1      45.010 -20.164   4.400  1.00  0.00     0.024 A 
HETATM   25 CL   UNL     1      44.990 -22.633   5.489  1.00  0.00    -0.084 Cl
HETATM   26  C   UNL     1      44.686 -18.805   4.380  1.00  0.00     0.014 A 
ENDBRANCH   1  20
BRANCH   7  27
HETATM   27  N   UNL     1      41.743 -18.290   3.404  1.00  0.00    -0.286 NA
HETATM   28  H   UNL     1      41.149 -18.494   2.605  1.00  0.00     0.125 HD
HETATM   29  H   UNL     1      41.457 -18.807   4.228  1.00  0.00     0.125 HD
ENDBRANCH   7  27
TORSDOF 3
ENDMDL
MODEL 4
REMARK VINA RESULT:      -8.1      4.121      7.233
REMARK  3 active torsions:
REMARK  status: ('A' for Active; 'I' for Inactive)
REMARK    1  A    between atoms: C_2  and  C_3 
REMARK    2  A    between atoms: C_9  and  N_10 
REMARK    3  A    between atoms: C_12  and  C_13 
ROOT
HETATM    1  C   UNL     1      43.152 -17.001   4.567  1.00  0.00    -0.006 A 
HETATM    2  C   UNL     1      43.504 -15.923   5.445  1.00  0.00     0.063 A 
HETATM    3  C   UNL     1      42.913 -14.678   5.203  1.00  0.00     0.165 A 
HETATM    4  N   UNL     1      43.138 -13.614   5.957  1.00  0.00    -0.222 NA
HETATM    5  C   UNL     1      43.971 -13.748   6.984  1.00  0.00     0.237 A 
HETATM    6  N   UNL     1      44.620 -14.861   7.318  1.00  0.00    -0.229 NA
HETATM    7  C   UNL     1      44.390 -15.927   6.544  1.00  0.00     0.117 A 
HETATM    8  N   UNL     1      42.082 -14.473   4.186  1.00  0.00    -0.228 NA
HETATM    9  C   UNL     1      41.769 -15.470   3.331  1.00  0.00     0.070 A 
HETATM   10  C   UNL     1      42.275 -16.745   3.506  1.00  0.00     0.046 A 
ENDROOT
BRANCH   9  11
HETATM   11  C   UNL     1      40.870 -15.101   2.219  1.00  0.00    -0.004 A 
HETATM   12  C   UNL     1      41.327 -15.034   0.888  1.00  0.00     0.053 A 
HETATM   13  C   UNL     1      40.439 -14.664  -0.105  1.00  0.00     0.106 A 
HETATM   14  C   UNL     1      39.128 -14.361   0.167  1.00  0.00     0.105 A 
HETATM   15  O   UNL     1      40.737 -14.546  -1.426  1.00  0.00    -0.323 OA
HETATM   16  O   UNL     1      38.433 -14.017  -0.949  1.00  0.00    -0.323 OA
HETATM   17  C   UNL     1      38.629 -14.408   1.447  1.00  0.00     0.040 A 
HETATM   18  C   UNL     1      39.463 -14.117  -1.953  1.00  0.00     0.352 A 
HETATM   19  C   UNL     1      39.510 -14.776   2.473  1.00  0.00     0.017 A 
ENDBRANCH   9  11
BRANCH   1  20
HETATM   20  C   UNL     1      43.646 -18.380   4.712  1.00  0.00    -0.025 A 
HETATM   21  C   UNL     1      43.396 -19.118   5.881  1.00  0.00     0.014 A 
HETATM   22  C   UNL     1      43.849 -20.435   6.008  1.00  0.00     0.024 A 
HETATM   23  C   UNL     1      44.545 -21.030   4.961  1.00  0.00     0.034 A 
HETATM   24  C   UNL     1      44.794 -20.321   3.788  1.00  0.00     0.024 A 
HETATM   25 CL   UNL     1      45.101 -22.651   5.114  1.00  0.00    -0.084 Cl
HETATM   26  C   UNL     1      44.346 -19.004   3.665  1.00  0.00     0.014 A 
ENDBRANCH   1  20
BRANCH   7  27
HETATM   27  N   UNL     1      45.095 -17.056   6.957  1.00  0.00    -0.286 NA
HETATM   28  H   UNL     1      44.428 -17.706   7.364  1.00  0.00     0.125 HD
HETATM   29  H   UNL     1      45.845 -16.833   7.602  1.00  0.00     0.125 HD
ENDBRANCH   7  27
TORSDOF 3
ENDMDL
MODEL 5
REMARK VINA RESULT:      -8.1      1.180      2.038
REMARK  3 active torsions:
REMARK  status: ('A' for Active; 'I' for Inactive)
REMARK    1  A    between atoms: C_2  and  C_3 
REMARK    2  A    between atoms: C_9  and  N_10 
REMARK    3  A    between atoms: C_12  and  C_13 
ROOT
HETATM    1  C   UNL     1      41.019 -14.648   2.593  1.00  0.00    -0.006 A 
HETATM    2  C   UNL     1      41.260 -13.838   3.751  1.00  0.00     0.063 A 
HETATM    3  C   UNL     1      42.131 -14.345   4.721  1.00  0.00     0.165 A 
HETATM    4  N   UNL     1      42.452 -13.681   5.820  1.00  0.00    -0.222 NA
HETATM    5  C   UNL     1      41.909 -12.482   6.000  1.00  0.00     0.237 A 
HETATM    6  N   UNL     1      41.049 -11.887   5.177  1.00  0.00    -0.229 NA
HETATM    7  C   UNL     1      40.727 -12.571   4.074  1.00  0.00     0.117 A 
HETATM    8  N   UNL     1      42.699 -15.542   4.609  1.00  0.00    -0.228 NA
HETATM    9  C   UNL     1      42.454 -16.330   3.541  1.00  0.00     0.070 A 
HETATM   10  C   UNL     1      41.634 -15.905   2.512  1.00  0.00     0.046 A 
ENDROOT
BRANCH   9  11
HETATM   11  C   UNL     1      43.111 -17.653   3.558  1.00  0.00    -0.004 A 
HETATM   12  C   UNL     1      42.956 -18.570   2.499  1.00  0.00     0.053 A 
HETATM   13  C   UNL     1      43.582 -19.799   2.584  1.00  0.00     0.106 A 
HETATM   14  C   UNL     1      44.348 -20.153   3.667  1.00  0.00     0.105 A 
HETATM   15  O   UNL     1      43.515 -20.786   1.650  1.00  0.00    -0.323 OA
HETATM   16  O   UNL     1      44.865 -21.405   3.551  1.00  0.00    -0.323 OA
HETATM   17  C   UNL     1      44.531 -19.299   4.728  1.00  0.00     0.040 A 
HETATM   18  C   UNL     1      44.317 -21.808   2.279  1.00  0.00     0.352 A 
HETATM   19  C   UNL     1      43.904 -18.047   4.669  1.00  0.00     0.017 A 
ENDBRANCH   9  11
BRANCH   1  20
HETATM   20  C   UNL     1      40.169 -14.243   1.461  1.00  0.00    -0.025 A 
HETATM   21  C   UNL     1      38.783 -14.470   1.482  1.00  0.00     0.014 A 
HETATM   22  C   UNL     1      37.975 -14.065   0.415  1.00  0.00     0.024 A 
HETATM   23  C   UNL     1      38.545 -13.416  -0.676  1.00  0.00     0.034 A 
HETATM   24  C   UNL     1      39.915 -13.169  -0.712  1.00  0.00     0.024 A 
HETATM   25 CL   UNL     1      37.552 -12.915  -1.989  1.00  0.00    -0.084 Cl
HETATM   26  C   UNL     1      40.722 -13.580   0.352  1.00  0.00     0.014 A 
ENDBRANCH   1  20
BRANCH   7  27
HETATM   27  N   UNL     1      39.831 -11.885   3.256  1.00  0.00    -0.286 NA
HETATM   28  H   UNL     1      39.613 -11.001   3.709  1.00  0.00     0.125 HD
HETATM   29  H   UNL     1      38.995 -12.422   3.057  1.00  0.00     0.125 HD
ENDBRANCH   7  27
TORSDOF 3
ENDMDL
MODEL 6
REMARK VINA RESULT:      -8.1      1.706      2.040
REMARK  3 active torsions:
REMARK  status: ('A' for Active; 'I' for Inactive)
REMARK    1  A    between atoms: C_2  and  C_3 
REMARK    2  A    between atoms: C_9  and  N_10 
REMARK    3  A    between atoms: C_12  and  C_13 
ROOT
HETATM    1  C   UNL     1      41.236 -14.828   1.982  1.00  0.00    -0.006 A 
HETATM    2  C   UNL     1      40.714 -14.373   3.238  1.00  0.00     0.063 A 
HETATM    3  C   UNL     1      40.971 -15.161   4.364  1.00  0.00     0.165 A 
HETATM    4  N   UNL     1      40.564 -14.835   5.581  1.00  0.00    -0.222 NA
HETATM    5  C   UNL     1      39.877 -13.706   5.722  1.00  0.00     0.237 A 
HETATM    6  N   UNL     1      39.540 -12.874   4.740  1.00  0.00    -0.229 NA
HETATM    7  C   UNL     1      39.949 -13.219   3.515  1.00  0.00     0.117 A 
HETATM    8  N   UNL     1      41.642 -16.307   4.291  1.00  0.00    -0.228 NA
HETATM    9  C   UNL     1      42.108 -16.765   3.111  1.00  0.00     0.070 A 
HETATM   10  C   UNL     1      41.936 -16.041   1.945  1.00  0.00     0.046 A 
ENDROOT
BRANCH   9  11
HETATM   11  C   UNL     1      42.798 -18.070   3.158  1.00  0.00    -0.004 A 
HETATM   12  C   UNL     1      43.364 -18.566   4.349  1.00  0.00     0.053 A 
HETATM   13  C   UNL     1      44.013 -19.786   4.323  1.00  0.00     0.106 A 
HETATM   14  C   UNL     1      44.122 -20.527   3.173  1.00  0.00     0.105 A 
HETATM   15  O   UNL     1      44.615 -20.384   5.385  1.00  0.00    -0.323 OA
HETATM   16  O   UNL     1      44.803 -21.688   3.365  1.00  0.00    -0.323 OA
HETATM   17  C   UNL     1      43.591 -20.091   1.982  1.00  0.00     0.040 A 
HETATM   18  C   UNL     1      45.129 -21.582   4.766  1.00  0.00     0.352 A 
HETATM   19  C   UNL     1      42.931 -18.855   1.981  1.00  0.00     0.017 A 
ENDBRANCH   9  11
BRANCH   1  20
HETATM   20  C   UNL     1      41.096 -14.095   0.713  1.00  0.00    -0.025 A 
HETATM   21  C   UNL     1      42.025 -13.108   0.343  1.00  0.00     0.014 A 
HETATM   22  C   UNL     1      41.901 -12.427  -0.871  1.00  0.00     0.024 A 
HETATM   23  C   UNL     1      40.854 -12.736  -1.734  1.00  0.00     0.034 A 
HETATM   24  C   UNL     1      39.929 -13.720  -1.393  1.00  0.00     0.024 A 
HETATM   25 CL   UNL     1      40.702 -11.901  -3.230  1.00  0.00    -0.084 Cl
HETATM   26  C   UNL     1      40.051 -14.395  -0.176  1.00  0.00     0.014 A 
ENDBRANCH   1  20
BRANCH   7  27
HETATM   27  N   UNL     1      39.569 -12.298   2.539  1.00  0.00    -0.286 NA
HETATM   28  H   UNL     1      38.842 -11.709   2.937  1.00  0.00     0.125 HD
HETATM   29  H   UNL     1      39.265 -12.743   1.681  1.00  0.00     0.125 HD
ENDBRANCH   7  27
TORSDOF 3
ENDMDL
MODEL 7
REMARK VINA RESULT:      -8.0      4.616      7.562
REMARK  3 active torsions:
REMARK  status: ('A' for Active; 'I' for Inactive)
REMARK    1  A    between atoms: C_2  and  C_3 
REMARK    2  A    between atoms: C_9  and  N_10 
REMARK    3  A    between atoms: C_12  and  C_13 
ROOT
HETATM    1  C   UNL     1      42.265 -17.429   2.265  1.00  0.00    -0.006 A 
HETATM    2  C   UNL     1      41.636 -16.737   3.353  1.00  0.00     0.063 A 
HETATM    3  C   UNL     1      40.991 -15.531   3.061  1.00  0.00     0.165 A 
HETATM    4  N   UNL     1      40.354 -14.815   3.974  1.00  0.00    -0.222 NA
HETATM    5  C   UNL     1      40.342 -15.272   5.222  1.00  0.00     0.237 A 
HETATM    6  N   UNL     1      40.932 -16.386   5.647  1.00  0.00    -0.229 NA
HETATM    7  C   UNL     1      41.578 -17.097   4.717  1.00  0.00     0.117 A 
HETATM    8  N   UNL     1      40.975 -15.012   1.837  1.00  0.00    -0.228 NA
HETATM    9  C   UNL     1      41.592 -15.635   0.811  1.00  0.00     0.070 A 
HETATM   10  C   UNL     1      42.229 -16.849   0.990  1.00  0.00     0.046 A 
ENDROOT
BRANCH   9  11
HETATM   11  C   UNL     1      41.539 -14.933  -0.488  1.00  0.00    -0.004 A 
HETATM   12  C   UNL     1      41.897 -13.576  -0.613  1.00  0.00     0.053 A 
HETATM   13  C   UNL     1      41.807 -12.973  -1.852  1.00  0.00     0.106 A 
HETATM   14  C   UNL     1      41.381 -13.655  -2.965  1.00  0.00     0.105 A 
HETATM   15  O   UNL     1      42.106 -11.674  -2.122  1.00  0.00    -0.323 OA
HETATM   16  O   UNL     1      41.360 -12.874  -4.077  1.00  0.00    -0.323 OA
HETATM   17  C   UNL     1      41.017 -14.979  -2.901  1.00  0.00     0.040 A 
HETATM   18  C   UNL     1      41.803 -11.614  -3.532  1.00  0.00     0.352 A 
HETATM   19  C   UNL     1      41.095 -15.614  -1.654  1.00  0.00     0.017 A 
ENDBRANCH   9  11
BRANCH   1  20
HETATM   20  C   UNL     1      42.944 -18.729   2.393  1.00  0.00    -0.025 A 
HETATM   21  C   UNL     1      42.419 -19.881   1.784  1.00  0.00     0.014 A 
HETATM   22  C   UNL     1      43.077 -21.110   1.890  1.00  0.00     0.024 A 
HETATM   23  C   UNL     1      44.273 -21.195   2.595  1.00  0.00     0.034 A 
HETATM   24  C   UNL     1      44.819 -20.063   3.196  1.00  0.00     0.024 A 
HETATM   25 CL   UNL     1      45.085 -22.706   2.724  1.00  0.00    -0.084 Cl
HETATM   26  C   UNL     1      44.157 -18.837   3.094  1.00  0.00     0.014 A 
ENDBRANCH   1  20
BRANCH   7  27
HETATM   27  N   UNL     1      42.164 -18.253   5.231  1.00  0.00    -0.286 NA
HETATM   28  H   UNL     1      41.993 -18.266   6.234  1.00  0.00     0.125 HD
HETATM   29  H   UNL     1      43.152 -18.318   5.016  1.00  0.00     0.125 HD
ENDBRANCH   7  27
TORSDOF 3
ENDMDL
MODEL 8
REMARK VINA RESULT:      -8.0      4.093      7.348
REMARK  3 active torsions:
REMARK  status: ('A' for Active; 'I' for Inactive)
REMARK    1  A    between atoms: C_2  and  C_3 
REMARK    2  A    between atoms: C_9  and  N_10 
REMARK    3  A    between atoms: C_12  and  C_13 
ROOT
HETATM    1  C   UNL     1      42.118 -15.865   3.756  1.00  0.00    -0.006 A 
HETATM    2  C   UNL     1      40.954 -15.311   3.127  1.00  0.00     0.063 A 
HETATM    3  C   UNL     1      40.514 -14.061   3.576  1.00  0.00     0.165 A 
HETATM    4  N   UNL     1      39.469 -13.436   3.058  1.00  0.00    -0.222 NA
HETATM    5  C   UNL     1      38.813 -14.039   2.072  1.00  0.00     0.237 A 
HETATM    6  N   UNL     1      39.103 -15.233   1.562  1.00  0.00    -0.229 NA
HETATM    7  C   UNL     1      40.157 -15.858   2.099  1.00  0.00     0.117 A 
HETATM    8  N   UNL     1      41.117 -13.410   4.566  1.00  0.00    -0.228 NA
HETATM    9  C   UNL     1      42.192 -13.936   5.191  1.00  0.00     0.070 A 
HETATM   10  C   UNL     1      42.723 -15.150   4.798  1.00  0.00     0.046 A 
ENDROOT
BRANCH   9  11
HETATM   11  C   UNL     1      42.741 -13.134   6.303  1.00  0.00    -0.004 A 
HETATM   12  C   UNL     1      43.925 -13.507   6.971  1.00  0.00     0.053 A 
HETATM   13  C   UNL     1      44.376 -12.724   8.017  1.00  0.00     0.106 A 
HETATM   14  C   UNL     1      43.708 -11.596   8.423  1.00  0.00     0.105 A 
HETATM   15  O   UNL     1      45.490 -12.964   8.759  1.00  0.00    -0.323 OA
HETATM   16  O   UNL     1      44.317 -10.980   9.469  1.00  0.00    -0.323 OA
HETATM   17  C   UNL     1      42.548 -11.187   7.808  1.00  0.00     0.040 A 
HETATM   18  C   UNL     1      45.436 -11.862   9.690  1.00  0.00     0.352 A 
HETATM   19  C   UNL     1      42.066 -11.965   6.748  1.00  0.00     0.017 A 
ENDBRANCH   9  11
BRANCH   1  20
HETATM   20  C   UNL     1      42.737 -17.144   3.371  1.00  0.00    -0.025 A 
HETATM   21  C   UNL     1      43.520 -17.247   2.210  1.00  0.00     0.014 A 
HETATM   22  C   UNL     1      44.123 -18.458   1.857  1.00  0.00     0.024 A 
HETATM   23  C   UNL     1      43.959 -19.575   2.671  1.00  0.00     0.034 A 
HETATM   24  C   UNL     1      43.197 -19.492   3.833  1.00  0.00     0.024 A 
HETATM   25 CL   UNL     1      44.702 -21.065   2.240  1.00  0.00    -0.084 Cl
HETATM   26  C   UNL     1      42.590 -18.283   4.181  1.00  0.00     0.014 A 
ENDBRANCH   1  20
BRANCH   7  27
HETATM   27  N   UNL     1      40.406 -17.097   1.511  1.00  0.00    -0.286 NA
HETATM   28  H   UNL     1      39.724 -17.231   0.769  1.00  0.00     0.125 HD
HETATM   29  H   UNL     1      40.386 -17.857   2.182  1.00  0.00     0.125 HD
ENDBRANCH   7  27
TORSDOF 3
ENDMDL
MODEL 9
REMARK VINA RESULT:      -8.0      2.705      4.269
REMARK  3 active torsions:
REMARK  status: ('A' for Active; 'I' for Inactive)
REMARK    1  A    between atoms: C_2  and  C_3 
REMARK    2  A    between atoms: C_9  and  N_10 
REMARK    3  A    between atoms: C_12  and  C_13 
ROOT
HETATM    1  C   UNL     1      41.438 -14.279   3.444  1.00  0.00    -0.006 A 
HETATM    2  C   UNL     1      41.318 -13.919   2.061  1.00  0.00     0.063 A 
HETATM    3  C   UNL     1      41.753 -14.851   1.113  1.00  0.00     0.165 A 
HETATM    4  N   UNL     1      41.671 -14.645  -0.192  1.00  0.00    -0.222 NA
HETATM    5  C   UNL     1      41.157 -13.491  -0.605  1.00  0.00     0.237 A 
HETATM    6  N   UNL     1      40.727 -12.506   0.179  1.00  0.00    -0.229 NA
HETATM    7  C   UNL     1      40.822 -12.724   1.496  1.00  0.00     0.117 A 
HETATM    8  N   UNL     1      42.288 -16.018   1.459  1.00  0.00    -0.228 NA
HETATM    9  C   UNL     1      42.438 -16.356   2.757  1.00  0.00     0.070 A 
HETATM   10  C   UNL     1      42.009 -15.516   3.768  1.00  0.00     0.046 A 
ENDROOT
BRANCH   9  11
HETATM   11  C   UNL     1      43.086 -17.659   3.008  1.00  0.00    -0.004 A 
HETATM   12  C   UNL     1      43.042 -18.703   2.062  1.00  0.00     0.053 A 
HETATM   13  C   UNL     1      43.651 -19.906   2.366  1.00  0.00     0.106 A 
HETATM   14  C   UNL     1      44.297 -20.113   3.559  1.00  0.00     0.105 A 
HETATM   15  O   UNL     1      43.680 -21.002   1.562  1.00  0.00    -0.323 OA
HETATM   16  O   UNL     1      44.819 -21.364   3.656  1.00  0.00    -0.323 OA
HETATM   17  C   UNL     1      44.370 -19.131   4.518  1.00  0.00     0.040 A 
HETATM   18  C   UNL     1      44.408 -21.929   2.395  1.00  0.00     0.352 A 
HETATM   19  C   UNL     1      43.756 -17.903   4.237  1.00  0.00     0.017 A 
ENDBRANCH   9  11
BRANCH   1  20
HETATM   20  C   UNL     1      40.985 -13.434   4.561  1.00  0.00    -0.025 A 
HETATM   21  C   UNL     1      41.825 -12.451   5.109  1.00  0.00     0.014 A 
HETATM   22  C   UNL     1      41.386 -11.635   6.157  1.00  0.00     0.024 A 
HETATM   23  C   UNL     1      40.096 -11.788   6.657  1.00  0.00     0.034 A 
HETATM   24  C   UNL     1      39.242 -12.748   6.120  1.00  0.00     0.024 A 
HETATM   25 CL   UNL     1      39.553 -10.784   7.944  1.00  0.00    -0.084 Cl
HETATM   26  C   UNL     1      39.685 -13.566   5.077  1.00  0.00     0.014 A 
ENDBRANCH   1  20
BRANCH   7  27
HETATM   27  N   UNL     1      40.346 -11.655   2.254  1.00  0.00    -0.286 NA
HETATM   28  H   UNL     1      40.470 -11.893   3.235  1.00  0.00     0.125 HD
HETATM   29  H   UNL     1      39.383 -11.424   2.041  1.00  0.00     0.125 HD
ENDBRANCH   7  27
TORSDOF 3
ENDMDL
MODEL 10
REMARK VINA RESULT:      -7.7      3.071      4.848
REMARK  3 active torsions:
REMARK  status: ('A' for Active; 'I' for Inactive)
REMARK    1  A    between atoms: C_2  and  C_3 
REMARK    2  A    between atoms: C_9  and  N_10 
REMARK    3  A    between atoms: C_12  and  C_13 
ROOT
HETATM    1  C   UNL     1      40.360 -13.889   4.022  1.00  0.00    -0.006 A 
HETATM    2  C   UNL     1      39.553 -13.732   2.846  1.00  0.00     0.063 A 
HETATM    3  C   UNL     1      39.638 -14.730   1.870  1.00  0.00     0.165 A 
HETATM    4  N   UNL     1      38.925 -14.711   0.755  1.00  0.00    -0.222 NA
HETATM    5  C   UNL     1      38.100 -13.686   0.565  1.00  0.00     0.237 A 
HETATM    6  N   UNL     1      37.935 -12.658   1.393  1.00  0.00    -0.229 NA
HETATM    7  C   UNL     1      38.666 -12.685   2.512  1.00  0.00     0.117 A 
HETATM    8  N   UNL     1      40.451 -15.774   1.992  1.00  0.00    -0.228 NA
HETATM    9  C   UNL     1      41.242 -15.917   3.076  1.00  0.00     0.070 A 
HETATM   10  C   UNL     1      41.206 -15.001   4.112  1.00  0.00     0.046 A 
ENDROOT
BRANCH   9  11
HETATM   11  C   UNL     1      42.131 -17.096   3.070  1.00  0.00    -0.004 A 
HETATM   12  C   UNL     1      42.649 -17.640   4.263  1.00  0.00     0.053 A 
HETATM   13  C   UNL     1      43.491 -18.733   4.187  1.00  0.00     0.106 A 
HETATM   14  C   UNL     1      43.836 -19.305   2.988  1.00  0.00     0.105 A 
HETATM   15  O   UNL     1      44.074 -19.356   5.247  1.00  0.00    -0.323 OA
HETATM   16  O   UNL     1      44.677 -20.362   3.139  1.00  0.00    -0.323 OA
HETATM   17  C   UNL     1      43.362 -18.815   1.795  1.00  0.00     0.040 A 
HETATM   18  C   UNL     1      44.839 -20.377   4.572  1.00  0.00     0.352 A 
HETATM   19  C   UNL     1      42.509 -17.703   1.842  1.00  0.00     0.017 A 
ENDBRANCH   9  11
BRANCH   1  20
HETATM   20  C   UNL     1      40.352 -12.956   5.160  1.00  0.00    -0.025 A 
HETATM   21  C   UNL     1      39.377 -13.052   6.166  1.00  0.00     0.014 A 
HETATM   22  C   UNL     1      39.384 -12.177   7.257  1.00  0.00     0.024 A 
HETATM   23  C   UNL     1      40.376 -11.207   7.359  1.00  0.00     0.034 A 
HETATM   24  C   UNL     1      41.361 -11.102   6.380  1.00  0.00     0.024 A 
HETATM   25 CL   UNL     1      40.388 -10.132   8.702  1.00  0.00    -0.084 Cl
HETATM   26  C   UNL     1      41.349 -11.973   5.287  1.00  0.00     0.014 A 
ENDBRANCH   1  20
BRANCH   7  27
HETATM   27  N   UNL     1      38.436 -11.583   3.334  1.00  0.00    -0.286 NA
HETATM   28  H   UNL     1      37.736 -11.850   4.022  1.00  0.00     0.125 HD
HETATM   29  H   UNL     1      38.156 -10.760   2.813  1.00  0.00     0.125 HD
ENDBRANCH   7  27
TORSDOF 3
ENDMDL
