MODEL 1
REMARK VINA RESULT:      -9.1      0.000      0.000
REMARK  8 active torsions:
REMARK  status: ('A' for Active; 'I' for Inactive)
REMARK    1  A    between atoms: C_7  and  N_8 
REMARK    2  A    between atoms: C_9  and  S_10 
REMARK    3  A    between atoms: S_10  and  C_11 
REMARK    4  A    between atoms: C_11  and  C_12 
REMARK       I    between atoms: C_12  and  N_13 
REMARK    5  A    between atoms: N_13  and  C_14 
REMARK    6  A    between atoms: C_14  and  C_15 
REMARK    7  A    between atoms: C_15  and  C_16 
REMARK    8  A    between atoms: C_26  and  N_27 
ROOT
HETATM    1  N   UNL     1      42.995 -17.541   3.831  1.00  0.00    -0.276 N 
HETATM    2  C   UNL     1      43.150 -17.651   5.240  1.00  0.00     0.177 A 
HETATM    3  N   UNL     1      43.639 -18.685   5.880  1.00  0.00    -0.204 NA
HETATM    4  C   UNL     1      44.017 -19.701   5.077  1.00  0.00     0.162 A 
HETATM    5  C   UNL     1      43.958 -19.796   3.714  1.00  0.00     0.081 A 
HETATM    6  C   UNL     1      43.396 -18.682   3.011  1.00  0.00     0.124 A 
HETATM    7  N   UNL     1      44.571 -20.874   5.497  1.00  0.00    -0.260 N 
HETATM    8  H   UNL     1      44.768 -21.164   6.449  1.00  0.00     0.191 HD
HETATM    9  N   UNL     1      44.882 -21.704   4.477  1.00  0.00    -0.177 NA
HETATM   10  C   UNL     1      44.510 -21.038   3.372  1.00  0.00     0.068 A 
HETATM   11  C   UNL     1      44.726 -21.659   2.043  1.00  0.00     0.073 C 
ENDROOT
BRANCH   2  12
HETATM   12  S   UNL     1      42.721 -16.282   6.297  1.00  0.00    -0.082 SA
BRANCH  12  13
HETATM   13  C   UNL     1      44.386 -15.805   6.856  1.00  0.00     0.185 C 
BRANCH  13  14
HETATM   14  C   UNL     1      44.584 -14.302   6.895  1.00  0.00     0.227 C 
HETATM   15  N   UNL     1      44.539 -13.726   8.147  1.00  0.00    -0.360 N 
HETATM   16  H   UNL     1      44.344 -14.331   8.936  1.00  0.00     0.162 HD
HETATM   17  O   UNL     1      44.677 -13.647   5.858  1.00  0.00    -0.273 OA
BRANCH  15  18
HETATM   18  C   UNL     1      44.392 -12.291   8.320  1.00  0.00     0.127 C 
BRANCH  18  19
HETATM   19  C   UNL     1      45.300 -11.745   9.421  1.00  0.00     0.058 C 
BRANCH  19  20
HETATM   20  C   UNL     1      44.507 -11.364  10.648  1.00  0.00    -0.057 A 
HETATM   21  C   UNL     1      43.974 -12.353  11.485  1.00  0.00     0.007 A 
HETATM   22  C   UNL     1      43.206 -12.002  12.596  1.00  0.00     0.001 A 
HETATM   23  C   UNL     1      42.961 -10.661  12.879  1.00  0.00     0.000 A 
HETATM   24  C   UNL     1      43.485  -9.668  12.053  1.00  0.00     0.001 A 
HETATM   25  C   UNL     1      44.254 -10.016  10.941  1.00  0.00     0.007 A 
ENDBRANCH  19  20
ENDBRANCH  18  19
ENDBRANCH  15  18
ENDBRANCH  13  14
ENDBRANCH  12  13
ENDBRANCH   2  12
BRANCH   1  26
HETATM   26  C   UNL     1      42.489 -16.360   3.214  1.00  0.00     0.043 A 
HETATM   27  C   UNL     1      43.302 -15.238   3.017  1.00  0.00     0.032 A 
HETATM   28  C   UNL     1      42.765 -14.062   2.488  1.00  0.00     0.026 A 
HETATM   29  C   UNL     1      41.409 -13.988   2.164  1.00  0.00     0.040 A 
HETATM   30  C   UNL     1      40.569 -15.095   2.358  1.00  0.00    -0.038 A 
HETATM   31 CL   UNL     1      40.806 -12.496   1.539  1.00  0.00    -0.084 Cl
HETATM   32  C   UNL     1      39.102 -15.046   2.032  1.00  0.00     0.050 C 
HETATM   33  C   UNL     1      41.125 -16.276   2.880  1.00  0.00     0.038 A 
ENDBRANCH   1  26
BRANCH   6  34
HETATM   34  N   UNL     1      43.224 -18.722   1.703  1.00  0.00    -0.384 N 
HETATM   35  H   UNL     1      42.623 -19.406   1.266  1.00  0.00     0.157 HD
HETATM   36  H   UNL     1      43.667 -18.031   1.111  1.00  0.00     0.157 HD
ENDBRANCH   6  34
TORSDOF 8
ENDMDL
MODEL 2
REMARK VINA RESULT:      -8.9      2.983      5.421
REMARK  8 active torsions:
REMARK  status: ('A' for Active; 'I' for Inactive)
REMARK    1  A    between atoms: C_7  and  N_8 
REMARK    2  A    between atoms: C_9  and  S_10 
REMARK    3  A    between atoms: S_10  and  C_11 
REMARK    4  A    between atoms: C_11  and  C_12 
REMARK       I    between atoms: C_12  and  N_13 
REMARK    5  A    between atoms: N_13  and  C_14 
REMARK    6  A    between atoms: C_14  and  C_15 
REMARK    7  A    between atoms: C_15  and  C_16 
REMARK    8  A    between atoms: C_26  and  N_27 
ROOT
HETATM    1  N   UNL     1      41.773 -15.147   2.689  1.00  0.00    -0.276 N 
HETATM    2  C   UNL     1      42.178 -13.941   3.324  1.00  0.00     0.177 A 
HETATM    3  N   UNL     1      41.495 -12.824   3.355  1.00  0.00    -0.204 NA
HETATM    4  C   UNL     1      40.307 -12.886   2.718  1.00  0.00     0.162 A 
HETATM    5  C   UNL     1      39.734 -13.937   2.056  1.00  0.00     0.081 A 
HETATM    6  C   UNL     1      40.489 -15.152   1.991  1.00  0.00     0.124 A 
HETATM    7  N   UNL     1      39.406 -11.867   2.626  1.00  0.00    -0.260 N 
HETATM    8  H   UNL     1      39.490 -10.927   2.999  1.00  0.00     0.191 HD
HETATM    9  N   UNL     1      38.285 -12.214   1.956  1.00  0.00    -0.177 NA
HETATM   10  C   UNL     1      38.481 -13.495   1.607  1.00  0.00     0.068 A 
HETATM   11  C   UNL     1      37.422 -14.214   0.859  1.00  0.00     0.073 C 
ENDROOT
BRANCH   2  12
HETATM   12  S   UNL     1      43.712 -13.877   4.228  1.00  0.00    -0.082 SA
BRANCH  12  13
HETATM   13  C   UNL     1      43.054 -13.820   5.924  1.00  0.00     0.185 C 
BRANCH  13  14
HETATM   14  C   UNL     1      44.137 -13.928   6.979  1.00  0.00     0.227 C 
HETATM   15  N   UNL     1      44.346 -12.797   7.740  1.00  0.00    -0.360 N 
HETATM   16  H   UNL     1      43.795 -11.975   7.521  1.00  0.00     0.162 HD
HETATM   17  O   UNL     1      44.840 -14.934   7.067  1.00  0.00    -0.273 OA
BRANCH  15  18
HETATM   18  C   UNL     1      45.538 -12.636   8.555  1.00  0.00     0.127 C 
BRANCH  18  19
HETATM   19  C   UNL     1      45.573 -11.286   9.268  1.00  0.00     0.058 C 
BRANCH  19  20
HETATM   20  C   UNL     1      44.647 -11.268  10.459  1.00  0.00    -0.057 A 
HETATM   21  C   UNL     1      44.084 -10.065  10.903  1.00  0.00     0.007 A 
HETATM   22  C   UNL     1      43.261 -10.042  12.030  1.00  0.00     0.001 A 
HETATM   23  C   UNL     1      42.996 -11.219  12.725  1.00  0.00     0.000 A 
HETATM   24  C   UNL     1      43.552 -12.422  12.294  1.00  0.00     0.001 A 
HETATM   25  C   UNL     1      44.375 -12.448  11.167  1.00  0.00     0.007 A 
ENDBRANCH  19  20
ENDBRANCH  18  19
ENDBRANCH  15  18
ENDBRANCH  13  14
ENDBRANCH  12  13
ENDBRANCH   2  12
BRANCH   1  26
HETATM   26  C   UNL     1      42.563 -16.333   2.738  1.00  0.00     0.043 A 
HETATM   27  C   UNL     1      43.256 -16.791   1.612  1.00  0.00     0.032 A 
HETATM   28  C   UNL     1      43.956 -17.999   1.658  1.00  0.00     0.026 A 
HETATM   29  C   UNL     1      43.959 -18.770   2.822  1.00  0.00     0.040 A 
HETATM   30  C   UNL     1      43.267 -18.338   3.964  1.00  0.00    -0.038 A 
HETATM   31 CL   UNL     1      44.822 -20.265   2.801  1.00  0.00    -0.084 Cl
HETATM   32  C   UNL     1      43.239 -19.149   5.230  1.00  0.00     0.050 C 
HETATM   33  C   UNL     1      42.576 -17.115   3.907  1.00  0.00     0.038 A 
ENDBRANCH   1  26
BRANCH   6  34
HETATM   34  N   UNL     1      40.050 -16.188   1.302  1.00  0.00    -0.384 N 
HETATM   35  H   UNL     1      40.672 -16.769   0.760  1.00  0.00     0.157 HD
HETATM   36  H   UNL     1      39.071 -16.445   1.339  1.00  0.00     0.157 HD
ENDBRANCH   6  34
TORSDOF 8
ENDMDL
MODEL 3
REMARK VINA RESULT:      -8.8      4.251      9.364
REMARK  8 active torsions:
REMARK  status: ('A' for Active; 'I' for Inactive)
REMARK    1  A    between atoms: C_7  and  N_8 
REMARK    2  A    between atoms: C_9  and  S_10 
REMARK    3  A    between atoms: S_10  and  C_11 
REMARK    4  A    between atoms: C_11  and  C_12 
REMARK       I    between atoms: C_12  and  N_13 
REMARK    5  A    between atoms: N_13  and  C_14 
REMARK    6  A    between atoms: C_14  and  C_15 
REMARK    7  A    between atoms: C_15  and  C_16 
REMARK    8  A    between atoms: C_26  and  N_27 
ROOT
HETATM    1  N   UNL     1      41.648 -12.870   4.927  1.00  0.00    -0.276 N 
HETATM    2  C   UNL     1      41.636 -12.574   3.536  1.00  0.00     0.177 A 
HETATM    3  N   UNL     1      41.057 -11.539   2.977  1.00  0.00    -0.204 NA
HETATM    4  C   UNL     1      40.441 -10.715   3.850  1.00  0.00     0.162 A 
HETATM    5  C   UNL     1      40.339 -10.813   5.210  1.00  0.00     0.081 A 
HETATM    6  C   UNL     1      40.942 -11.958   5.824  1.00  0.00     0.124 A 
HETATM    7  N   UNL     1      39.786  -9.565   3.521  1.00  0.00    -0.260 N 
HETATM    8  H   UNL     1      39.652  -9.167   2.597  1.00  0.00     0.191 HD
HETATM    9  N   UNL     1      39.286  -8.917   4.597  1.00  0.00    -0.177 NA
HETATM   10  C   UNL     1      39.631  -9.683   5.644  1.00  0.00     0.068 A 
HETATM   11  C   UNL     1      39.252  -9.256   7.012  1.00  0.00     0.073 C 
ENDROOT
BRANCH   2  12
HETATM   12  S   UNL     1      42.511 -13.620   2.390  1.00  0.00    -0.082 SA
BRANCH  12  13
HETATM   13  C   UNL     1      41.093 -14.359   1.521  1.00  0.00     0.185 C 
BRANCH  13  14
HETATM   14  C   UNL     1      41.355 -15.784   1.075  1.00  0.00     0.227 C 
HETATM   15  N   UNL     1      41.631 -16.684   2.083  1.00  0.00    -0.360 N 
HETATM   16  H   UNL     1      41.675 -16.329   3.031  1.00  0.00     0.162 HD
HETATM   17  O   UNL     1      41.410 -16.076  -0.118  1.00  0.00    -0.273 OA
BRANCH  15  18
HETATM   18  C   UNL     1      42.209 -17.988   1.803  1.00  0.00     0.127 C 
BRANCH  18  19
HETATM   19  C   UNL     1      43.655 -18.095   2.284  1.00  0.00     0.058 C 
BRANCH  19  20
HETATM   20  C   UNL     1      43.999 -19.512   2.674  1.00  0.00    -0.057 A 
HETATM   21  C   UNL     1      43.758 -20.571   1.789  1.00  0.00     0.007 A 
HETATM   22  C   UNL     1      44.038 -21.886   2.166  1.00  0.00     0.001 A 
HETATM   23  C   UNL     1      44.557 -22.154   3.430  1.00  0.00     0.000 A 
HETATM   24  C   UNL     1      44.800 -21.109   4.319  1.00  0.00     0.001 A 
HETATM   25  C   UNL     1      44.521 -19.793   3.945  1.00  0.00     0.007 A 
ENDBRANCH  19  20
ENDBRANCH  18  19
ENDBRANCH  15  18
ENDBRANCH  13  14
ENDBRANCH  12  13
ENDBRANCH   2  12
BRANCH   1  26
HETATM   26  C   UNL     1      42.338 -14.000   5.455  1.00  0.00     0.043 A 
HETATM   27  C   UNL     1      43.610 -13.873   6.024  1.00  0.00     0.032 A 
HETATM   28  C   UNL     1      44.304 -15.005   6.459  1.00  0.00     0.026 A 
HETATM   29  C   UNL     1      43.743 -16.276   6.316  1.00  0.00     0.040 A 
HETATM   30  C   UNL     1      42.472 -16.433   5.742  1.00  0.00    -0.038 A 
HETATM   31 CL   UNL     1      44.666 -17.634   6.849  1.00  0.00    -0.084 Cl
HETATM   32  C   UNL     1      41.844 -17.787   5.562  1.00  0.00     0.050 C 
HETATM   33  C   UNL     1      41.780 -15.284   5.319  1.00  0.00     0.038 A 
ENDBRANCH   1  26
BRANCH   6  34
HETATM   34  N   UNL     1      40.821 -12.176   7.120  1.00  0.00    -0.384 N 
HETATM   35  H   UNL     1      41.521 -11.871   7.779  1.00  0.00     0.157 HD
HETATM   36  H   UNL     1      39.990 -12.626   7.484  1.00  0.00     0.157 HD
ENDBRANCH   6  34
TORSDOF 8
ENDMDL
MODEL 4
REMARK VINA RESULT:      -8.8      2.889      5.386
REMARK  8 active torsions:
REMARK  status: ('A' for Active; 'I' for Inactive)
REMARK    1  A    between atoms: C_7  and  N_8 
REMARK    2  A    between atoms: C_9  and  S_10 
REMARK    3  A    between atoms: S_10  and  C_11 
REMARK    4  A    between atoms: C_11  and  C_12 
REMARK       I    between atoms: C_12  and  N_13 
REMARK    5  A    between atoms: N_13  and  C_14 
REMARK    6  A    between atoms: C_14  and  C_15 
REMARK    7  A    between atoms: C_15  and  C_16 
REMARK    8  A    between atoms: C_26  and  N_27 
ROOT
HETATM    1  N   UNL     1      42.866 -15.776   4.578  1.00  0.00    -0.276 N 
HETATM    2  C   UNL     1      43.448 -14.610   5.146  1.00  0.00     0.177 A 
HETATM    3  N   UNL     1      43.298 -13.385   4.705  1.00  0.00    -0.204 NA
HETATM    4  C   UNL     1      42.505 -13.284   3.618  1.00  0.00     0.162 A 
HETATM    5  C   UNL     1      41.852 -14.268   2.928  1.00  0.00     0.081 A 
HETATM    6  C   UNL     1      42.037 -15.612   3.386  1.00  0.00     0.124 A 
HETATM    7  N   UNL     1      42.179 -12.122   2.984  1.00  0.00    -0.260 N 
HETATM    8  H   UNL     1      42.481 -11.181   3.215  1.00  0.00     0.191 HD
HETATM    9  N   UNL     1      41.343 -12.308   1.939  1.00  0.00    -0.177 NA
HETATM   10  C   UNL     1      41.134 -13.634   1.904  1.00  0.00     0.068 A 
HETATM   11  C   UNL     1      40.233 -14.200   0.872  1.00  0.00     0.073 C 
ENDROOT
BRANCH   2  12
HETATM   12  S   UNL     1      44.435 -14.731   6.624  1.00  0.00    -0.082 SA
BRANCH  12  13
HETATM   13  C   UNL     1      44.106 -13.088   7.336  1.00  0.00     0.185 C 
BRANCH  13  14
HETATM   14  C   UNL     1      44.823 -12.864   8.653  1.00  0.00     0.227 C 
HETATM   15  N   UNL     1      44.009 -12.673   9.750  1.00  0.00    -0.360 N 
HETATM   16  H   UNL     1      43.008 -12.660   9.596  1.00  0.00     0.162 HD
HETATM   17  O   UNL     1      46.047 -12.763   8.700  1.00  0.00    -0.273 OA
BRANCH  15  18
HETATM   18  C   UNL     1      44.527 -12.136  10.997  1.00  0.00     0.127 C 
BRANCH  18  19
HETATM   19  C   UNL     1      44.217 -10.649  11.160  1.00  0.00     0.058 C 
BRANCH  19  20
HETATM   20  C   UNL     1      43.298 -10.404  12.332  1.00  0.00    -0.057 A 
HETATM   21  C   UNL     1      43.660  -9.504  13.343  1.00  0.00     0.007 A 
HETATM   22  C   UNL     1      42.831  -9.309  14.448  1.00  0.00     0.001 A 
HETATM   23  C   UNL     1      41.634 -10.013  14.555  1.00  0.00     0.000 A 
HETATM   24  C   UNL     1      41.264 -10.912  13.557  1.00  0.00     0.001 A 
HETATM   25  C   UNL     1      42.092 -11.109  12.450  1.00  0.00     0.007 A 
ENDBRANCH  19  20
ENDBRANCH  18  19
ENDBRANCH  15  18
ENDBRANCH  13  14
ENDBRANCH  12  13
ENDBRANCH   2  12
BRANCH   1  26
HETATM   26  C   UNL     1      43.050 -17.070   5.147  1.00  0.00     0.043 A 
HETATM   27  C   UNL     1      42.501 -17.400   6.392  1.00  0.00     0.032 A 
HETATM   28  C   UNL     1      42.765 -18.644   6.970  1.00  0.00     0.026 A 
HETATM   29  C   UNL     1      43.590 -19.565   6.321  1.00  0.00     0.040 A 
HETATM   30  C   UNL     1      44.160 -19.257   5.077  1.00  0.00    -0.038 A 
HETATM   31 CL   UNL     1      43.895 -21.072   7.105  1.00  0.00    -0.084 Cl
HETATM   32  C   UNL     1      45.063 -20.219   4.356  1.00  0.00     0.050 C 
HETATM   33  C   UNL     1      43.877 -18.006   4.500  1.00  0.00     0.038 A 
ENDBRANCH   1  26
BRANCH   6  34
HETATM   34  N   UNL     1      41.513 -16.631   2.730  1.00  0.00    -0.384 N 
HETATM   35  H   UNL     1      42.001 -17.510   2.634  1.00  0.00     0.157 HD
HETATM   36  H   UNL     1      40.582 -16.559   2.339  1.00  0.00     0.157 HD
ENDBRANCH   6  34
TORSDOF 8
ENDMDL
MODEL 5
REMARK VINA RESULT:      -8.7      3.915      8.030
REMARK  8 active torsions:
REMARK  status: ('A' for Active; 'I' for Inactive)
REMARK    1  A    between atoms: C_7  and  N_8 
REMARK    2  A    between atoms: C_9  and  S_10 
REMARK    3  A    between atoms: S_10  and  C_11 
REMARK    4  A    between atoms: C_11  and  C_12 
REMARK       I    between atoms: C_12  and  N_13 
REMARK    5  A    between atoms: N_13  and  C_14 
REMARK    6  A    between atoms: C_14  and  C_15 
REMARK    7  A    between atoms: C_15  and  C_16 
REMARK    8  A    between atoms: C_26  and  N_27 
ROOT
HETATM    1  N   UNL     1      41.125 -13.867   3.560  1.00  0.00    -0.276 N 
HETATM    2  C   UNL     1      42.174 -14.820   3.662  1.00  0.00     0.177 A 
HETATM    3  N   UNL     1      42.595 -15.603   2.699  1.00  0.00    -0.204 NA
HETATM    4  C   UNL     1      41.942 -15.438   1.530  1.00  0.00     0.162 A 
HETATM    5  C   UNL     1      40.920 -14.584   1.222  1.00  0.00     0.081 A 
HETATM    6  C   UNL     1      40.434 -13.748   2.278  1.00  0.00     0.124 A 
HETATM    7  N   UNL     1      42.205 -16.116   0.377  1.00  0.00    -0.260 N 
HETATM    8  H   UNL     1      42.903 -16.838   0.224  1.00  0.00     0.191 HD
HETATM    9  N   UNL     1      41.418 -15.731  -0.653  1.00  0.00    -0.177 NA
HETATM   10  C   UNL     1      40.626 -14.779  -0.135  1.00  0.00     0.068 A 
HETATM   11  C   UNL     1      39.630 -14.110  -1.007  1.00  0.00     0.073 C 
ENDROOT
BRANCH   2  12
HETATM   12  S   UNL     1      43.088 -14.988   5.182  1.00  0.00    -0.082 SA
BRANCH  12  13
HETATM   13  C   UNL     1      41.935 -16.053   6.104  1.00  0.00     0.185 C 
BRANCH  13  14
HETATM   14  C   UNL     1      42.178 -17.530   5.863  1.00  0.00     0.227 C 
HETATM   15  N   UNL     1      43.175 -18.103   6.625  1.00  0.00    -0.360 N 
HETATM   16  H   UNL     1      43.690 -17.500   7.256  1.00  0.00     0.162 HD
HETATM   17  O   UNL     1      41.584 -18.134   4.972  1.00  0.00    -0.273 OA
BRANCH  15  18
HETATM   18  C   UNL     1      43.737 -19.401   6.292  1.00  0.00     0.127 C 
BRANCH  18  19
HETATM   19  C   UNL     1      44.849 -19.300   5.249  1.00  0.00     0.058 C 
BRANCH  19  20
HETATM   20  C   UNL     1      44.548 -20.153   4.042  1.00  0.00    -0.057 A 
HETATM   21  C   UNL     1      43.946 -19.591   2.908  1.00  0.00     0.007 A 
HETATM   22  C   UNL     1      43.629 -20.388   1.806  1.00  0.00     0.001 A 
HETATM   23  C   UNL     1      43.909 -21.752   1.829  1.00  0.00     0.000 A 
HETATM   24  C   UNL     1      44.506 -22.322   2.951  1.00  0.00     0.001 A 
HETATM   25  C   UNL     1      44.824 -21.527   4.054  1.00  0.00     0.007 A 
ENDBRANCH  19  20
ENDBRANCH  18  19
ENDBRANCH  15  18
ENDBRANCH  13  14
ENDBRANCH  12  13
ENDBRANCH   2  12
BRANCH   1  26
HETATM   26  C   UNL     1      40.757 -13.025   4.651  1.00  0.00     0.043 A 
HETATM   27  C   UNL     1      39.767 -13.409   5.562  1.00  0.00     0.032 A 
HETATM   28  C   UNL     1      39.362 -12.535   6.573  1.00  0.00     0.026 A 
HETATM   29  C   UNL     1      39.929 -11.263   6.676  1.00  0.00     0.040 A 
HETATM   30  C   UNL     1      40.918 -10.849   5.772  1.00  0.00    -0.038 A 
HETATM   31 CL   UNL     1      39.363 -10.223   7.933  1.00  0.00    -0.084 Cl
HETATM   32  C   UNL     1      41.541  -9.482   5.846  1.00  0.00     0.050 C 
HETATM   33  C   UNL     1      41.325 -11.744   4.766  1.00  0.00     0.038 A 
ENDBRANCH   1  26
BRANCH   6  34
HETATM   34  N   UNL     1      39.396 -12.954   2.093  1.00  0.00    -0.384 N 
HETATM   35  H   UNL     1      39.493 -11.950   2.053  1.00  0.00     0.157 HD
HETATM   36  H   UNL     1      38.475 -13.348   1.946  1.00  0.00     0.157 HD
ENDBRANCH   6  34
TORSDOF 8
ENDMDL
MODEL 6
REMARK VINA RESULT:      -8.6      3.172      5.634
REMARK  8 active torsions:
REMARK  status: ('A' for Active; 'I' for Inactive)
REMARK    1  A    between atoms: C_7  and  N_8 
REMARK    2  A    between atoms: C_9  and  S_10 
REMARK    3  A    between atoms: S_10  and  C_11 
REMARK    4  A    between atoms: C_11  and  C_12 
REMARK       I    between atoms: C_12  and  N_13 
REMARK    5  A    between atoms: N_13  and  C_14 
REMARK    6  A    between atoms: C_14  and  C_15 
REMARK    7  A    between atoms: C_15  and  C_16 
REMARK    8  A    between atoms: C_26  and  N_27 
ROOT
HETATM    1  N   UNL     1      41.976 -14.650   4.718  1.00  0.00    -0.276 N 
HETATM    2  C   UNL     1      42.649 -14.068   5.827  1.00  0.00     0.177 A 
HETATM    3  N   UNL     1      42.383 -12.901   6.360  1.00  0.00    -0.204 NA
HETATM    4  C   UNL     1      41.365 -12.244   5.767  1.00  0.00     0.162 A 
HETATM    5  C   UNL     1      40.591 -12.624   4.704  1.00  0.00     0.081 A 
HETATM    6  C   UNL     1      40.898 -13.884   4.097  1.00  0.00     0.124 A 
HETATM    7  N   UNL     1      40.884 -11.026   6.146  1.00  0.00    -0.260 N 
HETATM    8  H   UNL     1      41.213 -10.435   6.902  1.00  0.00     0.191 HD
HETATM    9  N   UNL     1      39.838 -10.615   5.395  1.00  0.00    -0.177 NA
HETATM   10  C   UNL     1      39.650 -11.603   4.506  1.00  0.00     0.068 A 
HETATM   11  C   UNL     1      38.551 -11.491   3.517  1.00  0.00     0.073 C 
ENDROOT
BRANCH   2  12
HETATM   12  S   UNL     1      43.945 -14.965   6.658  1.00  0.00    -0.082 SA
BRANCH  12  13
HETATM   13  C   UNL     1      45.252 -13.700   6.622  1.00  0.00     0.185 C 
BRANCH  13  14
HETATM   14  C   UNL     1      45.427 -12.996   7.954  1.00  0.00     0.227 C 
HETATM   15  N   UNL     1      44.275 -12.821   8.692  1.00  0.00    -0.360 N 
HETATM   16  H   UNL     1      43.403 -13.136   8.284  1.00  0.00     0.162 HD
HETATM   17  O   UNL     1      46.516 -12.532   8.288  1.00  0.00    -0.273 OA
BRANCH  15  18
HETATM   18  C   UNL     1      44.224 -11.900   9.815  1.00  0.00     0.127 C 
BRANCH  18  19
HETATM   19  C   UNL     1      43.070 -10.906   9.695  1.00  0.00     0.058 C 
BRANCH  19  20
HETATM   20  C   UNL     1      42.913 -10.092  10.956  1.00  0.00    -0.057 A 
HETATM   21  C   UNL     1      42.139  -8.924  10.956  1.00  0.00     0.007 A 
HETATM   22  C   UNL     1      42.028  -8.148  12.110  1.00  0.00     0.001 A 
HETATM   23  C   UNL     1      42.691  -8.529  13.274  1.00  0.00     0.000 A 
HETATM   24  C   UNL     1      43.465  -9.687  13.286  1.00  0.00     0.001 A 
HETATM   25  C   UNL     1      43.578 -10.466  12.132  1.00  0.00     0.007 A 
ENDBRANCH  19  20
ENDBRANCH  18  19
ENDBRANCH  15  18
ENDBRANCH  13  14
ENDBRANCH  12  13
ENDBRANCH   2  12
BRANCH   1  26
HETATM   26  C   UNL     1      42.306 -15.947   4.225  1.00  0.00     0.043 A 
HETATM   27  C   UNL     1      41.959 -17.103   4.933  1.00  0.00     0.032 A 
HETATM   28  C   UNL     1      42.366 -18.358   4.476  1.00  0.00     0.026 A 
HETATM   29  C   UNL     1      43.136 -18.472   3.317  1.00  0.00     0.040 A 
HETATM   30  C   UNL     1      43.504 -17.329   2.592  1.00  0.00    -0.038 A 
HETATM   31 CL   UNL     1      43.627 -20.052   2.823  1.00  0.00    -0.084 Cl
HETATM   32  C   UNL     1      44.344 -17.415   1.347  1.00  0.00     0.050 C 
HETATM   33  C   UNL     1      43.079 -16.073   3.057  1.00  0.00     0.038 A 
ENDBRANCH   1  26
BRANCH   6  34
HETATM   34  N   UNL     1      40.258 -14.290   3.016  1.00  0.00    -0.384 N 
HETATM   35  H   UNL     1      39.461 -13.791   2.650  1.00  0.00     0.157 HD
HETATM   36  H   UNL     1      40.587 -15.100   2.505  1.00  0.00     0.157 HD
ENDBRANCH   6  34
TORSDOF 8
ENDMDL
MODEL 7
REMARK VINA RESULT:      -8.6      1.470      1.984
REMARK  8 active torsions:
REMARK  status: ('A' for Active; 'I' for Inactive)
REMARK    1  A    between atoms: C_7  and  N_8 
REMARK    2  A    between atoms: C_9  and  S_10 
REMARK    3  A    between atoms: S_10  and  C_11 
REMARK    4  A    between atoms: C_11  and  C_12 
REMARK       I    between atoms: C_12  and  N_13 
REMARK    5  A    between atoms: N_13  and  C_14 
REMARK    6  A    between atoms: C_14  and  C_15 
REMARK    7  A    between atoms: C_15  and  C_16 
REMARK    8  A    between atoms: C_26  and  N_27 
ROOT
HETATM    1  N   UNL     1      42.617 -16.180   4.060  1.00  0.00    -0.276 N 
HETATM    2  C   UNL     1      43.311 -16.064   5.296  1.00  0.00     0.177 A 
HETATM    3  N   UNL     1      44.095 -16.973   5.823  1.00  0.00    -0.204 NA
HETATM    4  C   UNL     1      44.221 -18.090   5.078  1.00  0.00     0.162 A 
HETATM    5  C   UNL     1      43.652 -18.397   3.873  1.00  0.00     0.081 A 
HETATM    6  C   UNL     1      42.769 -17.422   3.307  1.00  0.00     0.124 A 
HETATM    7  N   UNL     1      44.993 -19.168   5.397  1.00  0.00    -0.260 N 
HETATM    8  H   UNL     1      45.565 -19.302   6.224  1.00  0.00     0.191 HD
HETATM    9  N   UNL     1      44.959 -20.138   4.456  1.00  0.00    -0.177 NA
HETATM   10  C   UNL     1      44.135 -19.662   3.508  1.00  0.00     0.068 A 
HETATM   11  C   UNL     1      43.876 -20.475   2.296  1.00  0.00     0.073 C 
ENDROOT
BRANCH   2  12
HETATM   12  S   UNL     1      43.204 -14.561   6.246  1.00  0.00    -0.082 SA
BRANCH  12  13
HETATM   13  C   UNL     1      44.965 -14.339   6.649  1.00  0.00     0.185 C 
BRANCH  13  14
HETATM   14  C   UNL     1      45.197 -13.282   7.711  1.00  0.00     0.227 C 
HETATM   15  N   UNL     1      44.082 -12.902   8.428  1.00  0.00    -0.360 N 
HETATM   16  H   UNL     1      43.195 -13.322   8.176  1.00  0.00     0.162 HD
HETATM   17  O   UNL     1      46.294 -12.741   7.839  1.00  0.00    -0.273 OA
BRANCH  15  18
HETATM   18  C   UNL     1      44.074 -11.697   9.241  1.00  0.00     0.127 C 
BRANCH  18  19
HETATM   19  C   UNL     1      44.153 -12.007  10.735  1.00  0.00     0.058 C 
BRANCH  19  20
HETATM   20  C   UNL     1      43.271 -11.080  11.535  1.00  0.00    -0.057 A 
HETATM   21  C   UNL     1      41.879 -11.111  11.376  1.00  0.00     0.007 A 
HETATM   22  C   UNL     1      41.065 -10.226  12.084  1.00  0.00     0.001 A 
HETATM   23  C   UNL     1      41.634  -9.300  12.956  1.00  0.00     0.000 A 
HETATM   24  C   UNL     1      43.017  -9.259  13.121  1.00  0.00     0.001 A 
HETATM   25  C   UNL     1      43.833 -10.144  12.413  1.00  0.00     0.007 A 
ENDBRANCH  19  20
ENDBRANCH  18  19
ENDBRANCH  15  18
ENDBRANCH  13  14
ENDBRANCH  12  13
ENDBRANCH   2  12
BRANCH   1  26
HETATM   26  C   UNL     1      41.813 -15.123   3.541  1.00  0.00     0.043 A 
HETATM   27  C   UNL     1      40.461 -15.004   3.882  1.00  0.00     0.032 A 
HETATM   28  C   UNL     1      39.671 -14.012   3.296  1.00  0.00     0.026 A 
HETATM   29  C   UNL     1      40.217 -13.138   2.354  1.00  0.00     0.040 A 
HETATM   30  C   UNL     1      41.568 -13.239   1.989  1.00  0.00    -0.038 A 
HETATM   31 CL   UNL     1      39.178 -11.953   1.650  1.00  0.00    -0.084 Cl
HETATM   32  C   UNL     1      42.185 -12.323   0.968  1.00  0.00     0.050 C 
HETATM   33  C   UNL     1      42.355 -14.235   2.594  1.00  0.00     0.038 A 
ENDBRANCH   1  26
BRANCH   6  34
HETATM   34  N   UNL     1      42.111 -17.669   2.189  1.00  0.00    -0.384 N 
HETATM   35  H   UNL     1      41.846 -16.931   1.553  1.00  0.00     0.157 HD
HETATM   36  H   UNL     1      41.893 -18.623   1.929  1.00  0.00     0.157 HD
ENDBRANCH   6  34
TORSDOF 8
ENDMDL
MODEL 8
REMARK VINA RESULT:      -8.4      4.159      9.052
REMARK  8 active torsions:
REMARK  status: ('A' for Active; 'I' for Inactive)
REMARK    1  A    between atoms: C_7  and  N_8 
REMARK    2  A    between atoms: C_9  and  S_10 
REMARK    3  A    between atoms: S_10  and  C_11 
REMARK    4  A    between atoms: C_11  and  C_12 
REMARK       I    between atoms: C_12  and  N_13 
REMARK    5  A    between atoms: N_13  and  C_14 
REMARK    6  A    between atoms: C_14  and  C_15 
REMARK    7  A    between atoms: C_15  and  C_16 
REMARK    8  A    between atoms: C_26  and  N_27 
ROOT
HETATM    1  N   UNL     1      39.749 -12.173   3.884  1.00  0.00    -0.276 N 
HETATM    2  C   UNL     1      40.504 -13.344   3.599  1.00  0.00     0.177 A 
HETATM    3  N   UNL     1      40.291 -14.170   2.604  1.00  0.00    -0.204 NA
HETATM    4  C   UNL     1      39.257 -13.823   1.811  1.00  0.00     0.162 A 
HETATM    5  C   UNL     1      38.417 -12.747   1.904  1.00  0.00     0.081 A 
HETATM    6  C   UNL     1      38.623 -11.858   3.007  1.00  0.00     0.124 A 
HETATM    7  N   UNL     1      38.848 -14.505   0.703  1.00  0.00    -0.260 N 
HETATM    8  H   UNL     1      39.236 -15.361   0.321  1.00  0.00     0.191 HD
HETATM    9  N   UNL     1      37.804 -13.917   0.078  1.00  0.00    -0.177 NA
HETATM   10  C   UNL     1      37.538 -12.826   0.814  1.00  0.00     0.068 A 
HETATM   11  C   UNL     1      36.441 -11.919   0.399  1.00  0.00     0.073 C 
ENDROOT
BRANCH   2  12
HETATM   12  S   UNL     1      41.915 -13.766   4.601  1.00  0.00    -0.082 SA
BRANCH  12  13
HETATM   13  C   UNL     1      41.147 -15.008   5.687  1.00  0.00     0.185 C 
BRANCH  13  14
HETATM   14  C   UNL     1      41.518 -16.429   5.310  1.00  0.00     0.227 C 
HETATM   15  N   UNL     1      42.106 -16.584   4.072  1.00  0.00    -0.360 N 
HETATM   16  H   UNL     1      42.215 -15.757   3.497  1.00  0.00     0.162 HD
HETATM   17  O   UNL     1      41.215 -17.377   6.032  1.00  0.00    -0.273 OA
BRANCH  15  18
HETATM   18  C   UNL     1      42.223 -17.888   3.443  1.00  0.00     0.127 C 
BRANCH  18  19
HETATM   19  C   UNL     1      43.630 -18.148   2.907  1.00  0.00     0.058 C 
BRANCH  19  20
HETATM   20  C   UNL     1      43.966 -19.619   2.935  1.00  0.00    -0.057 A 
HETATM   21  C   UNL     1      43.643 -20.441   1.847  1.00  0.00     0.007 A 
HETATM   22  C   UNL     1      43.915 -21.810   1.889  1.00  0.00     0.001 A 
HETATM   23  C   UNL     1      44.509 -22.368   3.019  1.00  0.00     0.000 A 
HETATM   24  C   UNL     1      44.833 -21.560   4.107  1.00  0.00     0.001 A 
HETATM   25  C   UNL     1      44.562 -20.191   4.067  1.00  0.00     0.007 A 
ENDBRANCH  19  20
ENDBRANCH  18  19
ENDBRANCH  15  18
ENDBRANCH  13  14
ENDBRANCH  12  13
ENDBRANCH   2  12
BRANCH   1  26
HETATM   26  C   UNL     1      40.075 -11.306   4.968  1.00  0.00     0.043 A 
HETATM   27  C   UNL     1      40.989 -10.258   4.810  1.00  0.00     0.032 A 
HETATM   28  C   UNL     1      41.358  -9.473   5.905  1.00  0.00     0.026 A 
HETATM   29  C   UNL     1      40.832  -9.736   7.172  1.00  0.00     0.040 A 
HETATM   30  C   UNL     1      39.920 -10.786   7.360  1.00  0.00    -0.038 A 
HETATM   31 CL   UNL     1      41.351  -8.746   8.486  1.00  0.00    -0.084 Cl
HETATM   32  C   UNL     1      39.344 -11.105   8.712  1.00  0.00     0.050 C 
HETATM   33  C   UNL     1      39.548 -11.560   6.247  1.00  0.00     0.038 A 
ENDBRANCH   1  26
BRANCH   6  34
HETATM   34  N   UNL     1      37.808 -10.842   3.222  1.00  0.00    -0.384 N 
HETATM   35  H   UNL     1      37.721 -10.081   2.566  1.00  0.00     0.157 HD
HETATM   36  H   UNL     1      37.218 -10.830   4.045  1.00  0.00     0.157 HD
ENDBRANCH   6  34
TORSDOF 8
ENDMDL
MODEL 9
REMARK VINA RESULT:      -8.4      3.836      8.633
REMARK  8 active torsions:
REMARK  status: ('A' for Active; 'I' for Inactive)
REMARK    1  A    between atoms: C_7  and  N_8 
REMARK    2  A    between atoms: C_9  and  S_10 
REMARK    3  A    between atoms: S_10  and  C_11 
REMARK    4  A    between atoms: C_11  and  C_12 
REMARK       I    between atoms: C_12  and  N_13 
REMARK    5  A    between atoms: N_13  and  C_14 
REMARK    6  A    between atoms: C_14  and  C_15 
REMARK    7  A    between atoms: C_15  and  C_16 
REMARK    8  A    between atoms: C_26  and  N_27 
ROOT
HETATM    1  N   UNL     1      40.966 -13.166   1.552  1.00  0.00    -0.276 N 
HETATM    2  C   UNL     1      40.719 -14.433   0.955  1.00  0.00     0.177 A 
HETATM    3  N   UNL     1      41.051 -14.785  -0.262  1.00  0.00    -0.204 NA
HETATM    4  C   UNL     1      41.689 -13.822  -0.960  1.00  0.00     0.162 A 
HETATM    5  C   UNL     1      42.025 -12.553  -0.576  1.00  0.00     0.081 A 
HETATM    6  C   UNL     1      41.636 -12.151   0.742  1.00  0.00     0.124 A 
HETATM    7  N   UNL     1      42.153 -13.948  -2.235  1.00  0.00    -0.260 N 
HETATM    8  H   UNL     1      42.084 -14.756  -2.846  1.00  0.00     0.191 HD
HETATM    9  N   UNL     1      42.780 -12.836  -2.680  1.00  0.00    -0.177 NA
HETATM   10  C   UNL     1      42.707 -11.973  -1.654  1.00  0.00     0.068 A 
HETATM   11  C   UNL     1      43.321 -10.630  -1.791  1.00  0.00     0.073 C 
ENDROOT
BRANCH   2  12
HETATM   12  S   UNL     1      39.944 -15.731   1.899  1.00  0.00    -0.082 SA
BRANCH  12  13
HETATM   13  C   UNL     1      41.188 -17.041   1.678  1.00  0.00     0.185 C 
BRANCH  13  14
HETATM   14  C   UNL     1      42.238 -17.045   2.772  1.00  0.00     0.227 C 
HETATM   15  N   UNL     1      42.227 -18.143   3.605  1.00  0.00    -0.360 N 
HETATM   16  H   UNL     1      41.509 -18.841   3.454  1.00  0.00     0.162 HD
HETATM   17  O   UNL     1      42.975 -16.076   2.948  1.00  0.00    -0.273 OA
BRANCH  15  18
HETATM   18  C   UNL     1      42.942 -18.146   4.871  1.00  0.00     0.127 C 
BRANCH  18  19
HETATM   19  C   UNL     1      44.406 -18.551   4.707  1.00  0.00     0.058 C 
BRANCH  19  20
HETATM   20  C   UNL     1      44.533 -19.996   4.291  1.00  0.00    -0.057 A 
HETATM   21  C   UNL     1      44.470 -20.353   2.938  1.00  0.00     0.007 A 
HETATM   22  C   UNL     1      44.546 -21.693   2.555  1.00  0.00     0.001 A 
HETATM   23  C   UNL     1      44.682 -22.688   3.521  1.00  0.00     0.000 A 
HETATM   24  C   UNL     1      44.744 -22.344   4.870  1.00  0.00     0.001 A 
HETATM   25  C   UNL     1      44.669 -21.005   5.255  1.00  0.00     0.007 A 
ENDBRANCH  19  20
ENDBRANCH  18  19
ENDBRANCH  15  18
ENDBRANCH  13  14
ENDBRANCH  12  13
ENDBRANCH   2  12
BRANCH   1  26
HETATM   26  C   UNL     1      40.604 -12.880   2.901  1.00  0.00     0.043 A 
HETATM   27  C   UNL     1      39.344 -12.359   3.220  1.00  0.00     0.032 A 
HETATM   28  C   UNL     1      39.040 -12.006   4.537  1.00  0.00     0.026 A 
HETATM   29  C   UNL     1      39.994 -12.155   5.546  1.00  0.00     0.040 A 
HETATM   30  C   UNL     1      41.266 -12.667   5.253  1.00  0.00    -0.038 A 
HETATM   31 CL   UNL     1      39.561 -11.674   7.146  1.00  0.00    -0.084 Cl
HETATM   32  C   UNL     1      42.321 -12.828   6.313  1.00  0.00     0.050 C 
HETATM   33  C   UNL     1      41.556 -13.029   3.925  1.00  0.00     0.038 A 
ENDBRANCH   1  26
BRANCH   6  34
HETATM   34  N   UNL     1      41.845 -10.918   1.165  1.00  0.00    -0.384 N 
HETATM   35  H   UNL     1      42.138 -10.183   0.538  1.00  0.00     0.157 HD
HETATM   36  H   UNL     1      41.673 -10.677   2.133  1.00  0.00     0.157 HD
ENDBRANCH   6  34
TORSDOF 8
ENDMDL
MODEL 10
REMARK VINA RESULT:      -8.2      4.329      7.680
REMARK  8 active torsions:
REMARK  status: ('A' for Active; 'I' for Inactive)
REMARK    1  A    between atoms: C_7  and  N_8 
REMARK    2  A    between atoms: C_9  and  S_10 
REMARK    3  A    between atoms: S_10  and  C_11 
REMARK    4  A    between atoms: C_11  and  C_12 
REMARK       I    between atoms: C_12  and  N_13 
REMARK    5  A    between atoms: N_13  and  C_14 
REMARK    6  A    between atoms: C_14  and  C_15 
REMARK    7  A    between atoms: C_15  and  C_16 
REMARK    8  A    between atoms: C_26  and  N_27 
ROOT
HETATM    1  N   UNL     1      42.721 -18.304   3.569  1.00  0.00    -0.276 N 
HETATM    2  C   UNL     1      42.294 -18.592   2.244  1.00  0.00     0.177 A 
HETATM    3  N   UNL     1      42.615 -19.656   1.549  1.00  0.00    -0.204 NA
HETATM    4  C   UNL     1      43.418 -20.520   2.205  1.00  0.00     0.162 A 
HETATM    5  C   UNL     1      43.932 -20.436   3.469  1.00  0.00     0.081 A 
HETATM    6  C   UNL     1      43.611 -19.261   4.222  1.00  0.00     0.124 A 
HETATM    7  N   UNL     1      43.875 -21.705   1.708  1.00  0.00    -0.260 N 
HETATM    8  H   UNL     1      43.699 -22.105   0.792  1.00  0.00     0.191 HD
HETATM    9  N   UNL     1      44.638 -22.387   2.590  1.00  0.00    -0.177 NA
HETATM   10  C   UNL     1      44.672 -21.608   3.683  1.00  0.00     0.068 A 
HETATM   11  C   UNL     1      45.422 -22.065   4.877  1.00  0.00     0.073 C 
ENDROOT
BRANCH   2  12
HETATM   12  S   UNL     1      41.175 -17.490   1.404  1.00  0.00    -0.082 SA
BRANCH  12  13
HETATM   13  C   UNL     1      42.385 -16.365   0.640  1.00  0.00     0.185 C 
BRANCH  13  14
HETATM   14  C   UNL     1      41.804 -14.998   0.332  1.00  0.00     0.227 C 
HETATM   15  N   UNL     1      41.782 -14.646  -1.001  1.00  0.00    -0.360 N 
HETATM   16  H   UNL     1      42.182 -15.298  -1.666  1.00  0.00     0.162 HD
HETATM   17  O   UNL     1      41.473 -14.231   1.234  1.00  0.00    -0.273 OA
BRANCH  15  18
HETATM   18  C   UNL     1      41.561 -13.273  -1.422  1.00  0.00     0.127 C 
BRANCH  18  19
HETATM   19  C   UNL     1      42.624 -12.793  -2.410  1.00  0.00     0.058 C 
BRANCH  19  20
HETATM   20  C   UNL     1      42.837 -11.303  -2.305  1.00  0.00    -0.057 A 
HETATM   21  C   UNL     1      43.375 -10.743  -1.139  1.00  0.00     0.007 A 
HETATM   22  C   UNL     1      43.535  -9.361  -1.025  1.00  0.00     0.001 A 
HETATM   23  C   UNL     1      43.155  -8.526  -2.073  1.00  0.00     0.000 A 
HETATM   24  C   UNL     1      42.617  -9.071  -3.238  1.00  0.00     0.001 A 
HETATM   25  C   UNL     1      42.457 -10.453  -3.354  1.00  0.00     0.007 A 
ENDBRANCH  19  20
ENDBRANCH  18  19
ENDBRANCH  15  18
ENDBRANCH  13  14
ENDBRANCH  12  13
ENDBRANCH   2  12
BRANCH   1  26
HETATM   26  C   UNL     1      42.290 -17.138   4.267  1.00  0.00     0.043 A 
HETATM   27  C   UNL     1      41.175 -17.168   5.112  1.00  0.00     0.032 A 
HETATM   28  C   UNL     1      40.719 -15.995   5.720  1.00  0.00     0.026 A 
HETATM   29  C   UNL     1      41.362 -14.779   5.479  1.00  0.00     0.040 A 
HETATM   30  C   UNL     1      42.477 -14.719   4.631  1.00  0.00    -0.038 A 
HETATM   31 CL   UNL     1      40.730 -13.365   6.241  1.00  0.00    -0.084 Cl
HETATM   32  C   UNL     1      43.185 -13.424   4.340  1.00  0.00     0.050 C 
HETATM   33  C   UNL     1      42.933 -15.908   4.035  1.00  0.00     0.038 A 
ENDBRANCH   1  26
BRANCH   6  34
HETATM   34  N   UNL     1      44.132 -19.057   5.417  1.00  0.00    -0.384 N 
HETATM   35  H   UNL     1      43.555 -18.945   6.238  1.00  0.00     0.157 HD
HETATM   36  H   UNL     1      45.137 -19.050   5.539  1.00  0.00     0.157 HD
ENDBRANCH   6  34
TORSDOF 8
ENDMDL
