MODEL 1
REMARK VINA RESULT:     -10.7      0.000      0.000
REMARK  6 active torsions:
REMARK  status: ('A' for Active; 'I' for Inactive)
REMARK    1  A    between atoms: C_5  and  N_6 
REMARK    2  A    between atoms: N_6  and  N_7 
REMARK       I    between atoms: N_7  and  C_8 
REMARK    3  A    between atoms: C_8  and  C_9 
REMARK    4  A    between atoms: C_9  and  N_10 
REMARK    5  A    between atoms: N_10  and  C_11 
REMARK    6  A    between atoms: C_13  and  C_14 
ROOT
HETATM    1  C   UNL     1      44.037 -17.098   5.711  1.00  0.00     0.203 A 
HETATM    2  N   UNL     1      43.296 -16.649   4.698  1.00  0.00    -0.217 NA
HETATM    3  C   UNL     1      43.094 -17.486   3.654  1.00  0.00     0.083 A 
HETATM    4  C   UNL     1      43.660 -18.771   3.587  1.00  0.00     0.023 A 
HETATM    5  C   UNL     1      44.402 -19.130   4.715  1.00  0.00     0.072 A 
HETATM    6  N   UNL     1      44.586 -18.314   5.757  1.00  0.00    -0.218 NA
HETATM    7  C   UNL     1      43.558 -19.686   2.502  1.00  0.00     0.023 A 
HETATM    8  C   UNL     1      44.169 -20.942   2.549  1.00  0.00    -0.061 A 
HETATM    9  C   UNL     1      44.041 -21.912   1.412  1.00  0.00     0.048 C 
HETATM   10  C   UNL     1      44.874 -21.295   3.696  1.00  0.00     0.009 A 
HETATM   11  C   UNL     1      44.988 -20.389   4.755  1.00  0.00     0.033 A 
ENDROOT
BRANCH   1  12
HETATM   12  N   UNL     1      44.338 -16.277   6.788  1.00  0.00    -0.252 NA
HETATM   13  H   UNL     1      43.969 -16.777   7.594  1.00  0.00     0.131 HD
BRANCH  12  14
HETATM   14  C   UNL     1      43.870 -14.901   6.679  1.00  0.00     0.199 C 
BRANCH  14  15
HETATM   15  C   UNL     1      44.836 -13.905   7.329  1.00  0.00     0.245 C 
HETATM   16  N   UNL     1      44.399 -13.451   8.568  1.00  0.00    -0.286 N 
HETATM   17  H   UNL     1      43.710 -13.958   9.117  1.00  0.00     0.184 HD
HETATM   18  O   UNL     1      45.877 -13.502   6.809  1.00  0.00    -0.271 OA
BRANCH  16  19
HETATM   19  N   UNL     1      45.292 -12.657   9.316  1.00  0.00    -0.203 NA
HETATM   20  H   UNL     1      45.711 -11.943   8.699  1.00  0.00     0.153 HD
BRANCH  19  21
HETATM   21  C   UNL     1      44.684 -11.976  10.406  1.00  0.00     0.027 A 
HETATM   22  C   UNL     1      44.614 -10.578  10.340  1.00  0.00     0.026 A 
HETATM   23  C   UNL     1      43.970  -9.838  11.337  1.00  0.00     0.008 A 
HETATM   24  C   UNL     1      43.370 -10.485  12.420  1.00  0.00    -0.062 A 
HETATM   25  C   UNL     1      42.637  -9.703  13.469  1.00  0.00     0.048 C 
HETATM   26  C   UNL     1      43.403 -11.882  12.475  1.00  0.00     0.008 A 
HETATM   27  C   UNL     1      44.052 -12.620  11.477  1.00  0.00     0.026 A 
ENDBRANCH  19  21
ENDBRANCH  16  19
ENDBRANCH  14  15
ENDBRANCH  12  14
ENDBRANCH   1  12
BRANCH   3  28
HETATM   28  C   UNL     1      42.240 -16.911   2.598  1.00  0.00    -0.006 A 
HETATM   29  C   UNL     1      42.803 -16.468   1.389  1.00  0.00     0.014 A 
HETATM   30  C   UNL     1      42.006 -15.922   0.378  1.00  0.00     0.001 A 
HETATM   31  C   UNL     1      40.632 -15.803   0.563  1.00  0.00     0.000 A 
HETATM   32  C   UNL     1      40.054 -16.218   1.760  1.00  0.00     0.001 A 
HETATM   33  C   UNL     1      40.852 -16.759   2.772  1.00  0.00     0.014 A 
ENDBRANCH   3  28
TORSDOF 6
ENDMDL
MODEL 2
REMARK VINA RESULT:     -10.2      3.953      6.744
REMARK  6 active torsions:
REMARK  status: ('A' for Active; 'I' for Inactive)
REMARK    1  A    between atoms: C_5  and  N_6 
REMARK    2  A    between atoms: N_6  and  N_7 
REMARK       I    between atoms: N_7  and  C_8 
REMARK    3  A    between atoms: C_8  and  C_9 
REMARK    4  A    between atoms: C_9  and  N_10 
REMARK    5  A    between atoms: N_10  and  C_11 
REMARK    6  A    between atoms: C_13  and  C_14 
ROOT
HETATM    1  C   UNL     1      40.023 -14.865   3.267  1.00  0.00     0.203 A 
HETATM    2  N   UNL     1      40.890 -15.874   3.185  1.00  0.00    -0.217 NA
HETATM    3  C   UNL     1      41.332 -16.217   1.952  1.00  0.00     0.083 A 
HETATM    4  C   UNL     1      40.887 -15.583   0.779  1.00  0.00     0.023 A 
HETATM    5  C   UNL     1      39.992 -14.533   1.000  1.00  0.00     0.072 A 
HETATM    6  N   UNL     1      39.570 -14.178   2.217  1.00  0.00    -0.218 NA
HETATM    7  C   UNL     1      41.244 -15.924  -0.555  1.00  0.00     0.023 A 
HETATM    8  C   UNL     1      40.732 -15.218  -1.649  1.00  0.00    -0.061 A 
HETATM    9  C   UNL     1      41.128 -15.567  -3.052  1.00  0.00     0.048 C 
HETATM   10  C   UNL     1      39.870 -14.153  -1.406  1.00  0.00     0.009 A 
HETATM   11  C   UNL     1      39.507 -13.830  -0.096  1.00  0.00     0.033 A 
ENDROOT
BRANCH   1  12
HETATM   12  N   UNL     1      39.479 -14.496   4.489  1.00  0.00    -0.252 NA
HETATM   13  H   UNL     1      38.479 -14.439   4.310  1.00  0.00     0.131 HD
BRANCH  12  14
HETATM   14  C   UNL     1      40.042 -13.293   5.090  1.00  0.00     0.199 C 
BRANCH  14  15
HETATM   15  C   UNL     1      41.469 -13.513   5.604  1.00  0.00     0.245 C 
HETATM   16  N   UNL     1      41.626 -14.719   6.278  1.00  0.00    -0.286 N 
HETATM   17  H   UNL     1      40.980 -15.493   6.155  1.00  0.00     0.184 HD
HETATM   18  O   UNL     1      42.387 -12.702   5.481  1.00  0.00    -0.271 OA
BRANCH  16  19
HETATM   19  N   UNL     1      42.936 -15.085   6.647  1.00  0.00    -0.203 NA
HETATM   20  H   UNL     1      43.031 -15.021   7.673  1.00  0.00     0.153 HD
BRANCH  19  21
HETATM   21  C   UNL     1      43.293 -16.408   6.268  1.00  0.00     0.027 A 
HETATM   22  C   UNL     1      44.600 -16.833   6.545  1.00  0.00     0.026 A 
HETATM   23  C   UNL     1      45.009 -18.141   6.268  1.00  0.00     0.008 A 
HETATM   24  C   UNL     1      44.112 -19.060   5.717  1.00  0.00    -0.062 A 
HETATM   25  C   UNL     1      44.529 -20.478   5.460  1.00  0.00     0.048 C 
HETATM   26  C   UNL     1      42.796 -18.655   5.472  1.00  0.00     0.008 A 
HETATM   27  C   UNL     1      42.390 -17.343   5.746  1.00  0.00     0.026 A 
ENDBRANCH  19  21
ENDBRANCH  16  19
ENDBRANCH  14  15
ENDBRANCH  12  14
ENDBRANCH   1  12
BRANCH   3  28
HETATM   28  C   UNL     1      42.308 -17.323   1.966  1.00  0.00    -0.006 A 
HETATM   29  C   UNL     1      43.685 -17.055   2.056  1.00  0.00     0.014 A 
HETATM   30  C   UNL     1      44.623 -18.091   2.072  1.00  0.00     0.001 A 
HETATM   31  C   UNL     1      44.199 -19.415   1.992  1.00  0.00     0.000 A 
HETATM   32  C   UNL     1      42.841 -19.704   1.885  1.00  0.00     0.001 A 
HETATM   33  C   UNL     1      41.905 -18.666   1.863  1.00  0.00     0.014 A 
ENDBRANCH   3  28
TORSDOF 6
ENDMDL
MODEL 3
REMARK VINA RESULT:     -10.1      1.996      2.789
REMARK  6 active torsions:
REMARK  status: ('A' for Active; 'I' for Inactive)
REMARK    1  A    between atoms: C_5  and  N_6 
REMARK    2  A    between atoms: N_6  and  N_7 
REMARK       I    between atoms: N_7  and  C_8 
REMARK    3  A    between atoms: C_8  and  C_9 
REMARK    4  A    between atoms: C_9  and  N_10 
REMARK    5  A    between atoms: N_10  and  C_11 
REMARK    6  A    between atoms: C_13  and  C_14 
ROOT
HETATM    1  C   UNL     1      43.610 -15.065   6.512  1.00  0.00     0.203 A 
HETATM    2  N   UNL     1      43.360 -15.367   5.238  1.00  0.00    -0.217 NA
HETATM    3  C   UNL     1      43.304 -16.678   4.907  1.00  0.00     0.083 A 
HETATM    4  C   UNL     1      43.533 -17.708   5.835  1.00  0.00     0.023 A 
HETATM    5  C   UNL     1      43.770 -17.264   7.138  1.00  0.00     0.072 A 
HETATM    6  N   UNL     1      43.806 -15.971   7.472  1.00  0.00    -0.218 NA
HETATM    7  C   UNL     1      43.564 -19.104   5.560  1.00  0.00     0.023 A 
HETATM    8  C   UNL     1      43.806 -20.040   6.570  1.00  0.00    -0.061 A 
HETATM    9  C   UNL     1      43.814 -21.511   6.280  1.00  0.00     0.048 C 
HETATM   10  C   UNL     1      44.004 -19.579   7.868  1.00  0.00     0.009 A 
HETATM   11  C   UNL     1      43.991 -18.207   8.134  1.00  0.00     0.033 A 
ENDROOT
BRANCH   1  12
HETATM   12  N   UNL     1      43.743 -13.744   6.915  1.00  0.00    -0.252 NA
HETATM   13  H   UNL     1      44.069 -13.260   6.081  1.00  0.00     0.131 HD
BRANCH  12  14
HETATM   14  C   UNL     1      44.578 -13.527   8.090  1.00  0.00     0.199 C 
BRANCH  14  15
HETATM   15  C   UNL     1      44.539 -12.073   8.571  1.00  0.00     0.245 C 
HETATM   16  N   UNL     1      43.252 -11.619   8.831  1.00  0.00    -0.286 N 
HETATM   17  H   UNL     1      42.479 -12.256   9.003  1.00  0.00     0.184 HD
HETATM   18  O   UNL     1      45.530 -11.350   8.685  1.00  0.00    -0.271 OA
BRANCH  16  19
HETATM   19  N   UNL     1      43.125 -10.350   9.431  1.00  0.00    -0.203 NA
HETATM   20  H   UNL     1      42.353  -9.835   8.980  1.00  0.00     0.153 HD
BRANCH  19  21
HETATM   21  C   UNL     1      42.847 -10.397  10.825  1.00  0.00     0.027 A 
HETATM   22  C   UNL     1      43.713  -9.706  11.684  1.00  0.00     0.026 A 
HETATM   23  C   UNL     1      43.470  -9.644  13.060  1.00  0.00     0.008 A 
HETATM   24  C   UNL     1      42.344 -10.266  13.607  1.00  0.00    -0.062 A 
HETATM   25  C   UNL     1      42.051 -10.165  15.074  1.00  0.00     0.048 C 
HETATM   26  C   UNL     1      41.455 -10.926  12.752  1.00  0.00     0.008 A 
HETATM   27  C   UNL     1      41.703 -10.990  11.376  1.00  0.00     0.026 A 
ENDBRANCH  19  21
ENDBRANCH  16  19
ENDBRANCH  14  15
ENDBRANCH  12  14
ENDBRANCH   1  12
BRANCH   3  28
HETATM   28  C   UNL     1      42.993 -16.911   3.484  1.00  0.00    -0.006 A 
HETATM   29  C   UNL     1      41.659 -16.920   3.039  1.00  0.00     0.014 A 
HETATM   30  C   UNL     1      41.348 -17.137   1.694  1.00  0.00     0.001 A 
HETATM   31  C   UNL     1      42.367 -17.357   0.770  1.00  0.00     0.000 A 
HETATM   32  C   UNL     1      43.694 -17.370   1.191  1.00  0.00     0.001 A 
HETATM   33  C   UNL     1      44.004 -17.158   2.537  1.00  0.00     0.014 A 
ENDBRANCH   3  28
TORSDOF 6
ENDMDL
MODEL 4
REMARK VINA RESULT:      -9.8      3.317      4.938
REMARK  6 active torsions:
REMARK  status: ('A' for Active; 'I' for Inactive)
REMARK    1  A    between atoms: C_5  and  N_6 
REMARK    2  A    between atoms: N_6  and  N_7 
REMARK       I    between atoms: N_7  and  C_8 
REMARK    3  A    between atoms: C_8  and  C_9 
REMARK    4  A    between atoms: C_9  and  N_10 
REMARK    5  A    between atoms: N_10  and  C_11 
REMARK    6  A    between atoms: C_13  and  C_14 
ROOT
HETATM    1  C   UNL     1      43.515 -17.422   6.019  1.00  0.00     0.203 A 
HETATM    2  N   UNL     1      43.028 -16.931   4.880  1.00  0.00    -0.217 NA
HETATM    3  C   UNL     1      43.063 -17.733   3.789  1.00  0.00     0.083 A 
HETATM    4  C   UNL     1      43.620 -19.023   3.810  1.00  0.00     0.023 A 
HETATM    5  C   UNL     1      44.084 -19.427   5.064  1.00  0.00     0.072 A 
HETATM    6  N   UNL     1      44.031 -18.646   6.147  1.00  0.00    -0.218 NA
HETATM    7  C   UNL     1      43.761 -19.901   2.700  1.00  0.00     0.023 A 
HETATM    8  C   UNL     1      44.337 -21.168   2.842  1.00  0.00    -0.061 A 
HETATM    9  C   UNL     1      44.464 -22.099   1.673  1.00  0.00     0.048 C 
HETATM   10  C   UNL     1      44.760 -21.565   4.107  1.00  0.00     0.009 A 
HETATM   11  C   UNL     1      44.636 -20.695   5.193  1.00  0.00     0.033 A 
ENDROOT
BRANCH   1  12
HETATM   12  N   UNL     1      43.570 -16.639   7.163  1.00  0.00    -0.252 NA
HETATM   13  H   UNL     1      42.610 -16.330   7.300  1.00  0.00     0.131 HD
BRANCH  12  14
HETATM   14  C   UNL     1      44.544 -15.556   7.137  1.00  0.00     0.199 C 
BRANCH  14  15
HETATM   15  C   UNL     1      44.012 -14.313   6.416  1.00  0.00     0.245 C 
HETATM   16  N   UNL     1      42.635 -14.163   6.532  1.00  0.00    -0.286 N 
HETATM   17  H   UNL     1      42.102 -14.620   7.266  1.00  0.00     0.184 HD
HETATM   18  O   UNL     1      44.708 -13.535   5.762  1.00  0.00    -0.271 OA
BRANCH  16  19
HETATM   19  N   UNL     1      42.073 -12.967   6.041  1.00  0.00    -0.203 NA
HETATM   20  H   UNL     1      42.828 -12.288   5.852  1.00  0.00     0.153 HD
BRANCH  19  21
HETATM   21  C   UNL     1      41.335 -13.129   4.836  1.00  0.00     0.027 A 
HETATM   22  C   UNL     1      40.631 -14.328   4.662  1.00  0.00     0.026 A 
HETATM   23  C   UNL     1      39.825 -14.536   3.539  1.00  0.00     0.008 A 
HETATM   24  C   UNL     1      39.696 -13.541   2.567  1.00  0.00    -0.062 A 
HETATM   25  C   UNL     1      38.797 -13.738   1.382  1.00  0.00     0.048 C 
HETATM   26  C   UNL     1      40.366 -12.327   2.751  1.00  0.00     0.008 A 
HETATM   27  C   UNL     1      41.176 -12.123   3.875  1.00  0.00     0.026 A 
ENDBRANCH  19  21
ENDBRANCH  16  19
ENDBRANCH  14  15
ENDBRANCH  12  14
ENDBRANCH   1  12
BRANCH   3  28
HETATM   28  C   UNL     1      42.475 -17.113   2.587  1.00  0.00    -0.006 A 
HETATM   29  C   UNL     1      41.396 -17.725   1.925  1.00  0.00     0.014 A 
HETATM   30  C   UNL     1      40.827 -17.150   0.786  1.00  0.00     0.001 A 
HETATM   31  C   UNL     1      41.331 -15.953   0.284  1.00  0.00     0.000 A 
HETATM   32  C   UNL     1      42.411 -15.337   0.913  1.00  0.00     0.001 A 
HETATM   33  C   UNL     1      42.983 -15.916   2.049  1.00  0.00     0.014 A 
ENDBRANCH   3  28
TORSDOF 6
ENDMDL
MODEL 5
REMARK VINA RESULT:      -9.7      4.638      7.065
REMARK  6 active torsions:
REMARK  status: ('A' for Active; 'I' for Inactive)
REMARK    1  A    between atoms: C_5  and  N_6 
REMARK    2  A    between atoms: N_6  and  N_7 
REMARK       I    between atoms: N_7  and  C_8 
REMARK    3  A    between atoms: C_8  and  C_9 
REMARK    4  A    between atoms: C_9  and  N_10 
REMARK    5  A    between atoms: N_10  and  C_11 
REMARK    6  A    between atoms: C_13  and  C_14 
ROOT
HETATM    1  C   UNL     1      41.202 -13.170   2.273  1.00  0.00     0.203 A 
HETATM    2  N   UNL     1      41.731 -14.388   2.390  1.00  0.00    -0.217 NA
HETATM    3  C   UNL     1      41.723 -15.179   1.291  1.00  0.00     0.083 A 
HETATM    4  C   UNL     1      41.151 -14.781   0.070  1.00  0.00     0.023 A 
HETATM    5  C   UNL     1      40.643 -13.480   0.072  1.00  0.00     0.072 A 
HETATM    6  N   UNL     1      40.669 -12.688   1.148  1.00  0.00    -0.218 NA
HETATM    7  C   UNL     1      41.037 -15.572  -1.108  1.00  0.00     0.023 A 
HETATM    8  C   UNL     1      40.443 -15.066  -2.268  1.00  0.00    -0.061 A 
HETATM    9  C   UNL     1      40.345 -15.895  -3.515  1.00  0.00     0.048 C 
HETATM   10  C   UNL     1      39.976 -13.755  -2.258  1.00  0.00     0.009 A 
HETATM   11  C   UNL     1      40.073 -12.986  -1.095  1.00  0.00     0.033 A 
ENDROOT
BRANCH   1  12
HETATM   12  N   UNL     1      41.118 -12.324   3.370  1.00  0.00    -0.252 NA
HETATM   13  H   UNL     1      41.937 -12.558   3.928  1.00  0.00     0.131 HD
BRANCH  12  14
HETATM   14  C   UNL     1      39.863 -12.377   4.109  1.00  0.00     0.199 C 
BRANCH  14  15
HETATM   15  C   UNL     1      39.922 -13.354   5.288  1.00  0.00     0.245 C 
HETATM   16  N   UNL     1      39.790 -14.682   4.902  1.00  0.00    -0.286 N 
HETATM   17  H   UNL     1      39.968 -14.988   3.950  1.00  0.00     0.184 HD
HETATM   18  O   UNL     1      40.033 -13.017   6.467  1.00  0.00    -0.271 OA
BRANCH  16  19
HETATM   19  N   UNL     1      39.992 -15.664   5.893  1.00  0.00    -0.203 NA
HETATM   20  H   UNL     1      39.208 -16.335   5.873  1.00  0.00     0.153 HD
BRANCH  19  21
HETATM   21  C   UNL     1      41.193 -16.408   5.730  1.00  0.00     0.027 A 
HETATM   22  C   UNL     1      42.392 -15.801   6.128  1.00  0.00     0.026 A 
HETATM   23  C   UNL     1      43.607 -16.492   6.067  1.00  0.00     0.008 A 
HETATM   24  C   UNL     1      43.647 -17.813   5.615  1.00  0.00    -0.062 A 
HETATM   25  C   UNL     1      44.938 -18.575   5.590  1.00  0.00     0.048 C 
HETATM   26  C   UNL     1      42.450 -18.438   5.250  1.00  0.00     0.008 A 
HETATM   27  C   UNL     1      41.236 -17.743   5.309  1.00  0.00     0.026 A 
ENDBRANCH  19  21
ENDBRANCH  16  19
ENDBRANCH  14  15
ENDBRANCH  12  14
ENDBRANCH   1  12
BRANCH   3  28
HETATM   28  C   UNL     1      42.356 -16.493   1.511  1.00  0.00    -0.006 A 
HETATM   29  C   UNL     1      43.750 -16.595   1.658  1.00  0.00     0.014 A 
HETATM   30  C   UNL     1      44.366 -17.832   1.868  1.00  0.00     0.001 A 
HETATM   31  C   UNL     1      43.597 -18.991   1.928  1.00  0.00     0.000 A 
HETATM   32  C   UNL     1      42.215 -18.916   1.767  1.00  0.00     0.001 A 
HETATM   33  C   UNL     1      41.602 -17.680   1.552  1.00  0.00     0.014 A 
ENDBRANCH   3  28
TORSDOF 6
ENDMDL
MODEL 6
REMARK VINA RESULT:      -9.6      3.833      6.220
REMARK  6 active torsions:
REMARK  status: ('A' for Active; 'I' for Inactive)
REMARK    1  A    between atoms: C_5  and  N_6 
REMARK    2  A    between atoms: N_6  and  N_7 
REMARK       I    between atoms: N_7  and  C_8 
REMARK    3  A    between atoms: C_8  and  C_9 
REMARK    4  A    between atoms: C_9  and  N_10 
REMARK    5  A    between atoms: N_10  and  C_11 
REMARK    6  A    between atoms: C_13  and  C_14 
ROOT
HETATM    1  C   UNL     1      41.108 -16.943   1.547  1.00  0.00     0.203 A 
HETATM    2  N   UNL     1      41.935 -17.988   1.579  1.00  0.00    -0.217 NA
HETATM    3  C   UNL     1      42.419 -18.363   2.787  1.00  0.00     0.083 A 
HETATM    4  C   UNL     1      42.114 -17.679   3.976  1.00  0.00     0.023 A 
HETATM    5  C   UNL     1      41.227 -16.613   3.812  1.00  0.00     0.072 A 
HETATM    6  N   UNL     1      40.731 -16.252   2.625  1.00  0.00    -0.218 NA
HETATM    7  C   UNL     1      42.632 -17.961   5.271  1.00  0.00     0.023 A 
HETATM    8  C   UNL     1      42.255 -17.206   6.386  1.00  0.00    -0.061 A 
HETATM    9  C   UNL     1      42.786 -17.521   7.753  1.00  0.00     0.048 C 
HETATM   10  C   UNL     1      41.342 -16.171   6.208  1.00  0.00     0.009 A 
HETATM   11  C   UNL     1      40.848 -15.884   4.932  1.00  0.00     0.033 A 
ENDROOT
BRANCH   1  12
HETATM   12  N   UNL     1      40.620 -16.461   0.341  1.00  0.00    -0.252 NA
HETATM   13  H   UNL     1      40.656 -17.265  -0.282  1.00  0.00     0.131 HD
BRANCH  12  14
HETATM   14  C   UNL     1      41.292 -15.277  -0.180  1.00  0.00     0.199 C 
BRANCH  14  15
HETATM   15  C   UNL     1      41.230 -14.097   0.796  1.00  0.00     0.245 C 
HETATM   16  N   UNL     1      42.378 -13.967   1.569  1.00  0.00    -0.286 N 
HETATM   17  H   UNL     1      43.263 -14.383   1.294  1.00  0.00     0.184 HD
HETATM   18  O   UNL     1      40.258 -13.352   0.927  1.00  0.00    -0.271 OA
BRANCH  16  19
HETATM   19  N   UNL     1      42.482 -12.818   2.379  1.00  0.00    -0.203 NA
HETATM   20  H   UNL     1      41.576 -12.322   2.386  1.00  0.00     0.153 HD
BRANCH  19  21
HETATM   21  C   UNL     1      42.825 -13.096   3.731  1.00  0.00     0.027 A 
HETATM   22  C   UNL     1      43.916 -13.944   3.963  1.00  0.00     0.026 A 
HETATM   23  C   UNL     1      44.361 -14.211   5.262  1.00  0.00     0.008 A 
HETATM   24  C   UNL     1      43.728 -13.625   6.360  1.00  0.00    -0.062 A 
HETATM   25  C   UNL     1      44.227 -13.868   7.753  1.00  0.00     0.048 C 
HETATM   26  C   UNL     1      42.661 -12.748   6.135  1.00  0.00     0.008 A 
HETATM   27  C   UNL     1      42.215 -12.486   4.834  1.00  0.00     0.026 A 
ENDBRANCH  19  21
ENDBRANCH  16  19
ENDBRANCH  14  15
ENDBRANCH  12  14
ENDBRANCH   1  12
BRANCH   3  28
HETATM   28  C   UNL     1      43.300 -19.544   2.723  1.00  0.00    -0.006 A 
HETATM   29  C   UNL     1      43.068 -20.556   1.774  1.00  0.00     0.014 A 
HETATM   30  C   UNL     1      43.894 -21.680   1.700  1.00  0.00     0.001 A 
HETATM   31  C   UNL     1      44.966 -21.816   2.579  1.00  0.00     0.000 A 
HETATM   32  C   UNL     1      45.205 -20.835   3.539  1.00  0.00     0.001 A 
HETATM   33  C   UNL     1      44.374 -19.714   3.616  1.00  0.00     0.014 A 
ENDBRANCH   3  28
TORSDOF 6
ENDMDL
MODEL 7
REMARK VINA RESULT:      -9.5      4.918      9.183
REMARK  6 active torsions:
REMARK  status: ('A' for Active; 'I' for Inactive)
REMARK    1  A    between atoms: C_5  and  N_6 
REMARK    2  A    between atoms: N_6  and  N_7 
REMARK       I    between atoms: N_7  and  C_8 
REMARK    3  A    between atoms: C_8  and  C_9 
REMARK    4  A    between atoms: C_9  and  N_10 
REMARK    5  A    between atoms: N_10  and  C_11 
REMARK    6  A    between atoms: C_13  and  C_14 
ROOT
HETATM    1  C   UNL     1      42.501 -16.579   1.356  1.00  0.00     0.203 A 
HETATM    2  N   UNL     1      42.982 -17.812   1.518  1.00  0.00    -0.217 NA
HETATM    3  C   UNL     1      43.147 -18.255   2.786  1.00  0.00     0.083 A 
HETATM    4  C   UNL     1      42.870 -17.461   3.912  1.00  0.00     0.023 A 
HETATM    5  C   UNL     1      42.359 -16.197   3.611  1.00  0.00     0.072 A 
HETATM    6  N   UNL     1      42.175 -15.763   2.360  1.00  0.00    -0.218 NA
HETATM    7  C   UNL     1      43.080 -17.821   5.273  1.00  0.00     0.023 A 
HETATM    8  C   UNL     1      42.768 -16.941   6.314  1.00  0.00    -0.061 A 
HETATM    9  C   UNL     1      42.970 -17.333   7.748  1.00  0.00     0.048 C 
HETATM   10  C   UNL     1      42.226 -15.700   5.995  1.00  0.00     0.009 A 
HETATM   11  C   UNL     1      42.037 -15.342   4.657  1.00  0.00     0.033 A 
ENDROOT
BRANCH   1  12
HETATM   12  N   UNL     1      42.363 -16.032   0.087  1.00  0.00    -0.252 NA
HETATM   13  H   UNL     1      42.979 -15.223   0.096  1.00  0.00     0.131 HD
BRANCH  12  14
HETATM   14  C   UNL     1      40.996 -15.732  -0.321  1.00  0.00     0.199 C 
BRANCH  14  15
HETATM   15  C   UNL     1      40.943 -14.782  -1.521  1.00  0.00     0.245 C 
HETATM   16  N   UNL     1      42.195 -14.316  -1.904  1.00  0.00    -0.286 N 
HETATM   17  H   UNL     1      43.052 -14.795  -1.644  1.00  0.00     0.184 HD
HETATM   18  O   UNL     1      39.906 -14.423  -2.081  1.00  0.00    -0.271 OA
BRANCH  16  19
HETATM   19  N   UNL     1      42.267 -13.566  -3.095  1.00  0.00    -0.203 NA
HETATM   20  H   UNL     1      41.389 -13.684  -3.626  1.00  0.00     0.153 HD
BRANCH  19  21
HETATM   21  C   UNL     1      42.453 -12.171  -2.888  1.00  0.00     0.027 A 
HETATM   22  C   UNL     1      42.950 -11.760  -1.643  1.00  0.00     0.026 A 
HETATM   23  C   UNL     1      43.228 -10.414  -1.384  1.00  0.00     0.008 A 
HETATM   24  C   UNL     1      43.024  -9.448  -2.372  1.00  0.00    -0.062 A 
HETATM   25  C   UNL     1      43.363  -8.009  -2.119  1.00  0.00     0.048 C 
HETATM   26  C   UNL     1      42.562  -9.854  -3.629  1.00  0.00     0.008 A 
HETATM   27  C   UNL     1      42.282 -11.202  -3.884  1.00  0.00     0.026 A 
ENDBRANCH  19  21
ENDBRANCH  16  19
ENDBRANCH  14  15
ENDBRANCH  12  14
ENDBRANCH   1  12
BRANCH   3  28
HETATM   28  C   UNL     1      43.654 -19.638   2.862  1.00  0.00    -0.006 A 
HETATM   29  C   UNL     1      43.381 -20.554   1.831  1.00  0.00     0.014 A 
HETATM   30  C   UNL     1      43.855 -21.867   1.887  1.00  0.00     0.001 A 
HETATM   31  C   UNL     1      44.606 -22.290   2.981  1.00  0.00     0.000 A 
HETATM   32  C   UNL     1      44.874 -21.405   4.022  1.00  0.00     0.001 A 
HETATM   33  C   UNL     1      44.395 -20.094   3.967  1.00  0.00     0.014 A 
ENDBRANCH   3  28
TORSDOF 6
ENDMDL
MODEL 8
REMARK VINA RESULT:      -9.4      5.313      9.354
REMARK  6 active torsions:
REMARK  status: ('A' for Active; 'I' for Inactive)
REMARK    1  A    between atoms: C_5  and  N_6 
REMARK    2  A    between atoms: N_6  and  N_7 
REMARK       I    between atoms: N_7  and  C_8 
REMARK    3  A    between atoms: C_8  and  C_9 
REMARK    4  A    between atoms: C_9  and  N_10 
REMARK    5  A    between atoms: N_10  and  C_11 
REMARK    6  A    between atoms: C_13  and  C_14 
ROOT
HETATM    1  C   UNL     1      41.545 -13.121   0.845  1.00  0.00     0.203 A 
HETATM    2  N   UNL     1      40.804 -13.805  -0.028  1.00  0.00    -0.217 NA
HETATM    3  C   UNL     1      40.845 -13.413  -1.323  1.00  0.00     0.083 A 
HETATM    4  C   UNL     1      41.596 -12.308  -1.761  1.00  0.00     0.023 A 
HETATM    5  C   UNL     1      42.338 -11.685  -0.755  1.00  0.00     0.072 A 
HETATM    6  N   UNL     1      42.317 -12.082   0.520  1.00  0.00    -0.218 NA
HETATM    7  C   UNL     1      41.640 -11.787  -3.084  1.00  0.00     0.023 A 
HETATM    8  C   UNL     1      42.426 -10.675  -3.402  1.00  0.00    -0.061 A 
HETATM    9  C   UNL     1      42.487 -10.142  -4.802  1.00  0.00     0.048 C 
HETATM   10  C   UNL     1      43.187 -10.090  -2.394  1.00  0.00     0.009 A 
HETATM   11  C   UNL     1      43.129 -10.593  -1.091  1.00  0.00     0.033 A 
ENDROOT
BRANCH   1  12
HETATM   12  N   UNL     1      41.508 -13.425   2.198  1.00  0.00    -0.252 NA
HETATM   13  H   UNL     1      41.297 -12.537   2.647  1.00  0.00     0.131 HD
BRANCH  12  14
HETATM   14  C   UNL     1      42.693 -14.089   2.725  1.00  0.00     0.199 C 
BRANCH  14  15
HETATM   15  C   UNL     1      42.350 -15.373   3.488  1.00  0.00     0.245 C 
HETATM   16  N   UNL     1      43.464 -16.158   3.763  1.00  0.00    -0.286 N 
HETATM   17  H   UNL     1      44.406 -15.778   3.759  1.00  0.00     0.184 HD
HETATM   18  O   UNL     1      41.209 -15.714   3.800  1.00  0.00    -0.271 OA
BRANCH  16  19
HETATM   19  N   UNL     1      43.273 -17.276   4.599  1.00  0.00    -0.203 NA
HETATM   20  H   UNL     1      42.290 -17.304   4.912  1.00  0.00     0.153 HD
BRANCH  19  21
HETATM   21  C   UNL     1      43.555 -18.520   3.971  1.00  0.00     0.027 A 
HETATM   22  C   UNL     1      43.005 -18.746   2.701  1.00  0.00     0.026 A 
HETATM   23  C   UNL     1      43.291 -19.913   1.986  1.00  0.00     0.008 A 
HETATM   24  C   UNL     1      44.146 -20.879   2.524  1.00  0.00    -0.062 A 
HETATM   25  C   UNL     1      44.495 -22.112   1.744  1.00  0.00     0.048 C 
HETATM   26  C   UNL     1      44.728 -20.645   3.774  1.00  0.00     0.008 A 
HETATM   27  C   UNL     1      44.436 -19.478   4.489  1.00  0.00     0.026 A 
ENDBRANCH  19  21
ENDBRANCH  16  19
ENDBRANCH  14  15
ENDBRANCH  12  14
ENDBRANCH   1  12
BRANCH   3  28
HETATM   28  C   UNL     1      40.018 -14.248  -2.214  1.00  0.00    -0.006 A 
HETATM   29  C   UNL     1      38.653 -13.963  -2.393  1.00  0.00     0.014 A 
HETATM   30  C   UNL     1      37.856 -14.744  -3.234  1.00  0.00     0.001 A 
HETATM   31  C   UNL     1      38.410 -15.829  -3.908  1.00  0.00     0.000 A 
HETATM   32  C   UNL     1      39.756 -16.141  -3.733  1.00  0.00     0.001 A 
HETATM   33  C   UNL     1      40.551 -15.363  -2.887  1.00  0.00     0.014 A 
ENDBRANCH   3  28
TORSDOF 6
ENDMDL
MODEL 9
REMARK VINA RESULT:      -9.2      4.027      9.078
REMARK  6 active torsions:
REMARK  status: ('A' for Active; 'I' for Inactive)
REMARK    1  A    between atoms: C_5  and  N_6 
REMARK    2  A    between atoms: N_6  and  N_7 
REMARK       I    between atoms: N_7  and  C_8 
REMARK    3  A    between atoms: C_8  and  C_9 
REMARK    4  A    between atoms: C_9  and  N_10 
REMARK    5  A    between atoms: N_10  and  C_11 
REMARK    6  A    between atoms: C_13  and  C_14 
ROOT
HETATM    1  C   UNL     1      41.844 -12.958   2.608  1.00  0.00     0.203 A 
HETATM    2  N   UNL     1      42.209 -13.866   3.513  1.00  0.00    -0.217 NA
HETATM    3  C   UNL     1      41.825 -13.659   4.794  1.00  0.00     0.083 A 
HETATM    4  C   UNL     1      41.102 -12.523   5.199  1.00  0.00     0.023 A 
HETATM    5  C   UNL     1      40.768 -11.655   4.157  1.00  0.00     0.072 A 
HETATM    6  N   UNL     1      41.128 -11.866   2.887  1.00  0.00    -0.218 NA
HETATM    7  C   UNL     1      40.720 -12.193   6.529  1.00  0.00     0.023 A 
HETATM    8  C   UNL     1      40.001 -11.028   6.812  1.00  0.00    -0.061 A 
HETATM    9  C   UNL     1      39.581 -10.695   8.212  1.00  0.00     0.048 C 
HETATM   10  C   UNL     1      39.647 -10.194   5.755  1.00  0.00     0.009 A 
HETATM   11  C   UNL     1      40.038 -10.511   4.451  1.00  0.00     0.033 A 
ENDROOT
BRANCH   1  12
HETATM   12  N   UNL     1      42.253 -13.069   1.286  1.00  0.00    -0.252 NA
HETATM   13  H   UNL     1      42.554 -12.129   1.039  1.00  0.00     0.131 HD
BRANCH  12  14
HETATM   14  C   UNL     1      41.270 -13.636   0.371  1.00  0.00     0.199 C 
BRANCH  14  15
HETATM   15  C   UNL     1      41.661 -15.039  -0.105  1.00  0.00     0.245 C 
HETATM   16  N   UNL     1      42.607 -15.648   0.711  1.00  0.00    -0.286 N 
HETATM   17  H   UNL     1      42.766 -15.350   1.668  1.00  0.00     0.184 HD
HETATM   18  O   UNL     1      41.226 -15.575  -1.125  1.00  0.00    -0.271 OA
BRANCH  16  19
HETATM   19  N   UNL     1      42.911 -17.000   0.448  1.00  0.00    -0.203 NA
HETATM   20  H   UNL     1      43.659 -17.049  -0.262  1.00  0.00     0.153 HD
BRANCH  19  21
HETATM   21  C   UNL     1      43.357 -17.723   1.588  1.00  0.00     0.027 A 
HETATM   22  C   UNL     1      43.521 -17.012   2.784  1.00  0.00     0.026 A 
HETATM   23  C   UNL     1      43.888 -17.662   3.967  1.00  0.00     0.008 A 
HETATM   24  C   UNL     1      44.090 -19.044   3.981  1.00  0.00    -0.062 A 
HETATM   25  C   UNL     1      44.438 -19.755   5.254  1.00  0.00     0.048 C 
HETATM   26  C   UNL     1      43.892 -19.766   2.799  1.00  0.00     0.008 A 
HETATM   27  C   UNL     1      43.528 -19.113   1.616  1.00  0.00     0.026 A 
ENDBRANCH  19  21
ENDBRANCH  16  19
ENDBRANCH  14  15
ENDBRANCH  12  14
ENDBRANCH   1  12
BRANCH   3  28
HETATM   28  C   UNL     1      42.249 -14.731   5.713  1.00  0.00    -0.006 A 
HETATM   29  C   UNL     1      43.528 -14.703   6.298  1.00  0.00     0.014 A 
HETATM   30  C   UNL     1      43.945 -15.711   7.172  1.00  0.00     0.001 A 
HETATM   31  C   UNL     1      43.092 -16.769   7.472  1.00  0.00     0.000 A 
HETATM   32  C   UNL     1      41.827 -16.828   6.891  1.00  0.00     0.001 A 
HETATM   33  C   UNL     1      41.413 -15.822   6.013  1.00  0.00     0.014 A 
ENDBRANCH   3  28
TORSDOF 6
ENDMDL
MODEL 10
REMARK VINA RESULT:      -9.1      4.314      8.224
REMARK  6 active torsions:
REMARK  status: ('A' for Active; 'I' for Inactive)
REMARK    1  A    between atoms: C_5  and  N_6 
REMARK    2  A    between atoms: N_6  and  N_7 
REMARK       I    between atoms: N_7  and  C_8 
REMARK    3  A    between atoms: C_8  and  C_9 
REMARK    4  A    between atoms: C_9  and  N_10 
REMARK    5  A    between atoms: N_10  and  C_11 
REMARK    6  A    between atoms: C_13  and  C_14 
ROOT
HETATM    1  C   UNL     1      40.201 -15.337   3.222  1.00  0.00     0.203 A 
HETATM    2  N   UNL     1      39.389 -14.306   2.987  1.00  0.00    -0.217 NA
HETATM    3  C   UNL     1      39.236 -13.913   1.700  1.00  0.00     0.083 A 
HETATM    4  C   UNL     1      39.920 -14.520   0.633  1.00  0.00     0.023 A 
HETATM    5  C   UNL     1      40.728 -15.596   1.007  1.00  0.00     0.072 A 
HETATM    6  N   UNL     1      40.865 -16.000   2.273  1.00  0.00    -0.218 NA
HETATM    7  C   UNL     1      39.873 -14.127  -0.734  1.00  0.00     0.023 A 
HETATM    8  C   UNL     1      40.603 -14.809  -1.713  1.00  0.00    -0.061 A 
HETATM    9  C   UNL     1      40.532 -14.406  -3.156  1.00  0.00     0.048 C 
HETATM   10  C   UNL     1      41.373 -15.901  -1.325  1.00  0.00     0.009 A 
HETATM   11  C   UNL     1      41.433 -16.274   0.021  1.00  0.00     0.033 A 
ENDROOT
BRANCH   1  12
HETATM   12  N   UNL     1      40.456 -15.757   4.520  1.00  0.00    -0.252 NA
HETATM   13  H   UNL     1      39.533 -15.844   4.940  1.00  0.00     0.131 HD
BRANCH  12  14
HETATM   14  C   UNL     1      41.378 -14.923   5.280  1.00  0.00     0.199 C 
BRANCH  14  15
HETATM   15  C   UNL     1      42.771 -15.550   5.393  1.00  0.00     0.245 C 
HETATM   16  N   UNL     1      42.746 -16.940   5.397  1.00  0.00    -0.286 N 
HETATM   17  H   UNL     1      41.954 -17.466   5.038  1.00  0.00     0.184 HD
HETATM   18  O   UNL     1      43.816 -14.909   5.510  1.00  0.00    -0.271 OA
BRANCH  16  19
HETATM   19  N   UNL     1      43.986 -17.607   5.335  1.00  0.00    -0.203 NA
HETATM   20  H   UNL     1      44.168 -18.073   6.238  1.00  0.00     0.153 HD
BRANCH  19  21
HETATM   21  C   UNL     1      44.054 -18.603   4.322  1.00  0.00     0.027 A 
HETATM   22  C   UNL     1      44.696 -19.808   4.638  1.00  0.00     0.026 A 
HETATM   23  C   UNL     1      44.744 -20.864   3.722  1.00  0.00     0.008 A 
HETATM   24  C   UNL     1      44.139 -20.740   2.469  1.00  0.00    -0.062 A 
HETATM   25  C   UNL     1      44.145 -21.883   1.498  1.00  0.00     0.048 C 
HETATM   26  C   UNL     1      43.464 -19.554   2.159  1.00  0.00     0.008 A 
HETATM   27  C   UNL     1      43.421 -18.498   3.077  1.00  0.00     0.026 A 
ENDBRANCH  19  21
ENDBRANCH  16  19
ENDBRANCH  14  15
ENDBRANCH  12  14
ENDBRANCH   1  12
BRANCH   3  28
HETATM   28  C   UNL     1      38.298 -12.787   1.539  1.00  0.00    -0.006 A 
HETATM   29  C   UNL     1      37.181 -12.906   0.694  1.00  0.00     0.014 A 
HETATM   30  C   UNL     1      36.281 -11.849   0.532  1.00  0.00     0.001 A 
HETATM   31  C   UNL     1      36.488 -10.649   1.208  1.00  0.00     0.000 A 
HETATM   32  C   UNL     1      37.598 -10.502   2.036  1.00  0.00     0.001 A 
HETATM   33  C   UNL     1      38.499 -11.558   2.194  1.00  0.00     0.014 A 
ENDBRANCH   3  28
TORSDOF 6
ENDMDL
