MODEL 1
REMARK VINA RESULT:      -8.7      0.000      0.000
REMARK  5 active torsions:
REMARK  status: ('A' for Active; 'I' for Inactive)
REMARK    1  A    between atoms: C_5  and  O_6 
REMARK    2  A    between atoms: O_6  and  C_7 
REMARK    3  A    between atoms: C_7  and  C_8 
REMARK       I    between atoms: C_8  and  N_9 
REMARK    4  A    between atoms: N_9  and  N_10 
REMARK    5  A    between atoms: C_11  and  C_12 
ROOT
HETATM    1  C   UNL     1      44.887 -13.647   7.372  1.00  0.00     0.261 C 
HETATM    2  N   UNL     1      44.100 -14.786   7.466  1.00  0.00    -0.246 N 
HETATM    3  O   UNL     1      45.842 -13.504   6.610  1.00  0.00    -0.269 OA
HETATM    4  H   UNL     1      43.304 -14.798   8.097  1.00  0.00     0.192 HD
ENDROOT
BRANCH   2   5
HETATM    5  N   UNL     1      44.374 -15.857   6.667  1.00  0.00    -0.184 NA
HETATM    6  C   UNL     1      43.624 -16.899   6.813  1.00  0.00     0.152 C 
BRANCH   6   7
HETATM    7  C   UNL     1      43.882 -18.068   5.996  1.00  0.00     0.011 A 
HETATM    8  C   UNL     1      43.836 -18.174   4.568  1.00  0.00     0.004 A 
HETATM    9  C   UNL     1      44.141 -19.497   4.237  1.00  0.00     0.043 A 
HETATM   10  C   UNL     1      43.549 -17.274   3.519  1.00  0.00     0.014 A 
HETATM   11  C   UNL     1      44.174 -19.964   2.918  1.00  0.00     0.030 A 
HETATM   12  N   UNL     1      44.371 -20.168   5.415  1.00  0.00    -0.364 N 
HETATM   13  C   UNL     1      43.882 -19.052   1.901  1.00  0.00     0.002 A 
HETATM   14  C   UNL     1      43.574 -17.727   2.193  1.00  0.00     0.001 A 
HETATM   15  H   UNL     1      44.611 -21.147   5.483  1.00  0.00     0.165 HD
HETATM   16  C   UNL     1      44.212 -19.323   6.477  1.00  0.00     0.102 A 
ENDBRANCH   6   7
ENDBRANCH   2   5
BRANCH   1  17
HETATM   17  C   UNL     1      44.534 -12.585   8.407  1.00  0.00     0.280 C 
BRANCH  17  18
HETATM   18  O   UNL     1      44.654 -13.086   9.740  1.00  0.00    -0.342 OA
BRANCH  18  19
HETATM   19  C   UNL     1      44.237 -12.153  10.653  1.00  0.00     0.069 A 
HETATM   20  C   UNL     1      44.382 -10.810  10.313  1.00  0.00     0.037 A 
HETATM   21  C   UNL     1      43.986  -9.816  11.212  1.00  0.00     0.009 A 
HETATM   22  C   UNL     1      43.429 -10.161  12.451  1.00  0.00    -0.062 A 
HETATM   23  C   UNL     1      42.990  -9.104  13.421  1.00  0.00     0.048 C 
HETATM   24  C   UNL     1      43.247 -11.515  12.762  1.00  0.00     0.009 A 
HETATM   25  C   UNL     1      43.646 -12.508  11.864  1.00  0.00     0.037 A 
ENDBRANCH  18  19
ENDBRANCH  17  18
ENDBRANCH   1  17
TORSDOF 5
ENDMDL
MODEL 2
REMARK VINA RESULT:      -8.5      1.206      2.051
REMARK  5 active torsions:
REMARK  status: ('A' for Active; 'I' for Inactive)
REMARK    1  A    between atoms: C_5  and  O_6 
REMARK    2  A    between atoms: O_6  and  C_7 
REMARK    3  A    between atoms: C_7  and  C_8 
REMARK       I    between atoms: C_8  and  N_9 
REMARK    4  A    between atoms: N_9  and  N_10 
REMARK    5  A    between atoms: C_11  and  C_12 
ROOT
HETATM    1  C   UNL     1      45.283 -13.289   7.370  1.00  0.00     0.261 C 
HETATM    2  N   UNL     1      44.041 -13.902   7.283  1.00  0.00    -0.246 N 
HETATM    3  O   UNL     1      46.149 -13.312   6.497  1.00  0.00    -0.269 OA
HETATM    4  H   UNL     1      43.371 -13.793   8.039  1.00  0.00     0.192 HD
ENDROOT
BRANCH   2   5
HETATM    5  N   UNL     1      43.714 -14.595   6.155  1.00  0.00    -0.184 NA
HETATM    6  C   UNL     1      43.746 -15.885   6.234  1.00  0.00     0.152 C 
BRANCH   6   7
HETATM    7  C   UNL     1      43.419 -16.667   5.059  1.00  0.00     0.011 A 
HETATM    8  C   UNL     1      43.898 -17.971   4.706  1.00  0.00     0.004 A 
HETATM    9  C   UNL     1      43.322 -18.310   3.479  1.00  0.00     0.043 A 
HETATM   10  C   UNL     1      44.780 -18.895   5.306  1.00  0.00     0.014 A 
HETATM   11  C   UNL     1      43.581 -19.520   2.824  1.00  0.00     0.030 A 
HETATM   12  N   UNL     1      42.519 -17.259   3.103  1.00  0.00    -0.364 N 
HETATM   13  C   UNL     1      44.461 -20.413   3.439  1.00  0.00     0.002 A 
HETATM   14  C   UNL     1      45.054 -20.109   4.661  1.00  0.00     0.001 A 
HETATM   15  H   UNL     1      41.976 -17.224   2.251  1.00  0.00     0.165 HD
HETATM   16  C   UNL     1      42.575 -16.265   4.039  1.00  0.00     0.102 A 
ENDBRANCH   6   7
ENDBRANCH   2   5
BRANCH   1  17
HETATM   17  C   UNL     1      45.547 -12.656   8.731  1.00  0.00     0.280 C 
BRANCH  17  18
HETATM   18  O   UNL     1      44.659 -13.162   9.730  1.00  0.00    -0.342 OA
BRANCH  18  19
HETATM   19  C   UNL     1      44.275 -12.168  10.593  1.00  0.00     0.069 A 
HETATM   20  C   UNL     1      43.648 -12.550  11.777  1.00  0.00     0.037 A 
HETATM   21  C   UNL     1      43.224 -11.576  12.686  1.00  0.00     0.009 A 
HETATM   22  C   UNL     1      43.438 -10.217  12.421  1.00  0.00    -0.062 A 
HETATM   23  C   UNL     1      42.997  -9.163  13.394  1.00  0.00     0.048 C 
HETATM   24  C   UNL     1      44.110  -9.849  11.249  1.00  0.00     0.009 A 
HETATM   25  C   UNL     1      44.531 -10.822  10.338  1.00  0.00     0.037 A 
ENDBRANCH  18  19
ENDBRANCH  17  18
ENDBRANCH   1  17
TORSDOF 5
ENDMDL
MODEL 3
REMARK VINA RESULT:      -8.1      1.360      1.945
REMARK  5 active torsions:
REMARK  status: ('A' for Active; 'I' for Inactive)
REMARK    1  A    between atoms: C_5  and  O_6 
REMARK    2  A    between atoms: O_6  and  C_7 
REMARK    3  A    between atoms: C_7  and  C_8 
REMARK       I    between atoms: C_8  and  N_9 
REMARK    4  A    between atoms: N_9  and  N_10 
REMARK    5  A    between atoms: C_11  and  C_12 
ROOT
HETATM    1  C   UNL     1      44.678 -12.522   8.749  1.00  0.00     0.261 C 
HETATM    2  N   UNL     1      43.981 -13.197   7.756  1.00  0.00    -0.246 N 
HETATM    3  O   UNL     1      45.693 -12.933   9.308  1.00  0.00    -0.269 OA
HETATM    4  H   UNL     1      43.174 -12.759   7.321  1.00  0.00     0.192 HD
ENDROOT
BRANCH   2   5
HETATM    5  N   UNL     1      44.424 -14.417   7.338  1.00  0.00    -0.184 NA
HETATM    6  C   UNL     1      43.582 -15.151   6.688  1.00  0.00     0.152 C 
BRANCH   6   7
HETATM    7  C   UNL     1      44.000 -16.462   6.234  1.00  0.00     0.011 A 
HETATM    8  C   UNL     1      43.671 -17.115   5.001  1.00  0.00     0.004 A 
HETATM    9  C   UNL     1      44.288 -18.368   5.015  1.00  0.00     0.043 A 
HETATM   10  C   UNL     1      42.892 -16.768   3.877  1.00  0.00     0.014 A 
HETATM   11  C   UNL     1      44.168 -19.288   3.966  1.00  0.00     0.030 A 
HETATM   12  N   UNL     1      44.972 -18.472   6.203  1.00  0.00    -0.364 N 
HETATM   13  C   UNL     1      43.388 -18.919   2.867  1.00  0.00     0.002 A 
HETATM   14  C   UNL     1      42.758 -17.679   2.820  1.00  0.00     0.001 A 
HETATM   15  H   UNL     1      45.513 -19.277   6.489  1.00  0.00     0.165 HD
HETATM   16  C   UNL     1      44.801 -17.337   6.945  1.00  0.00     0.102 A 
ENDBRANCH   6   7
ENDBRANCH   2   5
BRANCH   1  17
HETATM   17  C   UNL     1      43.998 -11.232   9.190  1.00  0.00     0.280 C 
BRANCH  17  18
HETATM   18  O   UNL     1      42.723 -11.484   9.786  1.00  0.00    -0.342 OA
BRANCH  18  19
HETATM   19  C   UNL     1      42.682 -11.012  11.072  1.00  0.00     0.069 A 
HETATM   20  C   UNL     1      41.586 -11.369  11.855  1.00  0.00     0.037 A 
HETATM   21  C   UNL     1      41.487 -10.904  13.169  1.00  0.00     0.009 A 
HETATM   22  C   UNL     1      42.491 -10.091  13.712  1.00  0.00    -0.062 A 
HETATM   23  C   UNL     1      42.401  -9.595  15.125  1.00  0.00     0.048 C 
HETATM   24  C   UNL     1      43.609  -9.777  12.930  1.00  0.00     0.009 A 
HETATM   25  C   UNL     1      43.707 -10.239  11.615  1.00  0.00     0.037 A 
ENDBRANCH  18  19
ENDBRANCH  17  18
ENDBRANCH   1  17
TORSDOF 5
ENDMDL
MODEL 4
REMARK VINA RESULT:      -8.1      6.766      9.876
REMARK  5 active torsions:
REMARK  status: ('A' for Active; 'I' for Inactive)
REMARK    1  A    between atoms: C_5  and  O_6 
REMARK    2  A    between atoms: O_6  and  C_7 
REMARK    3  A    between atoms: C_7  and  C_8 
REMARK       I    between atoms: C_8  and  N_9 
REMARK    4  A    between atoms: N_9  and  N_10 
REMARK    5  A    between atoms: C_11  and  C_12 
ROOT
HETATM    1  C   UNL     1      41.957 -15.725   0.760  1.00  0.00     0.261 C 
HETATM    2  N   UNL     1      42.928 -15.623   1.746  1.00  0.00    -0.246 N 
HETATM    3  O   UNL     1      41.580 -16.774   0.240  1.00  0.00    -0.269 OA
HETATM    4  H   UNL     1      43.145 -14.715   2.148  1.00  0.00     0.192 HD
ENDROOT
BRANCH   2   5
HETATM    5  N   UNL     1      43.537 -16.753   2.205  1.00  0.00    -0.184 NA
HETATM    6  C   UNL     1      43.185 -17.170   3.377  1.00  0.00     0.152 C 
BRANCH   6   7
HETATM    7  C   UNL     1      43.814 -18.360   3.916  1.00  0.00     0.011 A 
HETATM    8  C   UNL     1      43.935 -19.649   3.301  1.00  0.00     0.004 A 
HETATM    9  C   UNL     1      44.601 -20.481   4.205  1.00  0.00     0.043 A 
HETATM   10  C   UNL     1      43.527 -20.197   2.066  1.00  0.00     0.014 A 
HETATM   11  C   UNL     1      44.881 -21.826   3.937  1.00  0.00     0.030 A 
HETATM   12  N   UNL     1      44.882 -19.728   5.321  1.00  0.00    -0.364 N 
HETATM   13  C   UNL     1      44.463 -22.342   2.708  1.00  0.00     0.002 A 
HETATM   14  C   UNL     1      43.796 -21.543   1.785  1.00  0.00     0.001 A 
HETATM   15  H   UNL     1      45.359 -20.071   6.142  1.00  0.00     0.165 HD
HETATM   16  C   UNL     1      44.408 -18.456   5.161  1.00  0.00     0.102 A 
ENDBRANCH   6   7
ENDBRANCH   2   5
BRANCH   1  17
HETATM   17  C   UNL     1      41.454 -14.373   0.268  1.00  0.00     0.280 C 
BRANCH  17  18
HETATM   18  O   UNL     1      41.720 -14.185  -1.124  1.00  0.00    -0.342 OA
BRANCH  18  19
HETATM   19  C   UNL     1      40.583 -14.368  -1.868  1.00  0.00     0.069 A 
HETATM   20  C   UNL     1      39.411 -13.771  -1.410  1.00  0.00     0.037 A 
HETATM   21  C   UNL     1      38.220 -13.936  -2.122  1.00  0.00     0.009 A 
HETATM   22  C   UNL     1      38.198 -14.688  -3.304  1.00  0.00    -0.062 A 
HETATM   23  C   UNL     1      36.929 -14.864  -4.084  1.00  0.00     0.048 C 
HETATM   24  C   UNL     1      39.393 -15.246  -3.778  1.00  0.00     0.009 A 
HETATM   25  C   UNL     1      40.583 -15.083  -3.064  1.00  0.00     0.037 A 
ENDBRANCH  18  19
ENDBRANCH  17  18
ENDBRANCH   1  17
TORSDOF 5
ENDMDL
MODEL 5
REMARK VINA RESULT:      -7.9      6.757      9.577
REMARK  5 active torsions:
REMARK  status: ('A' for Active; 'I' for Inactive)
REMARK    1  A    between atoms: C_5  and  O_6 
REMARK    2  A    between atoms: O_6  and  C_7 
REMARK    3  A    between atoms: C_7  and  C_8 
REMARK       I    between atoms: C_8  and  N_9 
REMARK    4  A    between atoms: N_9  and  N_10 
REMARK    5  A    between atoms: C_11  and  C_12 
ROOT
HETATM    1  C   UNL     1      41.284 -15.927   0.919  1.00  0.00     0.261 C 
HETATM    2  N   UNL     1      41.513 -15.936   2.287  1.00  0.00    -0.246 N 
HETATM    3  O   UNL     1      41.488 -16.872   0.158  1.00  0.00    -0.269 OA
HETATM    4  H   UNL     1      41.274 -15.120   2.843  1.00  0.00     0.192 HD
ENDROOT
BRANCH   2   5
HETATM    5  N   UNL     1      42.004 -17.063   2.877  1.00  0.00    -0.184 NA
HETATM    6  C   UNL     1      43.266 -17.073   3.155  1.00  0.00     0.152 C 
BRANCH   6   7
HETATM    7  C   UNL     1      43.839 -18.254   3.770  1.00  0.00     0.011 A 
HETATM    8  C   UNL     1      43.947 -19.572   3.219  1.00  0.00     0.004 A 
HETATM    9  C   UNL     1      44.553 -20.380   4.184  1.00  0.00     0.043 A 
HETATM   10  C   UNL     1      43.572 -20.164   1.994  1.00  0.00     0.014 A 
HETATM   11  C   UNL     1      44.805 -21.743   3.987  1.00  0.00     0.030 A 
HETATM   12  N   UNL     1      44.812 -19.585   5.276  1.00  0.00    -0.364 N 
HETATM   13  C   UNL     1      44.420 -22.303   2.766  1.00  0.00     0.002 A 
HETATM   14  C   UNL     1      43.813 -21.528   1.783  1.00  0.00     0.001 A 
HETATM   15  H   UNL     1      45.247 -19.904   6.131  1.00  0.00     0.165 HD
HETATM   16  C   UNL     1      44.381 -18.309   5.042  1.00  0.00     0.102 A 
ENDBRANCH   6   7
ENDBRANCH   2   5
BRANCH   1  17
HETATM   17  C   UNL     1      40.849 -14.566   0.390  1.00  0.00     0.280 C 
BRANCH  17  18
HETATM   18  O   UNL     1      40.216 -14.674  -0.888  1.00  0.00    -0.342 OA
BRANCH  18  19
HETATM   19  C   UNL     1      40.783 -13.809  -1.789  1.00  0.00     0.069 A 
HETATM   20  C   UNL     1      39.991 -13.374  -2.849  1.00  0.00     0.037 A 
HETATM   21  C   UNL     1      40.523 -12.502  -3.804  1.00  0.00     0.009 A 
HETATM   22  C   UNL     1      41.845 -12.051  -3.694  1.00  0.00    -0.062 A 
HETATM   23  C   UNL     1      42.424 -11.107  -4.707  1.00  0.00     0.048 C 
HETATM   24  C   UNL     1      42.615 -12.460  -2.599  1.00  0.00     0.009 A 
HETATM   25  C   UNL     1      42.086 -13.334  -1.646  1.00  0.00     0.037 A 
ENDBRANCH  18  19
ENDBRANCH  17  18
ENDBRANCH   1  17
TORSDOF 5
ENDMDL
MODEL 6
REMARK VINA RESULT:      -7.8      7.023      9.842
REMARK  5 active torsions:
REMARK  status: ('A' for Active; 'I' for Inactive)
REMARK    1  A    between atoms: C_5  and  O_6 
REMARK    2  A    between atoms: O_6  and  C_7 
REMARK    3  A    between atoms: C_7  and  C_8 
REMARK       I    between atoms: C_8  and  N_9 
REMARK    4  A    between atoms: N_9  and  N_10 
REMARK    5  A    between atoms: C_11  and  C_12 
ROOT
HETATM    1  C   UNL     1      41.117 -15.150  -0.091  1.00  0.00     0.261 C 
HETATM    2  N   UNL     1      42.099 -16.130  -0.085  1.00  0.00    -0.246 N 
HETATM    3  O   UNL     1      40.587 -14.669   0.909  1.00  0.00    -0.269 OA
HETATM    4  H   UNL     1      42.509 -16.438  -0.963  1.00  0.00     0.192 HD
ENDROOT
BRANCH   2   5
HETATM    5  N   UNL     1      42.541 -16.628   1.105  1.00  0.00    -0.184 NA
HETATM    6  C   UNL     1      43.154 -17.765   1.069  1.00  0.00     0.152 C 
BRANCH   6   7
HETATM    7  C   UNL     1      43.632 -18.343   2.309  1.00  0.00     0.011 A 
HETATM    8  C   UNL     1      43.949 -19.714   2.579  1.00  0.00     0.004 A 
HETATM    9  C   UNL     1      44.352 -19.795   3.914  1.00  0.00     0.043 A 
HETATM   10  C   UNL     1      43.916 -20.903   1.820  1.00  0.00     0.014 A 
HETATM   11  C   UNL     1      44.725 -20.998   4.526  1.00  0.00     0.030 A 
HETATM   12  N   UNL     1      44.292 -18.523   4.435  1.00  0.00    -0.364 N 
HETATM   13  C   UNL     1      44.681 -22.159   3.751  1.00  0.00     0.002 A 
HETATM   14  C   UNL     1      44.283 -22.117   2.419  1.00  0.00     0.001 A 
HETATM   15  H   UNL     1      44.527 -18.279   5.387  1.00  0.00     0.165 HD
HETATM   16  C   UNL     1      43.855 -17.646   3.483  1.00  0.00     0.102 A 
ENDBRANCH   6   7
ENDBRANCH   2   5
BRANCH   1  17
HETATM   17  C   UNL     1      40.644 -14.781  -1.492  1.00  0.00     0.280 C 
BRANCH  17  18
HETATM   18  O   UNL     1      41.743 -14.590  -2.387  1.00  0.00    -0.342 OA
BRANCH  18  19
HETATM   19  C   UNL     1      41.920 -13.259  -2.667  1.00  0.00     0.069 A 
HETATM   20  C   UNL     1      41.214 -12.728  -3.743  1.00  0.00     0.037 A 
HETATM   21  C   UNL     1      41.367 -11.381  -4.081  1.00  0.00     0.009 A 
HETATM   22  C   UNL     1      42.218 -10.554  -3.334  1.00  0.00    -0.062 A 
HETATM   23  C   UNL     1      42.383  -9.104  -3.680  1.00  0.00     0.048 C 
HETATM   24  C   UNL     1      42.887 -11.090  -2.226  1.00  0.00     0.009 A 
HETATM   25  C   UNL     1      42.736 -12.438  -1.890  1.00  0.00     0.037 A 
ENDBRANCH  18  19
ENDBRANCH  17  18
ENDBRANCH   1  17
TORSDOF 5
ENDMDL
MODEL 7
REMARK VINA RESULT:      -7.8      5.911      8.495
REMARK  5 active torsions:
REMARK  status: ('A' for Active; 'I' for Inactive)
REMARK    1  A    between atoms: C_5  and  O_6 
REMARK    2  A    between atoms: O_6  and  C_7 
REMARK    3  A    between atoms: C_7  and  C_8 
REMARK       I    between atoms: C_8  and  N_9 
REMARK    4  A    between atoms: N_9  and  N_10 
REMARK    5  A    between atoms: C_11  and  C_12 
ROOT
HETATM    1  C   UNL     1      42.823 -13.908   2.893  1.00  0.00     0.261 C 
HETATM    2  N   UNL     1      42.126 -15.090   3.101  1.00  0.00    -0.246 N 
HETATM    3  O   UNL     1      43.973 -13.686   3.268  1.00  0.00    -0.269 OA
HETATM    4  H   UNL     1      41.191 -15.198   2.717  1.00  0.00     0.192 HD
ENDROOT
BRANCH   2   5
HETATM    5  N   UNL     1      42.728 -16.114   3.770  1.00  0.00    -0.184 NA
HETATM    6  C   UNL     1      43.111 -17.126   3.064  1.00  0.00     0.152 C 
BRANCH   6   7
HETATM    7  C   UNL     1      43.744 -18.247   3.730  1.00  0.00     0.011 A 
HETATM    8  C   UNL     1      43.931 -19.578   3.233  1.00  0.00     0.004 A 
HETATM    9  C   UNL     1      44.574 -20.310   4.234  1.00  0.00     0.043 A 
HETATM   10  C   UNL     1      43.600 -20.239   2.031  1.00  0.00     0.014 A 
HETATM   11  C   UNL     1      44.903 -21.664   4.094  1.00  0.00     0.030 A 
HETATM   12  N   UNL     1      44.778 -19.459   5.294  1.00  0.00    -0.364 N 
HETATM   13  C   UNL     1      44.561 -22.293   2.895  1.00  0.00     0.002 A 
HETATM   14  C   UNL     1      43.919 -21.595   1.877  1.00  0.00     0.001 A 
HETATM   15  H   UNL     1      45.224 -19.718   6.164  1.00  0.00     0.165 HD
HETATM   16  C   UNL     1      44.279 -18.220   5.006  1.00  0.00     0.102 A 
ENDBRANCH   6   7
ENDBRANCH   2   5
BRANCH   1  17
HETATM   17  C   UNL     1      41.980 -12.820   2.238  1.00  0.00     0.280 C 
BRANCH  17  18
HETATM   18  O   UNL     1      42.471 -12.484   0.938  1.00  0.00    -0.342 OA
BRANCH  18  19
HETATM   19  C   UNL     1      41.624 -12.942  -0.038  1.00  0.00     0.069 A 
HETATM   20  C   UNL     1      41.717 -14.285  -0.393  1.00  0.00     0.037 A 
HETATM   21  C   UNL     1      40.885 -14.802  -1.391  1.00  0.00     0.009 A 
HETATM   22  C   UNL     1      39.947 -13.979  -2.029  1.00  0.00    -0.062 A 
HETATM   23  C   UNL     1      39.042 -14.523  -3.095  1.00  0.00     0.048 C 
HETATM   24  C   UNL     1      39.833 -12.641  -1.631  1.00  0.00     0.009 A 
HETATM   25  C   UNL     1      40.666 -12.124  -0.635  1.00  0.00     0.037 A 
ENDBRANCH  18  19
ENDBRANCH  17  18
ENDBRANCH   1  17
TORSDOF 5
ENDMDL
MODEL 8
REMARK VINA RESULT:      -7.7      2.321      2.935
REMARK  5 active torsions:
REMARK  status: ('A' for Active; 'I' for Inactive)
REMARK    1  A    between atoms: C_5  and  O_6 
REMARK    2  A    between atoms: O_6  and  C_7 
REMARK    3  A    between atoms: C_7  and  C_8 
REMARK       I    between atoms: C_8  and  N_9 
REMARK    4  A    between atoms: N_9  and  N_10 
REMARK    5  A    between atoms: C_11  and  C_12 
ROOT
HETATM    1  C   UNL     1      41.721 -11.752   6.457  1.00  0.00     0.261 C 
HETATM    2  N   UNL     1      42.463 -12.923   6.493  1.00  0.00    -0.246 N 
HETATM    3  O   UNL     1      41.077 -11.348   5.490  1.00  0.00    -0.269 OA
HETATM    4  H   UNL     1      42.930 -13.198   7.353  1.00  0.00     0.192 HD
ENDROOT
BRANCH   2   5
HETATM    5  N   UNL     1      42.509 -13.721   5.388  1.00  0.00    -0.184 NA
HETATM    6  C   UNL     1      43.068 -14.878   5.528  1.00  0.00     0.152 C 
BRANCH   6   7
HETATM    7  C   UNL     1      43.154 -15.759   4.380  1.00  0.00     0.011 A 
HETATM    8  C   UNL     1      43.574 -17.128   4.348  1.00  0.00     0.004 A 
HETATM    9  C   UNL     1      43.508 -17.554   3.018  1.00  0.00     0.043 A 
HETATM   10  C   UNL     1      44.021 -18.047   5.321  1.00  0.00     0.014 A 
HETATM   11  C   UNL     1      43.863 -18.847   2.614  1.00  0.00     0.030 A 
HETATM   12  N   UNL     1      43.058 -16.490   2.272  1.00  0.00    -0.364 N 
HETATM   13  C   UNL     1      44.305 -19.734   3.599  1.00  0.00     0.002 A 
HETATM   14  C   UNL     1      44.384 -19.344   4.932  1.00  0.00     0.001 A 
HETATM   15  H   UNL     1      42.915 -16.507   1.272  1.00  0.00     0.165 HD
HETATM   16  C   UNL     1      42.849 -15.406   3.077  1.00  0.00     0.102 A 
ENDBRANCH   6   7
ENDBRANCH   2   5
BRANCH   1  17
HETATM   17  C   UNL     1      41.861 -10.911   7.721  1.00  0.00     0.280 C 
BRANCH  17  18
HETATM   18  O   UNL     1      43.164 -11.035   8.295  1.00  0.00    -0.342 OA
BRANCH  18  19
HETATM   19  C   UNL     1      43.164 -10.624   9.603  1.00  0.00     0.069 A 
HETATM   20  C   UNL     1      44.316 -10.855  10.351  1.00  0.00     0.037 A 
HETATM   21  C   UNL     1      44.365 -10.467  11.693  1.00  0.00     0.009 A 
HETATM   22  C   UNL     1      43.267  -9.834  12.289  1.00  0.00    -0.062 A 
HETATM   23  C   UNL     1      43.311  -9.404  13.726  1.00  0.00     0.048 C 
HETATM   24  C   UNL     1      42.132  -9.567  11.514  1.00  0.00     0.009 A 
HETATM   25  C   UNL     1      42.081  -9.957  10.173  1.00  0.00     0.037 A 
ENDBRANCH  18  19
ENDBRANCH  17  18
ENDBRANCH   1  17
TORSDOF 5
ENDMDL
MODEL 9
REMARK VINA RESULT:      -7.5      6.874     10.196
REMARK  5 active torsions:
REMARK  status: ('A' for Active; 'I' for Inactive)
REMARK    1  A    between atoms: C_5  and  O_6 
REMARK    2  A    between atoms: O_6  and  C_7 
REMARK    3  A    between atoms: C_7  and  C_8 
REMARK       I    between atoms: C_8  and  N_9 
REMARK    4  A    between atoms: N_9  and  N_10 
REMARK    5  A    between atoms: C_11  and  C_12 
ROOT
HETATM    1  C   UNL     1      41.349 -15.628   2.576  1.00  0.00     0.261 C 
HETATM    2  N   UNL     1      40.814 -16.111   1.390  1.00  0.00    -0.246 N 
HETATM    3  O   UNL     1      41.640 -14.453   2.797  1.00  0.00    -0.269 OA
HETATM    4  H   UNL     1      40.565 -17.094   1.314  1.00  0.00     0.192 HD
ENDROOT
BRANCH   2   5
HETATM    5  N   UNL     1      40.577 -15.249   0.361  1.00  0.00    -0.184 NA
HETATM    6  C   UNL     1      41.106 -15.544  -0.780  1.00  0.00     0.152 C 
BRANCH   6   7
HETATM    7  C   UNL     1      40.894 -14.651  -1.903  1.00  0.00     0.011 A 
HETATM    8  C   UNL     1      41.537 -13.398  -2.166  1.00  0.00     0.004 A 
HETATM    9  C   UNL     1      40.997 -12.894  -3.353  1.00  0.00     0.043 A 
HETATM   10  C   UNL     1      42.517 -12.631  -1.501  1.00  0.00     0.014 A 
HETATM   11  C   UNL     1      41.388 -11.669  -3.907  1.00  0.00     0.030 A 
HETATM   12  N   UNL     1      40.070 -13.806  -3.798  1.00  0.00    -0.364 N 
HETATM   13  C   UNL     1      42.358 -10.930  -3.225  1.00  0.00     0.002 A 
HETATM   14  C   UNL     1      42.916 -11.400  -2.041  1.00  0.00     0.001 A 
HETATM   15  H   UNL     1      39.518 -13.703  -4.638  1.00  0.00     0.165 HD
HETATM   16  C   UNL     1      39.995 -14.861  -2.933  1.00  0.00     0.102 A 
ENDBRANCH   6   7
ENDBRANCH   2   5
BRANCH   1  17
HETATM   17  C   UNL     1      41.666 -16.725   3.585  1.00  0.00     0.280 C 
BRANCH  17  18
HETATM   18  O   UNL     1      43.075 -16.929   3.716  1.00  0.00    -0.342 OA
BRANCH  18  19
HETATM   19  C   UNL     1      43.418 -18.211   3.370  1.00  0.00     0.069 A 
HETATM   20  C   UNL     1      44.222 -18.923   4.257  1.00  0.00     0.037 A 
HETATM   21  C   UNL     1      44.612 -20.230   3.948  1.00  0.00     0.009 A 
HETATM   22  C   UNL     1      44.188 -20.834   2.757  1.00  0.00    -0.062 A 
HETATM   23  C   UNL     1      44.591 -22.239   2.419  1.00  0.00     0.048 C 
HETATM   24  C   UNL     1      43.342 -20.123   1.896  1.00  0.00     0.009 A 
HETATM   25  C   UNL     1      42.955 -18.816   2.203  1.00  0.00     0.037 A 
ENDBRANCH  18  19
ENDBRANCH  17  18
ENDBRANCH   1  17
TORSDOF 5
ENDMDL
MODEL 10
REMARK VINA RESULT:      -7.4      6.171      9.539
REMARK  5 active torsions:
REMARK  status: ('A' for Active; 'I' for Inactive)
REMARK    1  A    between atoms: C_5  and  O_6 
REMARK    2  A    between atoms: O_6  and  C_7 
REMARK    3  A    between atoms: C_7  and  C_8 
REMARK       I    between atoms: C_8  and  N_9 
REMARK    4  A    between atoms: N_9  and  N_10 
REMARK    5  A    between atoms: C_11  and  C_12 
ROOT
HETATM    1  C   UNL     1      41.420 -15.800   0.534  1.00  0.00     0.261 C 
HETATM    2  N   UNL     1      42.545 -16.590   0.344  1.00  0.00    -0.246 N 
HETATM    3  O   UNL     1      40.568 -15.974   1.404  1.00  0.00    -0.269 OA
HETATM    4  H   UNL     1      43.218 -16.344  -0.377  1.00  0.00     0.192 HD
ENDROOT
BRANCH   2   5
HETATM    5  N   UNL     1      42.762 -17.656   1.167  1.00  0.00    -0.184 NA
HETATM    6  C   UNL     1      43.669 -17.515   2.076  1.00  0.00     0.152 C 
BRANCH   6   7
HETATM    7  C   UNL     1      43.947 -18.624   2.967  1.00  0.00     0.011 A 
HETATM    8  C   UNL     1      43.787 -18.672   4.390  1.00  0.00     0.004 A 
HETATM    9  C   UNL     1      44.196 -19.940   4.813  1.00  0.00     0.043 A 
HETATM   10  C   UNL     1      43.347 -17.754   5.367  1.00  0.00     0.014 A 
HETATM   11  C   UNL     1      44.187 -20.334   6.157  1.00  0.00     0.030 A 
HETATM   12  N   UNL     1      44.582 -20.637   3.693  1.00  0.00    -0.364 N 
HETATM   13  C   UNL     1      43.750 -19.403   7.102  1.00  0.00     0.002 A 
HETATM   14  C   UNL     1      43.336 -18.132   6.717  1.00  0.00     0.001 A 
HETATM   15  H   UNL     1      44.929 -21.587   3.696  1.00  0.00     0.165 HD
HETATM   16  C   UNL     1      44.443 -19.856   2.581  1.00  0.00     0.102 A 
ENDBRANCH   6   7
ENDBRANCH   2   5
BRANCH   1  17
HETATM   17  C   UNL     1      41.254 -14.723  -0.532  1.00  0.00     0.280 C 
BRANCH  17  18
HETATM   18  O   UNL     1      41.998 -13.545  -0.212  1.00  0.00    -0.342 OA
BRANCH  18  19
HETATM   19  C   UNL     1      42.135 -12.739  -1.312  1.00  0.00     0.069 A 
HETATM   20  C   UNL     1      41.650 -13.219  -2.527  1.00  0.00     0.037 A 
HETATM   21  C   UNL     1      41.776 -12.444  -3.683  1.00  0.00     0.009 A 
HETATM   22  C   UNL     1      42.375 -11.178  -3.627  1.00  0.00    -0.062 A 
HETATM   23  C   UNL     1      42.506 -10.332  -4.859  1.00  0.00     0.048 C 
HETATM   24  C   UNL     1      42.817 -10.688  -2.392  1.00  0.00     0.009 A 
HETATM   25  C   UNL     1      42.694 -11.464  -1.236  1.00  0.00     0.037 A 
ENDBRANCH  18  19
ENDBRANCH  17  18
ENDBRANCH   1  17
TORSDOF 5
ENDMDL
