MODEL 1
REMARK VINA RESULT:      -8.4      0.000      0.000
REMARK  4 active torsions:
REMARK  status: ('A' for Active; 'I' for Inactive)
REMARK    1  A    between atoms: O_2  and  C_3 
REMARK    2  A    between atoms: C_5  and  N_6 
REMARK    3  A    between atoms: C_10  and  C_11 
REMARK    4  A    between atoms: C_22  and  O_23 
ROOT
HETATM    1  N   UNL     1      41.442 -16.017   0.626  1.00  0.00    -0.315 N 
HETATM    2  C   UNL     1      40.601 -15.991   1.748  1.00  0.00     0.225 C 
HETATM    3  O   UNL     1      39.605 -15.314   1.948  1.00  0.00    -0.273 OA
HETATM    4  C   UNL     1      41.109 -17.026   2.727  1.00  0.00     0.117 C 
HETATM    5  C   UNL     1      42.565 -17.148   2.309  1.00  0.00     0.082 C 
HETATM    6  C   UNL     1      42.473 -17.019   0.795  1.00  0.00     0.145 C 
ENDROOT
BRANCH   1   7
HETATM    7  C   UNL     1      41.367 -15.165  -0.513  1.00  0.00     0.073 A 
HETATM    8  C   UNL     1      40.937 -15.690  -1.746  1.00  0.00     0.069 A 
HETATM    9  C   UNL     1      40.761 -14.872  -2.866  1.00  0.00     0.070 A 
HETATM   10  C   UNL     1      41.063 -13.515  -2.779  1.00  0.00     0.039 A 
HETATM   11  C   UNL     1      41.513 -12.972  -1.579  1.00  0.00     0.042 A 
HETATM   12  C   UNL     1      41.679 -13.789  -0.453  1.00  0.00     0.095 A 
BRANCH   9  13
HETATM   13  O   UNL     1      40.296 -15.278  -4.087  1.00  0.00    -0.356 OA
HETATM   14  C   UNL     1      39.095 -16.043  -4.080  1.00  0.00     0.210 C 
ENDBRANCH   9  13
BRANCH  12  15
HETATM   15  O   UNL     1      42.126 -13.241   0.723  1.00  0.00    -0.354 OA
HETATM   16  C   UNL     1      41.394 -12.083   1.121  1.00  0.00     0.210 C 
ENDBRANCH  12  15
ENDBRANCH   1   7
BRANCH   5  17
HETATM   17  C   UNL     1      43.230 -18.390   2.774  1.00  0.00     0.111 A 
HETATM   18  N   UNL     1      43.782 -18.609   3.949  1.00  0.00    -0.233 NA
HETATM   19  C   UNL     1      44.168 -19.928   3.941  1.00  0.00     0.085 A 
HETATM   20  C   UNL     1      43.868 -20.523   2.721  1.00  0.00     0.062 A 
HETATM   21  C   UNL     1      44.769 -20.696   4.947  1.00  0.00     0.034 A 
HETATM   22  N   UNL     1      43.294 -19.517   1.988  1.00  0.00    -0.342 N 
HETATM   23  C   UNL     1      44.134 -21.863   2.433  1.00  0.00     0.032 A 
HETATM   24  H   UNL     1      42.940 -19.605   1.047  1.00  0.00     0.167 HD
HETATM   25  C   UNL     1      44.728 -22.616   3.452  1.00  0.00     0.002 A 
HETATM   26  C   UNL     1      45.042 -22.046   4.689  1.00  0.00     0.002 A 
ENDBRANCH   5  17
TORSDOF 4
ENDMDL
MODEL 2
REMARK VINA RESULT:      -8.2      1.522      2.040
REMARK  4 active torsions:
REMARK  status: ('A' for Active; 'I' for Inactive)
REMARK    1  A    between atoms: O_2  and  C_3 
REMARK    2  A    between atoms: C_5  and  N_6 
REMARK    3  A    between atoms: C_10  and  C_11 
REMARK    4  A    between atoms: C_22  and  O_23 
ROOT
HETATM    1  N   UNL     1      41.768 -15.478   1.471  1.00  0.00    -0.315 N 
HETATM    2  C   UNL     1      42.753 -14.784   2.190  1.00  0.00     0.225 C 
HETATM    3  O   UNL     1      42.886 -13.580   2.348  1.00  0.00    -0.273 OA
HETATM    4  C   UNL     1      43.665 -15.809   2.826  1.00  0.00     0.117 C 
HETATM    5  C   UNL     1      43.450 -17.009   1.919  1.00  0.00     0.082 C 
HETATM    6  C   UNL     1      41.965 -16.906   1.603  1.00  0.00     0.145 C 
ENDROOT
BRANCH   1   7
HETATM    7  C   UNL     1      40.740 -14.907   0.668  1.00  0.00     0.073 A 
HETATM    8  C   UNL     1      40.920 -14.809  -0.724  1.00  0.00     0.069 A 
HETATM    9  C   UNL     1      39.903 -14.341  -1.561  1.00  0.00     0.070 A 
HETATM   10  C   UNL     1      38.699 -13.915  -1.006  1.00  0.00     0.039 A 
HETATM   11  C   UNL     1      38.501 -13.978   0.371  1.00  0.00     0.042 A 
HETATM   12  C   UNL     1      39.515 -14.457   1.210  1.00  0.00     0.095 A 
BRANCH   9  13
HETATM   13  O   UNL     1      39.963 -14.263  -2.926  1.00  0.00    -0.356 OA
HETATM   14  C   UNL     1      41.208 -13.850  -3.479  1.00  0.00     0.210 C 
ENDBRANCH   9  13
BRANCH  12  15
HETATM   15  O   UNL     1      39.308 -14.512   2.565  1.00  0.00    -0.354 OA
HETATM   16  C   UNL     1      39.487 -13.253   3.213  1.00  0.00     0.210 C 
ENDBRANCH  12  15
ENDBRANCH   1   7
BRANCH   5  17
HETATM   17  C   UNL     1      43.856 -18.305   2.518  1.00  0.00     0.111 A 
HETATM   18  N   UNL     1      44.218 -18.531   3.762  1.00  0.00    -0.233 NA
HETATM   19  C   UNL     1      44.396 -19.891   3.859  1.00  0.00     0.085 A 
HETATM   20  C   UNL     1      44.162 -20.507   2.635  1.00  0.00     0.062 A 
HETATM   21  C   UNL     1      44.743 -20.677   4.965  1.00  0.00     0.034 A 
HETATM   22  N   UNL     1      43.844 -19.474   1.793  1.00  0.00    -0.342 N 
HETATM   23  C   UNL     1      44.255 -21.886   2.439  1.00  0.00     0.032 A 
HETATM   24  H   UNL     1      43.600 -19.566   0.817  1.00  0.00     0.167 HD
HETATM   25  C   UNL     1      44.596 -22.657   3.557  1.00  0.00     0.002 A 
HETATM   26  C   UNL     1      44.837 -22.066   4.800  1.00  0.00     0.002 A 
ENDBRANCH   5  17
TORSDOF 4
ENDMDL
MODEL 3
REMARK VINA RESULT:      -8.0      1.227      2.791
REMARK  4 active torsions:
REMARK  status: ('A' for Active; 'I' for Inactive)
REMARK    1  A    between atoms: O_2  and  C_3 
REMARK    2  A    between atoms: C_5  and  N_6 
REMARK    3  A    between atoms: C_10  and  C_11 
REMARK    4  A    between atoms: C_22  and  O_23 
ROOT
HETATM    1  N   UNL     1      41.470 -15.356   0.777  1.00  0.00    -0.315 N 
HETATM    2  C   UNL     1      40.371 -15.700   1.577  1.00  0.00     0.225 C 
HETATM    3  O   UNL     1      39.266 -15.182   1.632  1.00  0.00    -0.273 OA
HETATM    4  C   UNL     1      40.756 -16.917   2.388  1.00  0.00     0.117 C 
HETATM    5  C   UNL     1      42.272 -16.807   2.398  1.00  0.00     0.082 C 
HETATM    6  C   UNL     1      42.561 -16.283   0.998  1.00  0.00     0.145 C 
ENDROOT
BRANCH   1   7
HETATM    7  C   UNL     1      41.568 -14.237  -0.099  1.00  0.00     0.073 A 
HETATM    8  C   UNL     1      42.107 -13.028   0.379  1.00  0.00     0.069 A 
HETATM    9  C   UNL     1      42.308 -11.933  -0.468  1.00  0.00     0.070 A 
HETATM   10  C   UNL     1      41.922 -12.019  -1.803  1.00  0.00     0.039 A 
HETATM   11  C   UNL     1      41.365 -13.195  -2.298  1.00  0.00     0.042 A 
HETATM   12  C   UNL     1      41.174 -14.296  -1.454  1.00  0.00     0.095 A 
BRANCH   9  13
HETATM   13  O   UNL     1      42.874 -10.740  -0.111  1.00  0.00    -0.356 OA
HETATM   14  C   UNL     1      43.623 -10.072  -1.121  1.00  0.00     0.210 C 
ENDBRANCH   9  13
BRANCH  12  15
HETATM   15  O   UNL     1      40.621 -15.448  -1.953  1.00  0.00    -0.354 OA
HETATM   16  C   UNL     1      40.256 -15.348  -3.329  1.00  0.00     0.210 C 
ENDBRANCH  12  15
ENDBRANCH   1   7
BRANCH   5  17
HETATM   17  C   UNL     1      42.973 -18.072   2.730  1.00  0.00     0.111 A 
HETATM   18  N   UNL     1      43.571 -18.381   3.860  1.00  0.00    -0.233 NA
HETATM   19  C   UNL     1      43.976 -19.687   3.725  1.00  0.00     0.085 A 
HETATM   20  C   UNL     1      43.640 -20.180   2.469  1.00  0.00     0.062 A 
HETATM   21  C   UNL     1      44.625 -20.528   4.638  1.00  0.00     0.034 A 
HETATM   22  N   UNL     1      43.024 -19.126   1.847  1.00  0.00    -0.342 N 
HETATM   23  C   UNL     1      43.916 -21.485   2.057  1.00  0.00     0.032 A 
HETATM   24  H   UNL     1      42.637 -19.139   0.915  1.00  0.00     0.167 HD
HETATM   25  C   UNL     1      44.558 -22.313   2.986  1.00  0.00     0.002 A 
HETATM   26  C   UNL     1      44.909 -21.845   4.255  1.00  0.00     0.002 A 
ENDBRANCH   5  17
TORSDOF 4
ENDMDL
MODEL 4
REMARK VINA RESULT:      -7.8      2.601      7.825
REMARK  4 active torsions:
REMARK  status: ('A' for Active; 'I' for Inactive)
REMARK    1  A    between atoms: O_2  and  C_3 
REMARK    2  A    between atoms: C_5  and  N_6 
REMARK    3  A    between atoms: C_10  and  C_11 
REMARK    4  A    between atoms: C_22  and  O_23 
ROOT
HETATM    1  N   UNL     1      42.539 -17.236   2.866  1.00  0.00    -0.315 N 
HETATM    2  C   UNL     1      41.262 -16.840   3.289  1.00  0.00     0.225 C 
HETATM    3  O   UNL     1      40.634 -17.194   4.275  1.00  0.00    -0.273 OA
HETATM    4  C   UNL     1      40.753 -15.806   2.310  1.00  0.00     0.117 C 
HETATM    5  C   UNL     1      41.567 -16.136   1.071  1.00  0.00     0.082 C 
HETATM    6  C   UNL     1      42.915 -16.514   1.668  1.00  0.00     0.145 C 
ENDROOT
BRANCH   1   7
HETATM    7  C   UNL     1      43.361 -18.236   3.459  1.00  0.00     0.073 A 
HETATM    8  C   UNL     1      43.580 -19.448   2.778  1.00  0.00     0.069 A 
HETATM    9  C   UNL     1      44.452 -20.420   3.279  1.00  0.00     0.070 A 
HETATM   10  C   UNL     1      45.082 -20.210   4.503  1.00  0.00     0.039 A 
HETATM   11  C   UNL     1      44.866 -19.031   5.210  1.00  0.00     0.042 A 
HETATM   12  C   UNL     1      44.002 -18.052   4.704  1.00  0.00     0.095 A 
BRANCH   9  13
HETATM   13  O   UNL     1      44.772 -21.599   2.664  1.00  0.00    -0.356 OA
HETATM   14  C   UNL     1      43.996 -21.945   1.522  1.00  0.00     0.210 C 
ENDBRANCH   9  13
BRANCH  12  15
HETATM   15  O   UNL     1      43.795 -16.895   5.413  1.00  0.00    -0.354 OA
HETATM   16  C   UNL     1      43.199 -17.116   6.690  1.00  0.00     0.210 C 
ENDBRANCH  12  15
ENDBRANCH   1   7
BRANCH   5  17
HETATM   17  C   UNL     1      41.630 -15.039   0.073  1.00  0.00     0.111 A 
HETATM   18  N   UNL     1      41.952 -13.782   0.289  1.00  0.00    -0.233 NA
HETATM   19  C   UNL     1      41.970 -13.183  -0.949  1.00  0.00     0.085 A 
HETATM   20  C   UNL     1      41.624 -14.092  -1.942  1.00  0.00     0.062 A 
HETATM   21  C   UNL     1      42.287 -11.866  -1.307  1.00  0.00     0.034 A 
HETATM   22  N   UNL     1      41.390 -15.259  -1.263  1.00  0.00    -0.342 N 
HETATM   23  C   UNL     1      41.574 -13.766  -3.298  1.00  0.00     0.032 A 
HETATM   24  H   UNL     1      41.127 -16.140  -1.682  1.00  0.00     0.167 HD
HETATM   25  C   UNL     1      41.901 -12.448  -3.638  1.00  0.00     0.002 A 
HETATM   26  C   UNL     1      42.252 -11.512  -2.662  1.00  0.00     0.002 A 
ENDBRANCH   5  17
TORSDOF 4
ENDMDL
MODEL 5
REMARK VINA RESULT:      -7.7      3.073      7.881
REMARK  4 active torsions:
REMARK  status: ('A' for Active; 'I' for Inactive)
REMARK    1  A    between atoms: O_2  and  C_3 
REMARK    2  A    between atoms: C_5  and  N_6 
REMARK    3  A    between atoms: C_10  and  C_11 
REMARK    4  A    between atoms: C_22  and  O_23 
ROOT
HETATM    1  N   UNL     1      42.270 -16.232   4.237  1.00  0.00    -0.315 N 
HETATM    2  C   UNL     1      41.011 -15.686   4.526  1.00  0.00     0.225 C 
HETATM    3  O   UNL     1      40.437 -15.602   5.601  1.00  0.00    -0.273 OA
HETATM    4  C   UNL     1      40.442 -15.134   3.238  1.00  0.00     0.117 C 
HETATM    5  C   UNL     1      41.197 -15.947   2.201  1.00  0.00     0.082 C 
HETATM    6  C   UNL     1      42.578 -16.063   2.832  1.00  0.00     0.145 C 
ENDROOT
BRANCH   1   7
HETATM    7  C   UNL     1      43.132 -16.912   5.144  1.00  0.00     0.073 A 
HETATM    8  C   UNL     1      43.275 -18.309   5.048  1.00  0.00     0.069 A 
HETATM    9  C   UNL     1      44.178 -19.007   5.856  1.00  0.00     0.070 A 
HETATM   10  C   UNL     1      44.920 -18.317   6.811  1.00  0.00     0.039 A 
HETATM   11  C   UNL     1      44.781 -16.938   6.944  1.00  0.00     0.042 A 
HETATM   12  C   UNL     1      43.885 -16.236   6.128  1.00  0.00     0.095 A 
BRANCH   9  13
HETATM   13  O   UNL     1      44.429 -20.351   5.799  1.00  0.00    -0.356 OA
HETATM   14  C   UNL     1      44.886 -20.854   4.548  1.00  0.00     0.210 C 
ENDBRANCH   9  13
BRANCH  12  15
HETATM   15  O   UNL     1      43.756 -14.877   6.271  1.00  0.00    -0.354 OA
HETATM   16  C   UNL     1      44.846 -14.278   6.970  1.00  0.00     0.210 C 
ENDBRANCH  12  15
ENDBRANCH   1   7
BRANCH   5  17
HETATM   17  C   UNL     1      41.198 -15.351   0.842  1.00  0.00     0.111 A 
HETATM   18  N   UNL     1      41.562 -14.132   0.505  1.00  0.00    -0.233 NA
HETATM   19  C   UNL     1      41.488 -14.086  -0.867  1.00  0.00     0.085 A 
HETATM   20  C   UNL     1      41.042 -15.299  -1.378  1.00  0.00     0.062 A 
HETATM   21  C   UNL     1      41.800 -13.044  -1.750  1.00  0.00     0.034 A 
HETATM   22  N   UNL     1      40.843 -16.078  -0.270  1.00  0.00    -0.342 N 
HETATM   23  C   UNL     1      40.885 -15.546  -2.743  1.00  0.00     0.032 A 
HETATM   24  H   UNL     1      40.529 -17.038  -0.276  1.00  0.00     0.167 HD
HETATM   25  C   UNL     1      41.208 -14.496  -3.611  1.00  0.00     0.002 A 
HETATM   26  C   UNL     1      41.658 -13.265  -3.127  1.00  0.00     0.002 A 
ENDBRANCH   5  17
TORSDOF 4
ENDMDL
MODEL 6
REMARK VINA RESULT:      -7.7      2.543      8.286
REMARK  4 active torsions:
REMARK  status: ('A' for Active; 'I' for Inactive)
REMARK    1  A    between atoms: O_2  and  C_3 
REMARK    2  A    between atoms: C_5  and  N_6 
REMARK    3  A    between atoms: C_10  and  C_11 
REMARK    4  A    between atoms: C_22  and  O_23 
ROOT
HETATM    1  N   UNL     1      42.489 -17.401   3.035  1.00  0.00    -0.315 N 
HETATM    2  C   UNL     1      41.169 -17.121   3.418  1.00  0.00     0.225 C 
HETATM    3  O   UNL     1      40.572 -17.460   4.428  1.00  0.00    -0.273 OA
HETATM    4  C   UNL     1      40.558 -16.239   2.352  1.00  0.00     0.117 C 
HETATM    5  C   UNL     1      41.422 -16.577   1.148  1.00  0.00     0.082 C 
HETATM    6  C   UNL     1      42.796 -16.744   1.781  1.00  0.00     0.145 C 
ENDROOT
BRANCH   1   7
HETATM    7  C   UNL     1      43.411 -18.245   3.715  1.00  0.00     0.073 A 
HETATM    8  C   UNL     1      43.899 -17.864   4.979  1.00  0.00     0.069 A 
HETATM    9  C   UNL     1      44.734 -18.704   5.723  1.00  0.00     0.070 A 
HETATM   10  C   UNL     1      45.133 -19.925   5.187  1.00  0.00     0.039 A 
HETATM   11  C   UNL     1      44.685 -20.319   3.929  1.00  0.00     0.042 A 
HETATM   12  C   UNL     1      43.840 -19.483   3.187  1.00  0.00     0.095 A 
BRANCH   9  13
HETATM   13  O   UNL     1      45.212 -18.447   6.979  1.00  0.00    -0.356 OA
HETATM   14  C   UNL     1      44.263 -18.505   8.038  1.00  0.00     0.210 C 
ENDBRANCH   9  13
BRANCH  12  15
HETATM   15  O   UNL     1      43.408 -19.881   1.947  1.00  0.00    -0.354 OA
HETATM   16  C   UNL     1      43.589 -21.276   1.708  1.00  0.00     0.210 C 
ENDBRANCH  12  15
ENDBRANCH   1   7
BRANCH   5  17
HETATM   17  C   UNL     1      41.373 -15.568   0.061  1.00  0.00     0.111 A 
HETATM   18  N   UNL     1      41.838 -14.338   0.092  1.00  0.00    -0.233 NA
HETATM   19  C   UNL     1      41.653 -13.837  -1.175  1.00  0.00     0.085 A 
HETATM   20  C   UNL     1      41.036 -14.776  -1.993  1.00  0.00     0.062 A 
HETATM   21  C   UNL     1      42.001 -12.589  -1.709  1.00  0.00     0.034 A 
HETATM   22  N   UNL     1      40.847 -15.860  -1.176  1.00  0.00    -0.342 N 
HETATM   23  C   UNL     1      40.738 -14.547  -3.337  1.00  0.00     0.032 A 
HETATM   24  H   UNL     1      40.431 -16.738  -1.452  1.00  0.00     0.167 HD
HETATM   25  C   UNL     1      41.099 -13.298  -3.855  1.00  0.00     0.002 A 
HETATM   26  C   UNL     1      41.720 -12.333  -3.058  1.00  0.00     0.002 A 
ENDBRANCH   5  17
TORSDOF 4
ENDMDL
MODEL 7
REMARK VINA RESULT:      -7.5      1.928      3.298
REMARK  4 active torsions:
REMARK  status: ('A' for Active; 'I' for Inactive)
REMARK    1  A    between atoms: O_2  and  C_3 
REMARK    2  A    between atoms: C_5  and  N_6 
REMARK    3  A    between atoms: C_10  and  C_11 
REMARK    4  A    between atoms: C_22  and  O_23 
ROOT
HETATM    1  N   UNL     1      41.562 -15.142   1.636  1.00  0.00    -0.315 N 
HETATM    2  C   UNL     1      42.675 -14.586   2.285  1.00  0.00     0.225 C 
HETATM    3  O   UNL     1      42.945 -13.411   2.481  1.00  0.00    -0.273 OA
HETATM    4  C   UNL     1      43.532 -15.728   2.784  1.00  0.00     0.117 C 
HETATM    5  C   UNL     1      43.113 -16.852   1.852  1.00  0.00     0.082 C 
HETATM    6  C   UNL     1      41.623 -16.588   1.687  1.00  0.00     0.145 C 
ENDROOT
BRANCH   1   7
HETATM    7  C   UNL     1      40.528 -14.432   0.962  1.00  0.00     0.073 A 
HETATM    8  C   UNL     1      39.561 -13.736   1.713  1.00  0.00     0.069 A 
HETATM    9  C   UNL     1      38.583 -12.951   1.095  1.00  0.00     0.070 A 
HETATM   10  C   UNL     1      38.529 -12.891  -0.295  1.00  0.00     0.039 A 
HETATM   11  C   UNL     1      39.458 -13.587  -1.064  1.00  0.00     0.042 A 
HETATM   12  C   UNL     1      40.446 -14.365  -0.446  1.00  0.00     0.095 A 
BRANCH   9  13
HETATM   13  O   UNL     1      37.640 -12.197   1.737  1.00  0.00    -0.356 OA
HETATM   14  C   UNL     1      37.289 -10.964   1.118  1.00  0.00     0.210 C 
ENDBRANCH   9  13
BRANCH  12  15
HETATM   15  O   UNL     1      41.353 -15.048  -1.215  1.00  0.00    -0.354 OA
HETATM   16  C   UNL     1      40.804 -15.530  -2.441  1.00  0.00     0.210 C 
ENDBRANCH  12  15
ENDBRANCH   1   7
BRANCH   5  17
HETATM   17  C   UNL     1      43.438 -18.211   2.352  1.00  0.00     0.111 A 
HETATM   18  N   UNL     1      43.386 -19.341   1.680  1.00  0.00    -0.233 NA
HETATM   19  C   UNL     1      43.875 -20.304   2.531  1.00  0.00     0.085 A 
HETATM   20  C   UNL     1      44.208 -19.751   3.762  1.00  0.00     0.062 A 
HETATM   21  C   UNL     1      44.079 -21.674   2.319  1.00  0.00     0.034 A 
HETATM   22  N   UNL     1      43.898 -18.423   3.630  1.00  0.00    -0.342 N 
HETATM   23  C   UNL     1      44.743 -20.492   4.818  1.00  0.00     0.032 A 
HETATM   24  H   UNL     1      44.028 -17.716   4.339  1.00  0.00     0.167 HD
HETATM   25  C   UNL     1      44.946 -21.857   4.585  1.00  0.00     0.002 A 
HETATM   26  C   UNL     1      44.621 -22.441   3.358  1.00  0.00     0.002 A 
ENDBRANCH   5  17
TORSDOF 4
ENDMDL
MODEL 8
REMARK VINA RESULT:      -7.5      2.696      3.930
REMARK  4 active torsions:
REMARK  status: ('A' for Active; 'I' for Inactive)
REMARK    1  A    between atoms: O_2  and  C_3 
REMARK    2  A    between atoms: C_5  and  N_6 
REMARK    3  A    between atoms: C_10  and  C_11 
REMARK    4  A    between atoms: C_22  and  O_23 
ROOT
HETATM    1  N   UNL     1      42.357 -14.954   3.977  1.00  0.00    -0.315 N 
HETATM    2  C   UNL     1      42.953 -14.918   5.247  1.00  0.00     0.225 C 
HETATM    3  O   UNL     1      42.981 -14.006   6.058  1.00  0.00    -0.273 OA
HETATM    4  C   UNL     1      43.559 -16.279   5.508  1.00  0.00     0.117 C 
HETATM    5  C   UNL     1      43.756 -16.799   4.095  1.00  0.00     0.082 C 
HETATM    6  C   UNL     1      42.520 -16.265   3.385  1.00  0.00     0.145 C 
ENDROOT
BRANCH   1   7
HETATM    7  C   UNL     1      41.723 -13.871   3.304  1.00  0.00     0.073 A 
HETATM    8  C   UNL     1      42.419 -13.177   2.297  1.00  0.00     0.069 A 
HETATM    9  C   UNL     1      41.806 -12.169   1.547  1.00  0.00     0.070 A 
HETATM   10  C   UNL     1      40.492 -11.806   1.831  1.00  0.00     0.039 A 
HETATM   11  C   UNL     1      39.785 -12.460   2.837  1.00  0.00     0.042 A 
HETATM   12  C   UNL     1      40.395 -13.478   3.581  1.00  0.00     0.095 A 
BRANCH   9  13
HETATM   13  O   UNL     1      42.380 -11.478   0.516  1.00  0.00    -0.356 OA
HETATM   14  C   UNL     1      42.372 -12.122  -0.754  1.00  0.00     0.210 C 
ENDBRANCH   9  13
BRANCH  12  15
HETATM   15  O   UNL     1      39.688 -14.112   4.572  1.00  0.00    -0.354 OA
HETATM   16  C   UNL     1      39.528 -13.319   5.747  1.00  0.00     0.210 C 
ENDBRANCH  12  15
ENDBRANCH   1   7
BRANCH   5  17
HETATM   17  C   UNL     1      43.920 -18.272   4.005  1.00  0.00     0.111 A 
HETATM   18  N   UNL     1      43.923 -19.009   2.915  1.00  0.00    -0.233 NA
HETATM   19  C   UNL     1      44.210 -20.288   3.330  1.00  0.00     0.085 A 
HETATM   20  C   UNL     1      44.359 -20.337   4.711  1.00  0.00     0.062 A 
HETATM   21  C   UNL     1      44.374 -21.461   2.582  1.00  0.00     0.034 A 
HETATM   22  N   UNL     1      44.146 -19.046   5.118  1.00  0.00    -0.342 N 
HETATM   23  C   UNL     1      44.668 -21.505   5.410  1.00  0.00     0.032 A 
HETATM   24  H   UNL     1      44.191 -18.716   6.072  1.00  0.00     0.167 HD
HETATM   25  C   UNL     1      44.836 -22.666   4.646  1.00  0.00     0.002 A 
HETATM   26  C   UNL     1      44.693 -22.648   3.256  1.00  0.00     0.002 A 
ENDBRANCH   5  17
TORSDOF 4
ENDMDL
MODEL 9
REMARK VINA RESULT:      -7.5      3.401      5.646
REMARK  4 active torsions:
REMARK  status: ('A' for Active; 'I' for Inactive)
REMARK    1  A    between atoms: O_2  and  C_3 
REMARK    2  A    between atoms: C_5  and  N_6 
REMARK    3  A    between atoms: C_10  and  C_11 
REMARK    4  A    between atoms: C_22  and  O_23 
ROOT
HETATM    1  N   UNL     1      42.277 -14.557   4.142  1.00  0.00    -0.315 N 
HETATM    2  C   UNL     1      42.968 -14.325   2.944  1.00  0.00     0.225 C 
HETATM    3  O   UNL     1      43.114 -13.279   2.330  1.00  0.00    -0.273 OA
HETATM    4  C   UNL     1      43.591 -15.633   2.512  1.00  0.00     0.117 C 
HETATM    5  C   UNL     1      42.698 -16.641   3.216  1.00  0.00     0.082 C 
HETATM    6  C   UNL     1      42.415 -15.943   4.539  1.00  0.00     0.145 C 
ENDROOT
BRANCH   1   7
HETATM    7  C   UNL     1      41.493 -13.616   4.868  1.00  0.00     0.073 A 
HETATM    8  C   UNL     1      42.102 -12.825   5.860  1.00  0.00     0.069 A 
HETATM    9  C   UNL     1      41.393 -11.825   6.534  1.00  0.00     0.070 A 
HETATM   10  C   UNL     1      40.042 -11.636   6.256  1.00  0.00     0.039 A 
HETATM   11  C   UNL     1      39.407 -12.420   5.296  1.00  0.00     0.042 A 
HETATM   12  C   UNL     1      40.119 -13.414   4.612  1.00  0.00     0.095 A 
BRANCH   9  13
HETATM   13  O   UNL     1      41.910 -10.971   7.470  1.00  0.00    -0.356 OA
HETATM   14  C   UNL     1      41.021  -9.984   7.981  1.00  0.00     0.210 C 
ENDBRANCH   9  13
BRANCH  12  15
HETATM   15  O   UNL     1      39.480 -14.181   3.671  1.00  0.00    -0.354 OA
HETATM   16  C   UNL     1      39.281 -13.504   2.431  1.00  0.00     0.210 C 
ENDBRANCH  12  15
ENDBRANCH   1   7
BRANCH   5  17
HETATM   17  C   UNL     1      43.297 -17.991   3.358  1.00  0.00     0.111 A 
HETATM   18  N   UNL     1      43.844 -18.513   4.435  1.00  0.00    -0.233 NA
HETATM   19  C   UNL     1      44.156 -19.810   4.104  1.00  0.00     0.085 A 
HETATM   20  C   UNL     1      43.815 -20.079   2.784  1.00  0.00     0.062 A 
HETATM   21  C   UNL     1      44.720 -20.827   4.886  1.00  0.00     0.034 A 
HETATM   22  N   UNL     1      43.293 -18.899   2.324  1.00  0.00    -0.342 N 
HETATM   23  C   UNL     1      44.004 -21.323   2.179  1.00  0.00     0.032 A 
HETATM   24  H   UNL     1      42.928 -18.740   1.396  1.00  0.00     0.167 HD
HETATM   25  C   UNL     1      44.563 -22.329   2.977  1.00  0.00     0.002 A 
HETATM   26  C   UNL     1      44.916 -22.089   4.307  1.00  0.00     0.002 A 
ENDBRANCH   5  17
TORSDOF 4
ENDMDL
MODEL 10
REMARK VINA RESULT:      -7.2      2.201      3.053
REMARK  4 active torsions:
REMARK  status: ('A' for Active; 'I' for Inactive)
REMARK    1  A    between atoms: O_2  and  C_3 
REMARK    2  A    between atoms: C_5  and  N_6 
REMARK    3  A    between atoms: C_10  and  C_11 
REMARK    4  A    between atoms: C_22  and  O_23 
ROOT
HETATM    1  N   UNL     1      42.053 -14.332   1.666  1.00  0.00    -0.315 N 
HETATM    2  C   UNL     1      42.636 -14.017   2.902  1.00  0.00     0.225 C 
HETATM    3  O   UNL     1      42.660 -12.947   3.492  1.00  0.00    -0.273 OA
HETATM    4  C   UNL     1      43.234 -15.287   3.466  1.00  0.00     0.117 C 
HETATM    5  C   UNL     1      43.443 -16.108   2.204  1.00  0.00     0.082 C 
HETATM    6  C   UNL     1      42.216 -15.742   1.380  1.00  0.00     0.145 C 
ENDROOT
BRANCH   1   7
HETATM    7  C   UNL     1      41.430 -13.424   0.763  1.00  0.00     0.073 A 
HETATM    8  C   UNL     1      42.203 -12.793  -0.230  1.00  0.00     0.069 A 
HETATM    9  C   UNL     1      41.619 -11.967  -1.195  1.00  0.00     0.070 A 
HETATM   10  C   UNL     1      40.249 -11.719  -1.147  1.00  0.00     0.039 A 
HETATM   11  C   UNL     1      39.463 -12.311  -0.163  1.00  0.00     0.042 A 
HETATM   12  C   UNL     1      40.045 -13.148   0.798  1.00  0.00     0.095 A 
BRANCH   9  13
HETATM   13  O   UNL     1      42.276 -11.357  -2.228  1.00  0.00    -0.356 OA
HETATM   14  C   UNL     1      43.161 -10.300  -1.876  1.00  0.00     0.210 C 
ENDBRANCH   9  13
BRANCH  12  15
HETATM   15  O   UNL     1      39.260 -13.722   1.765  1.00  0.00    -0.354 OA
HETATM   16  C   UNL     1      38.147 -14.442   1.235  1.00  0.00     0.210 C 
ENDBRANCH  12  15
ENDBRANCH   1   7
BRANCH   5  17
HETATM   17  C   UNL     1      43.602 -17.564   2.444  1.00  0.00     0.111 A 
HETATM   18  N   UNL     1      43.381 -18.542   1.592  1.00  0.00    -0.233 NA
HETATM   19  C   UNL     1      43.766 -19.693   2.237  1.00  0.00     0.085 A 
HETATM   20  C   UNL     1      44.206 -19.414   3.525  1.00  0.00     0.062 A 
HETATM   21  C   UNL     1      43.781 -21.018   1.781  1.00  0.00     0.034 A 
HETATM   22  N   UNL     1      44.069 -18.055   3.640  1.00  0.00    -0.342 N 
HETATM   23  C   UNL     1      44.672 -20.390   4.407  1.00  0.00     0.032 A 
HETATM   24  H   UNL     1      44.313 -17.507   4.453  1.00  0.00     0.167 HD
HETATM   25  C   UNL     1      44.687 -21.707   3.932  1.00  0.00     0.002 A 
HETATM   26  C   UNL     1      44.250 -22.019   2.642  1.00  0.00     0.002 A 
ENDBRANCH   5  17
TORSDOF 4
ENDMDL
