MODEL 1
REMARK VINA RESULT:      -8.8      0.000      0.000
REMARK  6 active torsions:
REMARK  status: ('A' for Active; 'I' for Inactive)
REMARK       I    between atoms: C_2  and  N_3 
REMARK    1  A    between atoms: N_3  and  C_4 
REMARK    2  A    between atoms: C_4  and  C_5 
REMARK    3  A    between atoms: C_4  and  C_11 
REMARK    4  A    between atoms: C_11  and  C_12 
REMARK       I    between atoms: C_12  and  N_13 
REMARK    5  A    between atoms: N_13  and  C_14 
REMARK    6  A    between atoms: C_16  and  C_17 
ROOT
HETATM    1  C   UNL     1      40.942 -16.086   4.179  1.00  0.00     0.224 C 
HETATM    2  N   UNL     1      40.251 -16.372   3.028  1.00  0.00    -0.327 N 
HETATM    3  O   UNL     1      41.305 -14.965   4.540  1.00  0.00    -0.273 OA
HETATM    4  H   UNL     1      39.906 -17.329   2.920  1.00  0.00     0.169 HD
ENDROOT
BRANCH   1   5
HETATM    5  C   UNL     1      41.336 -17.295   5.013  1.00  0.00     0.133 C 
BRANCH   5   6
HETATM    6  C   UNL     1      42.826 -17.559   5.305  1.00  0.00     0.126 C 
BRANCH   6   7
HETATM    7  N   UNL     1      43.577 -16.325   5.572  1.00  0.00    -0.352 N 
HETATM    8  C   UNL     1      43.888 -15.842   6.816  1.00  0.00     0.214 C 
HETATM    9  C   UNL     1      44.746 -14.607   6.821  1.00  0.00     0.117 C 
HETATM   10  O   UNL     1      43.503 -16.364   7.857  1.00  0.00    -0.274 OA
HETATM   11  H   UNL     1      43.867 -15.790   4.763  1.00  0.00     0.163 HD
ENDBRANCH   6   7
BRANCH   6  12
HETATM   12  C   UNL     1      43.549 -18.588   4.449  1.00  0.00    -0.035 A 
HETATM   13  C   UNL     1      44.478 -19.501   4.975  1.00  0.00     0.009 A 
HETATM   14  C   UNL     1      45.096 -20.454   4.160  1.00  0.00     0.001 A 
HETATM   15  C   UNL     1      44.792 -20.518   2.804  1.00  0.00     0.000 A 
HETATM   16  C   UNL     1      43.868 -19.631   2.262  1.00  0.00     0.001 A 
HETATM   17  C   UNL     1      43.247 -18.681   3.077  1.00  0.00     0.009 A 
ENDBRANCH   6  12
ENDBRANCH   5   6
ENDBRANCH   1   5
BRANCH   2  18
HETATM   18  C   UNL     1      39.933 -15.496   1.973  1.00  0.00     0.035 A 
HETATM   19  C   UNL     1      40.659 -15.423   0.779  1.00  0.00     0.042 A 
HETATM   20  C   UNL     1      40.241 -14.587  -0.270  1.00  0.00    -0.021 A 
HETATM   21  C   UNL     1      39.102 -13.791  -0.088  1.00  0.00     0.012 A 
HETATM   22  C   UNL     1      38.380 -13.849   1.104  1.00  0.00     0.003 A 
HETATM   23  C   UNL     1      38.786 -14.710   2.122  1.00  0.00     0.029 A 
BRANCH  20  24
HETATM   24  C   UNL     1      40.939 -14.577  -1.548  1.00  0.00     0.010 A 
HETATM   25  C   UNL     1      40.870 -15.469  -2.645  1.00  0.00     0.152 A 
HETATM   26  N   UNL     1      41.688 -15.129  -3.645  1.00  0.00    -0.187 NA
HETATM   27  N   UNL     1      42.290 -14.019  -3.190  1.00  0.00    -0.289 N 
HETATM   28  H   UNL     1      42.978 -13.565  -3.782  1.00  0.00     0.188 HD
HETATM   29  C   UNL     1      41.874 -13.645  -1.946  1.00  0.00     0.123 A 
ENDBRANCH  20  24
ENDBRANCH   2  18
TORSDOF 6
ENDMDL
MODEL 2
REMARK VINA RESULT:      -8.5      3.623      5.696
REMARK  6 active torsions:
REMARK  status: ('A' for Active; 'I' for Inactive)
REMARK       I    between atoms: C_2  and  N_3 
REMARK    1  A    between atoms: N_3  and  C_4 
REMARK    2  A    between atoms: C_4  and  C_5 
REMARK    3  A    between atoms: C_4  and  C_11 
REMARK    4  A    between atoms: C_11  and  C_12 
REMARK       I    between atoms: C_12  and  N_13 
REMARK    5  A    between atoms: N_13  and  C_14 
REMARK    6  A    between atoms: C_16  and  C_17 
ROOT
HETATM    1  C   UNL     1      43.354 -14.560   4.197  1.00  0.00     0.224 C 
HETATM    2  N   UNL     1      42.875 -15.844   4.112  1.00  0.00    -0.327 N 
HETATM    3  O   UNL     1      44.008 -13.978   3.331  1.00  0.00    -0.273 OA
HETATM    4  H   UNL     1      42.241 -16.153   4.852  1.00  0.00     0.169 HD
ENDROOT
BRANCH   1   5
HETATM    5  C   UNL     1      43.093 -13.861   5.522  1.00  0.00     0.133 C 
BRANCH   5   6
HETATM    6  C   UNL     1      43.854 -14.321   6.781  1.00  0.00     0.126 C 
BRANCH   6   7
HETATM    7  N   UNL     1      45.047 -13.506   7.050  1.00  0.00    -0.352 N 
HETATM    8  C   UNL     1      45.356 -12.929   8.254  1.00  0.00     0.214 C 
HETATM    9  C   UNL     1      46.682 -12.222   8.295  1.00  0.00     0.117 C 
HETATM   10  O   UNL     1      44.618 -12.975   9.232  1.00  0.00    -0.274 OA
HETATM   11  H   UNL     1      45.673 -13.355   6.269  1.00  0.00     0.163 HD
ENDBRANCH   6   7
BRANCH   6  12
HETATM   12  C   UNL     1      44.022 -15.815   7.008  1.00  0.00    -0.035 A 
HETATM   13  C   UNL     1      43.069 -16.598   7.678  1.00  0.00     0.009 A 
HETATM   14  C   UNL     1      43.245 -17.976   7.836  1.00  0.00     0.001 A 
HETATM   15  C   UNL     1      44.377 -18.599   7.320  1.00  0.00     0.000 A 
HETATM   16  C   UNL     1      45.331 -17.847   6.643  1.00  0.00     0.001 A 
HETATM   17  C   UNL     1      45.152 -16.470   6.482  1.00  0.00     0.009 A 
ENDBRANCH   6  12
ENDBRANCH   5   6
ENDBRANCH   1   5
BRANCH   2  18
HETATM   18  C   UNL     1      43.133 -16.796   3.106  1.00  0.00     0.035 A 
HETATM   19  C   UNL     1      43.582 -18.094   3.364  1.00  0.00     0.042 A 
HETATM   20  C   UNL     1      43.741 -19.024   2.322  1.00  0.00    -0.021 A 
HETATM   21  C   UNL     1      43.480 -18.617   1.007  1.00  0.00     0.012 A 
HETATM   22  C   UNL     1      43.044 -17.319   0.740  1.00  0.00     0.003 A 
HETATM   23  C   UNL     1      42.856 -16.419   1.788  1.00  0.00     0.029 A 
BRANCH  20  24
HETATM   24  C   UNL     1      44.118 -20.403   2.594  1.00  0.00     0.010 A 
HETATM   25  C   UNL     1      44.054 -21.558   1.776  1.00  0.00     0.152 A 
HETATM   26  N   UNL     1      44.482 -22.660   2.397  1.00  0.00    -0.187 NA
HETATM   27  N   UNL     1      44.817 -22.218   3.619  1.00  0.00    -0.289 N 
HETATM   28  H   UNL     1      45.171 -22.888   4.294  1.00  0.00     0.188 HD
HETATM   29  C   UNL     1      44.623 -20.878   3.786  1.00  0.00     0.123 A 
ENDBRANCH  20  24
ENDBRANCH   2  18
TORSDOF 6
ENDMDL
MODEL 3
REMARK VINA RESULT:      -8.4      3.420      6.667
REMARK  6 active torsions:
REMARK  status: ('A' for Active; 'I' for Inactive)
REMARK       I    between atoms: C_2  and  N_3 
REMARK    1  A    between atoms: N_3  and  C_4 
REMARK    2  A    between atoms: C_4  and  C_5 
REMARK    3  A    between atoms: C_4  and  C_11 
REMARK    4  A    between atoms: C_11  and  C_12 
REMARK       I    between atoms: C_12  and  N_13 
REMARK    5  A    between atoms: N_13  and  C_14 
REMARK    6  A    between atoms: C_16  and  C_17 
ROOT
HETATM    1  C   UNL     1      43.431 -14.418   4.337  1.00  0.00     0.224 C 
HETATM    2  N   UNL     1      42.730 -15.598   4.365  1.00  0.00    -0.327 N 
HETATM    3  O   UNL     1      44.066 -13.982   3.375  1.00  0.00    -0.273 OA
HETATM    4  H   UNL     1      42.146 -15.771   5.187  1.00  0.00     0.169 HD
ENDROOT
BRANCH   1   5
HETATM    5  C   UNL     1      43.459 -13.651   5.650  1.00  0.00     0.133 C 
BRANCH   5   6
HETATM    6  C   UNL     1      44.347 -14.159   6.803  1.00  0.00     0.126 C 
BRANCH   6   7
HETATM    7  N   UNL     1      43.739 -15.279   7.534  1.00  0.00    -0.352 N 
HETATM    8  C   UNL     1      44.058 -16.601   7.362  1.00  0.00     0.214 C 
HETATM    9  C   UNL     1      43.360 -17.547   8.300  1.00  0.00     0.117 C 
HETATM   10  O   UNL     1      44.849 -16.999   6.515  1.00  0.00    -0.274 OA
HETATM   11  H   UNL     1      43.018 -15.041   8.202  1.00  0.00     0.163 HD
ENDBRANCH   6   7
BRANCH   6  12
HETATM   12  C   UNL     1      45.055 -13.126   7.666  1.00  0.00    -0.035 A 
HETATM   13  C   UNL     1      46.373 -12.705   7.428  1.00  0.00     0.009 A 
HETATM   14  C   UNL     1      46.976 -11.727   8.225  1.00  0.00     0.001 A 
HETATM   15  C   UNL     1      46.270 -11.147   9.273  1.00  0.00     0.000 A 
HETATM   16  C   UNL     1      44.959 -11.539   9.522  1.00  0.00     0.001 A 
HETATM   17  C   UNL     1      44.355 -12.513   8.723  1.00  0.00     0.009 A 
ENDBRANCH   6  12
ENDBRANCH   5   6
ENDBRANCH   1   5
BRANCH   2  18
HETATM   18  C   UNL     1      42.695 -16.604   3.381  1.00  0.00     0.035 A 
HETATM   19  C   UNL     1      43.352 -17.832   3.503  1.00  0.00     0.042 A 
HETATM   20  C   UNL     1      43.209 -18.829   2.522  1.00  0.00    -0.021 A 
HETATM   21  C   UNL     1      42.427 -18.557   1.392  1.00  0.00     0.012 A 
HETATM   22  C   UNL     1      41.779 -17.329   1.257  1.00  0.00     0.003 A 
HETATM   23  C   UNL     1      41.900 -16.365   2.255  1.00  0.00     0.029 A 
BRANCH  20  24
HETATM   24  C   UNL     1      43.815 -20.141   2.689  1.00  0.00     0.010 A 
HETATM   25  C   UNL     1      43.810 -21.276   1.841  1.00  0.00     0.152 A 
HETATM   26  N   UNL     1      44.472 -22.315   2.357  1.00  0.00    -0.187 NA
HETATM   27  N   UNL     1      44.899 -21.853   3.543  1.00  0.00    -0.289 N 
HETATM   28  H   UNL     1      45.434 -22.476   4.139  1.00  0.00     0.188 HD
HETATM   29  C   UNL     1      44.538 -20.560   3.786  1.00  0.00     0.123 A 
ENDBRANCH  20  24
ENDBRANCH   2  18
TORSDOF 6
ENDMDL
MODEL 4
REMARK VINA RESULT:      -8.2      2.384      3.183
REMARK  6 active torsions:
REMARK  status: ('A' for Active; 'I' for Inactive)
REMARK       I    between atoms: C_2  and  N_3 
REMARK    1  A    between atoms: N_3  and  C_4 
REMARK    2  A    between atoms: C_4  and  C_5 
REMARK    3  A    between atoms: C_4  and  C_11 
REMARK    4  A    between atoms: C_11  and  C_12 
REMARK       I    between atoms: C_12  and  N_13 
REMARK    5  A    between atoms: N_13  and  C_14 
REMARK    6  A    between atoms: C_16  and  C_17 
ROOT
HETATM    1  C   UNL     1      41.885 -16.818   0.788  1.00  0.00     0.224 C 
HETATM    2  N   UNL     1      42.145 -15.827  -0.125  1.00  0.00    -0.327 N 
HETATM    3  O   UNL     1      40.790 -17.053   1.301  1.00  0.00    -0.273 OA
HETATM    4  H   UNL     1      43.070 -15.829  -0.561  1.00  0.00     0.169 HD
ENDROOT
BRANCH   1   5
HETATM    5  C   UNL     1      43.097 -17.623   1.230  1.00  0.00     0.133 C 
BRANCH   5   6
HETATM    6  C   UNL     1      43.131 -18.219   2.651  1.00  0.00     0.126 C 
BRANCH   6   7
HETATM    7  N   UNL     1      43.612 -17.260   3.655  1.00  0.00    -0.352 N 
HETATM    8  C   UNL     1      42.858 -16.733   4.671  1.00  0.00     0.214 C 
HETATM    9  C   UNL     1      43.611 -15.844   5.622  1.00  0.00     0.117 C 
HETATM   10  O   UNL     1      41.661 -16.958   4.808  1.00  0.00    -0.274 OA
HETATM   11  H   UNL     1      44.576 -16.962   3.566  1.00  0.00     0.163 HD
ENDBRANCH   6   7
BRANCH   6  12
HETATM   12  C   UNL     1      43.639 -19.643   2.816  1.00  0.00    -0.035 A 
HETATM   13  C   UNL     1      43.504 -20.622   1.818  1.00  0.00     0.009 A 
HETATM   14  C   UNL     1      44.016 -21.911   1.996  1.00  0.00     0.001 A 
HETATM   15  C   UNL     1      44.677 -22.245   3.172  1.00  0.00     0.000 A 
HETATM   16  C   UNL     1      44.833 -21.289   4.171  1.00  0.00     0.001 A 
HETATM   17  C   UNL     1      44.325 -20.000   3.992  1.00  0.00     0.009 A 
ENDBRANCH   6  12
ENDBRANCH   5   6
ENDBRANCH   1   5
BRANCH   2  18
HETATM   18  C   UNL     1      41.278 -14.806  -0.561  1.00  0.00     0.035 A 
HETATM   19  C   UNL     1      40.378 -14.954  -1.620  1.00  0.00     0.042 A 
HETATM   20  C   UNL     1      39.479 -13.926  -1.954  1.00  0.00    -0.021 A 
HETATM   21  C   UNL     1      39.526 -12.726  -1.231  1.00  0.00     0.012 A 
HETATM   22  C   UNL     1      40.431 -12.567  -0.181  1.00  0.00     0.003 A 
HETATM   23  C   UNL     1      41.290 -13.609   0.162  1.00  0.00     0.029 A 
BRANCH  20  24
HETATM   24  C   UNL     1      38.478 -14.108  -2.995  1.00  0.00     0.010 A 
HETATM   25  C   UNL     1      38.073 -15.272  -3.693  1.00  0.00     0.152 A 
HETATM   26  N   UNL     1      37.124 -15.031  -4.601  1.00  0.00    -0.187 NA
HETATM   27  N   UNL     1      36.920 -13.708  -4.493  1.00  0.00    -0.289 N 
HETATM   28  H   UNL     1      36.232 -13.275  -5.100  1.00  0.00     0.188 HD
HETATM   29  C   UNL     1      37.700 -13.112  -3.545  1.00  0.00     0.123 A 
ENDBRANCH  20  24
ENDBRANCH   2  18
TORSDOF 6
ENDMDL
MODEL 5
REMARK VINA RESULT:      -8.1      2.502      3.788
REMARK  6 active torsions:
REMARK  status: ('A' for Active; 'I' for Inactive)
REMARK       I    between atoms: C_2  and  N_3 
REMARK    1  A    between atoms: N_3  and  C_4 
REMARK    2  A    between atoms: C_4  and  C_5 
REMARK    3  A    between atoms: C_4  and  C_11 
REMARK    4  A    between atoms: C_11  and  C_12 
REMARK       I    between atoms: C_12  and  N_13 
REMARK    5  A    between atoms: N_13  and  C_14 
REMARK    6  A    between atoms: C_16  and  C_17 
ROOT
HETATM    1  C   UNL     1      41.998 -16.904   0.680  1.00  0.00     0.224 C 
HETATM    2  N   UNL     1      42.072 -15.883  -0.234  1.00  0.00    -0.327 N 
HETATM    3  O   UNL     1      40.999 -17.585   0.917  1.00  0.00    -0.273 OA
HETATM    4  H   UNL     1      42.999 -15.490  -0.416  1.00  0.00     0.169 HD
ENDROOT
BRANCH   1   5
HETATM    5  C   UNL     1      43.259 -17.132   1.498  1.00  0.00     0.133 C 
BRANCH   5   6
HETATM    6  C   UNL     1      43.168 -17.902   2.830  1.00  0.00     0.126 C 
BRANCH   6   7
HETATM    7  N   UNL     1      43.617 -17.102   3.977  1.00  0.00    -0.352 N 
HETATM    8  C   UNL     1      42.817 -16.287   4.735  1.00  0.00     0.214 C 
HETATM    9  C   UNL     1      43.499 -15.648   5.913  1.00  0.00     0.117 C 
HETATM   10  O   UNL     1      41.634 -16.083   4.485  1.00  0.00    -0.274 OA
HETATM   11  H   UNL     1      44.602 -17.155   4.205  1.00  0.00     0.163 HD
ENDBRANCH   6   7
BRANCH   6  12
HETATM   12  C   UNL     1      43.603 -19.359   2.843  1.00  0.00    -0.035 A 
HETATM   13  C   UNL     1      43.325 -20.248   1.792  1.00  0.00     0.009 A 
HETATM   14  C   UNL     1      43.772 -21.573   1.827  1.00  0.00     0.001 A 
HETATM   15  C   UNL     1      44.513 -22.032   2.911  1.00  0.00     0.000 A 
HETATM   16  C   UNL     1      44.810 -21.167   3.960  1.00  0.00     0.001 A 
HETATM   17  C   UNL     1      44.366 -19.843   3.923  1.00  0.00     0.009 A 
ENDBRANCH   6  12
ENDBRANCH   5   6
ENDBRANCH   1   5
BRANCH   2  18
HETATM   18  C   UNL     1      41.021 -15.315  -0.980  1.00  0.00     0.035 A 
HETATM   19  C   UNL     1      39.982 -14.570  -0.414  1.00  0.00     0.042 A 
HETATM   20  C   UNL     1      39.008 -13.959  -1.221  1.00  0.00    -0.021 A 
HETATM   21  C   UNL     1      39.070 -14.141  -2.609  1.00  0.00     0.012 A 
HETATM   22  C   UNL     1      40.097 -14.892  -3.181  1.00  0.00     0.003 A 
HETATM   23  C   UNL     1      41.076 -15.462  -2.370  1.00  0.00     0.029 A 
BRANCH  20  24
HETATM   24  C   UNL     1      37.978 -13.107  -0.645  1.00  0.00     0.010 A 
HETATM   25  C   UNL     1      37.325 -11.964  -1.167  1.00  0.00     0.152 A 
HETATM   26  N   UNL     1      36.438 -11.438  -0.319  1.00  0.00    -0.187 NA
HETATM   27  N   UNL     1      36.523 -12.239   0.755  1.00  0.00    -0.289 N 
HETATM   28  H   UNL     1      35.935 -12.034   1.557  1.00  0.00     0.188 HD
HETATM   29  C   UNL     1      37.423 -13.253   0.609  1.00  0.00     0.123 A 
ENDBRANCH  20  24
ENDBRANCH   2  18
TORSDOF 6
ENDMDL
MODEL 6
REMARK VINA RESULT:      -8.0      2.244      3.415
REMARK  6 active torsions:
REMARK  status: ('A' for Active; 'I' for Inactive)
REMARK       I    between atoms: C_2  and  N_3 
REMARK    1  A    between atoms: N_3  and  C_4 
REMARK    2  A    between atoms: C_4  and  C_5 
REMARK    3  A    between atoms: C_4  and  C_11 
REMARK    4  A    between atoms: C_11  and  C_12 
REMARK       I    between atoms: C_12  and  N_13 
REMARK    5  A    between atoms: N_13  and  C_14 
REMARK    6  A    between atoms: C_16  and  C_17 
ROOT
HETATM    1  C   UNL     1      40.761 -16.187   0.897  1.00  0.00     0.224 C 
HETATM    2  N   UNL     1      41.115 -16.254  -0.427  1.00  0.00    -0.327 N 
HETATM    3  O   UNL     1      40.276 -15.206   1.462  1.00  0.00    -0.273 OA
HETATM    4  H   UNL     1      41.387 -17.172  -0.789  1.00  0.00     0.169 HD
ENDROOT
BRANCH   1   5
HETATM    5  C   UNL     1      41.078 -17.429   1.715  1.00  0.00     0.133 C 
BRANCH   5   6
HETATM    6  C   UNL     1      42.181 -17.365   2.789  1.00  0.00     0.126 C 
BRANCH   6   7
HETATM    7  N   UNL     1      42.877 -16.071   2.809  1.00  0.00    -0.352 N 
HETATM    8  C   UNL     1      42.899 -15.201   3.868  1.00  0.00     0.214 C 
HETATM    9  C   UNL     1      43.760 -13.984   3.670  1.00  0.00     0.117 C 
HETATM   10  O   UNL     1      42.270 -15.384   4.904  1.00  0.00    -0.274 OA
HETATM   11  H   UNL     1      43.360 -15.807   1.960  1.00  0.00     0.163 HD
ENDBRANCH   6   7
BRANCH   6  12
HETATM   12  C   UNL     1      43.071 -18.585   2.973  1.00  0.00    -0.035 A 
HETATM   13  C   UNL     1      43.831 -18.808   4.132  1.00  0.00     0.009 A 
HETATM   14  C   UNL     1      44.611 -19.960   4.276  1.00  0.00     0.001 A 
HETATM   15  C   UNL     1      44.641 -20.914   3.265  1.00  0.00     0.000 A 
HETATM   16  C   UNL     1      43.889 -20.720   2.111  1.00  0.00     0.001 A 
HETATM   17  C   UNL     1      43.107 -19.571   1.969  1.00  0.00     0.009 A 
ENDBRANCH   6  12
ENDBRANCH   5   6
ENDBRANCH   1   5
BRANCH   2  18
HETATM   18  C   UNL     1      41.130 -15.208  -1.370  1.00  0.00     0.035 A 
HETATM   19  C   UNL     1      41.723 -13.963  -1.137  1.00  0.00     0.042 A 
HETATM   20  C   UNL     1      41.778 -12.989  -2.149  1.00  0.00    -0.021 A 
HETATM   21  C   UNL     1      41.192 -13.270  -3.390  1.00  0.00     0.012 A 
HETATM   22  C   UNL     1      40.589 -14.506  -3.626  1.00  0.00     0.003 A 
HETATM   23  C   UNL     1      40.574 -15.475  -2.625  1.00  0.00     0.029 A 
BRANCH  20  24
HETATM   24  C   UNL     1      42.474 -11.728  -1.943  1.00  0.00     0.010 A 
HETATM   25  C   UNL     1      43.181 -11.236  -0.819  1.00  0.00     0.152 A 
HETATM   26  N   UNL     1      43.673 -10.009  -1.009  1.00  0.00    -0.187 NA
HETATM   27  N   UNL     1      43.277  -9.705  -2.254  1.00  0.00    -0.289 N 
HETATM   28  H   UNL     1      43.528  -8.797  -2.633  1.00  0.00     0.188 HD
HETATM   29  C   UNL     1      42.562 -10.699  -2.856  1.00  0.00     0.123 A 
ENDBRANCH  20  24
ENDBRANCH   2  18
TORSDOF 6
ENDMDL
MODEL 7
REMARK VINA RESULT:      -8.0      1.747      2.338
REMARK  6 active torsions:
REMARK  status: ('A' for Active; 'I' for Inactive)
REMARK       I    between atoms: C_2  and  N_3 
REMARK    1  A    between atoms: N_3  and  C_4 
REMARK    2  A    between atoms: C_4  and  C_5 
REMARK    3  A    between atoms: C_4  and  C_11 
REMARK    4  A    between atoms: C_11  and  C_12 
REMARK       I    between atoms: C_12  and  N_13 
REMARK    5  A    between atoms: N_13  and  C_14 
REMARK    6  A    between atoms: C_16  and  C_17 
ROOT
HETATM    1  C   UNL     1      42.629 -15.668   2.340  1.00  0.00     0.224 C 
HETATM    2  N   UNL     1      41.459 -16.088   1.760  1.00  0.00    -0.327 N 
HETATM    3  O   UNL     1      42.948 -14.496   2.547  1.00  0.00    -0.273 OA
HETATM    4  H   UNL     1      41.272 -17.093   1.766  1.00  0.00     0.169 HD
ENDROOT
BRANCH   1   5
HETATM    5  C   UNL     1      43.618 -16.774   2.672  1.00  0.00     0.133 C 
BRANCH   5   6
HETATM    6  C   UNL     1      43.187 -17.915   3.615  1.00  0.00     0.126 C 
BRANCH   6   7
HETATM    7  N   UNL     1      43.337 -17.564   5.033  1.00  0.00    -0.352 N 
HETATM    8  C   UNL     1      42.308 -17.267   5.888  1.00  0.00     0.214 C 
HETATM    9  C   UNL     1      42.718 -17.032   7.316  1.00  0.00     0.117 C 
HETATM   10  O   UNL     1      41.136 -17.195   5.533  1.00  0.00    -0.274 OA
HETATM   11  H   UNL     1      44.284 -17.526   5.389  1.00  0.00     0.163 HD
ENDBRANCH   6   7
BRANCH   6  12
HETATM   12  C   UNL     1      43.593 -19.334   3.249  1.00  0.00    -0.035 A 
HETATM   13  C   UNL     1      43.261 -19.932   2.023  1.00  0.00     0.009 A 
HETATM   14  C   UNL     1      43.683 -21.228   1.711  1.00  0.00     0.001 A 
HETATM   15  C   UNL     1      44.451 -21.950   2.618  1.00  0.00     0.000 A 
HETATM   16  C   UNL     1      44.801 -21.376   3.836  1.00  0.00     0.001 A 
HETATM   17  C   UNL     1      44.383 -20.079   4.146  1.00  0.00     0.009 A 
ENDBRANCH   6  12
ENDBRANCH   5   6
ENDBRANCH   1   5
BRANCH   2  18
HETATM   18  C   UNL     1      40.456 -15.295   1.168  1.00  0.00     0.035 A 
HETATM   19  C   UNL     1      40.597 -14.664  -0.072  1.00  0.00     0.042 A 
HETATM   20  C   UNL     1      39.528 -13.955  -0.647  1.00  0.00    -0.021 A 
HETATM   21  C   UNL     1      38.325 -13.854   0.063  1.00  0.00     0.012 A 
HETATM   22  C   UNL     1      38.180 -14.470   1.306  1.00  0.00     0.003 A 
HETATM   23  C   UNL     1      39.237 -15.200   1.847  1.00  0.00     0.029 A 
BRANCH  20  24
HETATM   24  C   UNL     1      39.639 -13.375  -1.978  1.00  0.00     0.010 A 
HETATM   25  C   UNL     1      40.765 -12.878  -2.678  1.00  0.00     0.152 A 
HETATM   26  N   UNL     1      40.458 -12.404  -3.888  1.00  0.00    -0.187 NA
HETATM   27  N   UNL     1      39.131 -12.589  -3.967  1.00  0.00    -0.289 N 
HETATM   28  H   UNL     1      38.651 -12.294  -4.811  1.00  0.00     0.188 HD
HETATM   29  C   UNL     1      38.595 -13.170  -2.855  1.00  0.00     0.123 A 
ENDBRANCH  20  24
ENDBRANCH   2  18
TORSDOF 6
ENDMDL
MODEL 8
REMARK VINA RESULT:      -8.0      2.116      3.067
REMARK  6 active torsions:
REMARK  status: ('A' for Active; 'I' for Inactive)
REMARK       I    between atoms: C_2  and  N_3 
REMARK    1  A    between atoms: N_3  and  C_4 
REMARK    2  A    between atoms: C_4  and  C_5 
REMARK    3  A    between atoms: C_4  and  C_11 
REMARK    4  A    between atoms: C_11  and  C_12 
REMARK       I    between atoms: C_12  and  N_13 
REMARK    5  A    between atoms: N_13  and  C_14 
REMARK    6  A    between atoms: C_16  and  C_17 
ROOT
HETATM    1  C   UNL     1      40.925 -16.359   4.312  1.00  0.00     0.224 C 
HETATM    2  N   UNL     1      40.386 -16.642   3.082  1.00  0.00    -0.327 N 
HETATM    3  O   UNL     1      41.140 -15.232   4.761  1.00  0.00    -0.273 OA
HETATM    4  H   UNL     1      40.147 -17.618   2.892  1.00  0.00     0.169 HD
ENDROOT
BRANCH   1   5
HETATM    5  C   UNL     1      41.346 -17.573   5.126  1.00  0.00     0.133 C 
BRANCH   5   6
HETATM    6  C   UNL     1      42.843 -17.812   5.406  1.00  0.00     0.126 C 
BRANCH   6   7
HETATM    7  N   UNL     1      43.572 -16.568   5.686  1.00  0.00    -0.352 N 
HETATM    8  C   UNL     1      43.840 -16.072   6.935  1.00  0.00     0.214 C 
HETATM    9  C   UNL     1      44.685 -14.828   6.956  1.00  0.00     0.117 C 
HETATM   10  O   UNL     1      43.430 -16.591   7.968  1.00  0.00    -0.274 OA
HETATM   11  H   UNL     1      43.880 -16.036   4.882  1.00  0.00     0.163 HD
ENDBRANCH   6   7
BRANCH   6  12
HETATM   12  C   UNL     1      43.581 -18.816   4.533  1.00  0.00    -0.035 A 
HETATM   13  C   UNL     1      44.478 -19.764   5.051  1.00  0.00     0.009 A 
HETATM   14  C   UNL     1      45.110 -20.692   4.218  1.00  0.00     0.001 A 
HETATM   15  C   UNL     1      44.853 -20.695   2.852  1.00  0.00     0.000 A 
HETATM   16  C   UNL     1      43.960 -19.772   2.316  1.00  0.00     0.001 A 
HETATM   17  C   UNL     1      43.325 -18.847   3.149  1.00  0.00     0.009 A 
ENDBRANCH   6  12
ENDBRANCH   5   6
ENDBRANCH   1   5
BRANCH   2  18
HETATM   18  C   UNL     1      40.094 -15.739   2.040  1.00  0.00     0.035 A 
HETATM   19  C   UNL     1      39.121 -14.740   2.130  1.00  0.00     0.042 A 
HETATM   20  C   UNL     1      38.934 -13.817   1.086  1.00  0.00    -0.021 A 
HETATM   21  C   UNL     1      39.716 -13.937  -0.070  1.00  0.00     0.012 A 
HETATM   22  C   UNL     1      40.681 -14.939  -0.172  1.00  0.00     0.003 A 
HETATM   23  C   UNL     1      40.879 -15.825   0.886  1.00  0.00     0.029 A 
BRANCH  20  24
HETATM   24  C   UNL     1      37.987 -12.719   1.212  1.00  0.00     0.010 A 
HETATM   25  C   UNL     1      36.836 -12.400   0.451  1.00  0.00     0.152 A 
HETATM   26  N   UNL     1      36.227 -11.287   0.869  1.00  0.00    -0.187 NA
HETATM   27  N   UNL     1      36.989 -10.884   1.898  1.00  0.00    -0.289 N 
HETATM   28  H   UNL     1      36.728 -10.035   2.388  1.00  0.00     0.188 HD
HETATM   29  C   UNL     1      38.048 -11.707   2.147  1.00  0.00     0.123 A 
ENDBRANCH  20  24
ENDBRANCH   2  18
TORSDOF 6
ENDMDL
MODEL 9
REMARK VINA RESULT:      -8.0      2.559      8.213
REMARK  6 active torsions:
REMARK  status: ('A' for Active; 'I' for Inactive)
REMARK       I    between atoms: C_2  and  N_3 
REMARK    1  A    between atoms: N_3  and  C_4 
REMARK    2  A    between atoms: C_4  and  C_5 
REMARK    3  A    between atoms: C_4  and  C_11 
REMARK    4  A    between atoms: C_11  and  C_12 
REMARK       I    between atoms: C_12  and  N_13 
REMARK    5  A    between atoms: N_13  and  C_14 
REMARK    6  A    between atoms: C_16  and  C_17 
ROOT
HETATM    1  C   UNL     1      42.021 -17.137   1.633  1.00  0.00     0.224 C 
HETATM    2  N   UNL     1      43.308 -17.491   1.955  1.00  0.00    -0.327 N 
HETATM    3  O   UNL     1      41.028 -17.319   2.338  1.00  0.00    -0.273 OA
HETATM    4  H   UNL     1      44.049 -17.164   1.331  1.00  0.00     0.169 HD
ENDROOT
BRANCH   1   5
HETATM    5  C   UNL     1      41.844 -16.539   0.246  1.00  0.00     0.133 C 
BRANCH   5   6
HETATM    6  C   UNL     1      41.391 -15.072   0.109  1.00  0.00     0.126 C 
BRANCH   6   7
HETATM    7  N   UNL     1      40.950 -14.494   1.385  1.00  0.00    -0.352 N 
HETATM    8  C   UNL     1      41.545 -13.435   2.021  1.00  0.00     0.214 C 
HETATM    9  C   UNL     1      40.846 -12.973   3.270  1.00  0.00     0.117 C 
HETATM   10  O   UNL     1      42.568 -12.894   1.616  1.00  0.00    -0.274 OA
HETATM   11  H   UNL     1      40.153 -14.934   1.827  1.00  0.00     0.163 HD
ENDBRANCH   6   7
BRANCH   6  12
HETATM   12  C   UNL     1      40.548 -14.696  -1.101  1.00  0.00    -0.035 A 
HETATM   13  C   UNL     1      39.598 -13.663  -1.078  1.00  0.00     0.009 A 
HETATM   14  C   UNL     1      38.867 -13.326  -2.221  1.00  0.00     0.001 A 
HETATM   15  C   UNL     1      39.078 -14.012  -3.412  1.00  0.00     0.000 A 
HETATM   16  C   UNL     1      40.022 -15.032  -3.463  1.00  0.00     0.001 A 
HETATM   17  C   UNL     1      40.755 -15.366  -2.321  1.00  0.00     0.009 A 
ENDBRANCH   6  12
ENDBRANCH   5   6
ENDBRANCH   1   5
BRANCH   2  18
HETATM   18  C   UNL     1      43.744 -18.238   3.067  1.00  0.00     0.035 A 
HETATM   19  C   UNL     1      43.675 -17.778   4.385  1.00  0.00     0.042 A 
HETATM   20  C   UNL     1      44.050 -18.604   5.459  1.00  0.00    -0.021 A 
HETATM   21  C   UNL     1      44.534 -19.890   5.185  1.00  0.00     0.012 A 
HETATM   22  C   UNL     1      44.616 -20.352   3.872  1.00  0.00     0.003 A 
HETATM   23  C   UNL     1      44.207 -19.534   2.820  1.00  0.00     0.029 A 
BRANCH  20  24
HETATM   24  C   UNL     1      43.894 -18.164   6.838  1.00  0.00     0.010 A 
HETATM   25  C   UNL     1      43.510 -16.909   7.369  1.00  0.00     0.152 A 
HETATM   26  N   UNL     1      43.500 -16.890   8.705  1.00  0.00    -0.187 NA
HETATM   27  N   UNL     1      43.883 -18.133   9.036  1.00  0.00    -0.289 N 
HETATM   28  H   UNL     1      43.960 -18.368  10.020  1.00  0.00     0.188 HD
HETATM   29  C   UNL     1      44.125 -18.933   7.958  1.00  0.00     0.123 A 
ENDBRANCH  20  24
ENDBRANCH   2  18
TORSDOF 6
ENDMDL
MODEL 10
REMARK VINA RESULT:      -7.8      2.487      8.523
REMARK  6 active torsions:
REMARK  status: ('A' for Active; 'I' for Inactive)
REMARK       I    between atoms: C_2  and  N_3 
REMARK    1  A    between atoms: N_3  and  C_4 
REMARK    2  A    between atoms: C_4  and  C_5 
REMARK    3  A    between atoms: C_4  and  C_11 
REMARK    4  A    between atoms: C_11  and  C_12 
REMARK       I    between atoms: C_12  and  N_13 
REMARK    5  A    between atoms: N_13  and  C_14 
REMARK    6  A    between atoms: C_16  and  C_17 
ROOT
HETATM    1  C   UNL     1      42.015 -16.053   1.057  1.00  0.00     0.224 C 
HETATM    2  N   UNL     1      41.887 -17.353   1.479  1.00  0.00    -0.327 N 
HETATM    3  O   UNL     1      42.965 -15.308   1.302  1.00  0.00    -0.273 OA
HETATM    4  H   UNL     1      41.107 -17.891   1.095  1.00  0.00     0.169 HD
ENDROOT
BRANCH   1   5
HETATM    5  C   UNL     1      40.826 -15.505   0.284  1.00  0.00     0.133 C 
BRANCH   5   6
HETATM    6  C   UNL     1      41.063 -14.782  -1.056  1.00  0.00     0.126 C 
BRANCH   6   7
HETATM    7  N   UNL     1      41.577 -13.417  -0.878  1.00  0.00    -0.352 N 
HETATM    8  C   UNL     1      42.429 -12.775  -1.738  1.00  0.00     0.214 C 
HETATM    9  C   UNL     1      42.734 -11.347  -1.379  1.00  0.00     0.117 C 
HETATM   10  O   UNL     1      42.915 -13.309  -2.730  1.00  0.00    -0.274 OA
HETATM   11  H   UNL     1      41.284 -12.931  -0.040  1.00  0.00     0.163 HD
ENDBRANCH   6   7
BRANCH   6  12
HETATM   12  C   UNL     1      40.020 -14.946  -2.150  1.00  0.00    -0.035 A 
HETATM   13  C   UNL     1      40.157 -15.862  -3.205  1.00  0.00     0.009 A 
HETATM   14  C   UNL     1      39.158 -16.007  -4.173  1.00  0.00     0.001 A 
HETATM   15  C   UNL     1      37.999 -15.242  -4.101  1.00  0.00     0.000 A 
HETATM   16  C   UNL     1      37.835 -14.335  -3.060  1.00  0.00     0.001 A 
HETATM   17  C   UNL     1      38.832 -14.193  -2.090  1.00  0.00     0.009 A 
ENDBRANCH   6  12
ENDBRANCH   5   6
ENDBRANCH   1   5
BRANCH   2  18
HETATM   18  C   UNL     1      42.721 -18.056   2.371  1.00  0.00     0.035 A 
HETATM   19  C   UNL     1      42.780 -17.798   3.744  1.00  0.00     0.042 A 
HETATM   20  C   UNL     1      43.570 -18.590   4.594  1.00  0.00    -0.021 A 
HETATM   21  C   UNL     1      44.334 -19.624   4.038  1.00  0.00     0.012 A 
HETATM   22  C   UNL     1      44.290 -19.880   2.667  1.00  0.00     0.003 A 
HETATM   23  C   UNL     1      43.474 -19.109   1.842  1.00  0.00     0.029 A 
BRANCH  20  24
HETATM   24  C   UNL     1      43.564 -18.385   6.035  1.00  0.00     0.010 A 
HETATM   25  C   UNL     1      44.347 -18.977   7.056  1.00  0.00     0.152 A 
HETATM   26  N   UNL     1      44.030 -18.538   8.277  1.00  0.00    -0.187 NA
HETATM   27  N   UNL     1      43.036 -17.665   8.045  1.00  0.00    -0.289 N 
HETATM   28  H   UNL     1      42.613 -17.193   8.837  1.00  0.00     0.188 HD
HETATM   29  C   UNL     1      42.724 -17.535   6.723  1.00  0.00     0.123 A 
ENDBRANCH  20  24
ENDBRANCH   2  18
TORSDOF 6
ENDMDL
