MODEL 1
REMARK VINA RESULT:      -8.5      0.000      0.000
REMARK  7 active torsions:
REMARK  status: ('A' for Active; 'I' for Inactive)
REMARK    1  A    between atoms: C_2  and  O_3 
REMARK    2  A    between atoms: O_3  and  C_4 
REMARK    3  A    between atoms: C_7  and  C_8 
REMARK    4  A    between atoms: N_9  and  N_10 
REMARK    5  A    between atoms: C_21  and  C_22 
REMARK       I    between atoms: C_22  and  N_23 
REMARK    6  A    between atoms: N_23  and  C_24 
REMARK    7  A    between atoms: C_31  and  N_32 
ROOT
HETATM    1  N   UNL     1      40.979 -15.597   0.067  1.00  0.00    -0.197 N 
HETATM    2  C   UNL     1      40.811 -14.614   1.036  1.00  0.00     0.183 A 
HETATM    3  C   UNL     1      41.342 -13.441   0.515  1.00  0.00     0.125 A 
HETATM    4  N   UNL     1      41.470 -12.315   1.264  1.00  0.00    -0.242 NA
HETATM    5  C   UNL     1      40.960 -12.413   2.499  1.00  0.00     0.086 A 
HETATM    6  C   UNL     1      40.388 -13.612   3.007  1.00  0.00     0.088 A 
HETATM    7  N   UNL     1      40.333 -14.755   2.296  1.00  0.00    -0.225 NA
HETATM    8  C   UNL     1      40.984 -11.277   3.298  1.00  0.00     0.034 A 
HETATM    9  C   UNL     1      40.442 -11.277   4.582  1.00  0.00     0.002 A 
HETATM   10  C   UNL     1      39.869 -12.440   5.078  1.00  0.00     0.002 A 
HETATM   11  C   UNL     1      39.851 -13.594   4.289  1.00  0.00     0.034 A 
HETATM   12  C   UNL     1      41.711 -13.671  -0.829  1.00  0.00     0.110 C 
HETATM   13  C   UNL     1      41.251 -14.938  -1.151  1.00  0.00     0.143 C 
ENDROOT
BRANCH   1  14
HETATM   14  N   UNL     1      41.387 -16.883   0.357  1.00  0.00    -0.176 NA
HETATM   15  C   UNL     1      42.555 -16.970   0.900  1.00  0.00     0.150 C 
BRANCH  15  16
HETATM   16  C   UNL     1      42.822 -17.949   1.974  1.00  0.00    -0.017 A 
HETATM   17  C   UNL     1      42.425 -17.642   3.282  1.00  0.00     0.016 A 
HETATM   18  C   UNL     1      42.990 -18.326   4.359  1.00  0.00     0.037 A 
HETATM   19  C   UNL     1      43.951 -19.309   4.125  1.00  0.00     0.068 A 
HETATM   20  C   UNL     1      44.265 -19.686   2.817  1.00  0.00     0.037 A 
HETATM   21  C   UNL     1      43.716 -18.993   1.735  1.00  0.00     0.016 A 
BRANCH  19  22
HETATM   22  O   UNL     1      44.646 -19.936   5.124  1.00  0.00    -0.352 OA
BRANCH  22  23
HETATM   23  C   UNL     1      44.048 -19.765   6.417  1.00  0.00     0.171 C 
HETATM   24  C   UNL     1      43.687 -21.134   6.964  1.00  0.00     0.034 C 
ENDBRANCH  22  23
ENDBRANCH  19  22
ENDBRANCH  15  16
ENDBRANCH   1  14
BRANCH  13  25
HETATM   25  N   UNL     1      41.273 -15.550  -2.371  1.00  0.00    -0.383 N 
HETATM   26  H   UNL     1      42.148 -15.622  -2.881  1.00  0.00     0.157 HD
HETATM   27  H   UNL     1      40.759 -16.436  -2.433  1.00  0.00     0.157 HD
ENDBRANCH  13  25
BRANCH  12  28
HETATM   28  C   UNL     1      42.446 -12.794  -1.722  1.00  0.00     0.258 C 
HETATM   29  N   UNL     1      42.477 -11.490  -1.286  1.00  0.00    -0.352 N 
HETATM   30  H   UNL     1      41.835 -11.242  -0.540  1.00  0.00     0.163 HD
HETATM   31  O   UNL     1      43.044 -13.200  -2.712  1.00  0.00    -0.267 OA
BRANCH  29  32
HETATM   32  C   UNL     1      43.164 -10.422  -1.990  1.00  0.00     0.084 C 
HETATM   33  C   UNL     1      42.172  -9.637  -2.853  1.00  0.00     0.025 C 
HETATM   34  C   UNL     1      41.191  -8.827  -2.007  1.00  0.00     0.002 C 
HETATM   35  C   UNL     1      41.914  -7.909  -1.026  1.00  0.00     0.000 C 
HETATM   36  C   UNL     1      42.911  -8.668  -0.154  1.00  0.00     0.002 C 
HETATM   37  C   UNL     1      43.880  -9.502  -0.992  1.00  0.00     0.025 C 
ENDBRANCH  29  32
ENDBRANCH  12  28
TORSDOF 7
ENDMDL
MODEL 2
REMARK VINA RESULT:      -8.4      4.563      8.867
REMARK  7 active torsions:
REMARK  status: ('A' for Active; 'I' for Inactive)
REMARK    1  A    between atoms: C_2  and  O_3 
REMARK    2  A    between atoms: O_3  and  C_4 
REMARK    3  A    between atoms: C_7  and  C_8 
REMARK    4  A    between atoms: N_9  and  N_10 
REMARK    5  A    between atoms: C_21  and  C_22 
REMARK       I    between atoms: C_22  and  N_23 
REMARK    6  A    between atoms: N_23  and  C_24 
REMARK    7  A    between atoms: C_31  and  N_32 
ROOT
HETATM    1  N   UNL     1      42.180 -13.840   5.496  1.00  0.00    -0.197 N 
HETATM    2  C   UNL     1      42.731 -15.113   5.601  1.00  0.00     0.183 A 
HETATM    3  C   UNL     1      43.791 -15.019   6.494  1.00  0.00     0.125 A 
HETATM    4  N   UNL     1      44.639 -16.057   6.714  1.00  0.00    -0.242 NA
HETATM    5  C   UNL     1      44.307 -17.186   6.072  1.00  0.00     0.086 A 
HETATM    6  C   UNL     1      43.198 -17.276   5.187  1.00  0.00     0.088 A 
HETATM    7  N   UNL     1      42.403 -16.225   4.902  1.00  0.00    -0.225 NA
HETATM    8  C   UNL     1      45.084 -18.313   6.309  1.00  0.00     0.034 A 
HETATM    9  C   UNL     1      44.790 -19.539   5.714  1.00  0.00     0.002 A 
HETATM   10  C   UNL     1      43.700 -19.636   4.861  1.00  0.00     0.002 A 
HETATM   11  C   UNL     1      42.919 -18.505   4.603  1.00  0.00     0.034 A 
HETATM   12  C   UNL     1      43.805 -13.718   7.044  1.00  0.00     0.110 C 
HETATM   13  C   UNL     1      42.654 -13.090   6.594  1.00  0.00     0.143 C 
ENDROOT
BRANCH   1  14
HETATM   14  N   UNL     1      41.781 -13.286   4.297  1.00  0.00    -0.176 NA
HETATM   15  C   UNL     1      42.693 -13.254   3.384  1.00  0.00     0.150 C 
BRANCH  15  16
HETATM   16  C   UNL     1      42.362 -13.522   1.970  1.00  0.00    -0.017 A 
HETATM   17  C   UNL     1      41.930 -12.460   1.164  1.00  0.00     0.016 A 
HETATM   18  C   UNL     1      41.245 -12.722  -0.023  1.00  0.00     0.037 A 
HETATM   19  C   UNL     1      40.992 -14.042  -0.398  1.00  0.00     0.068 A 
HETATM   20  C   UNL     1      41.517 -15.097   0.352  1.00  0.00     0.037 A 
HETATM   21  C   UNL     1      42.188 -14.841   1.551  1.00  0.00     0.016 A 
BRANCH  19  22
HETATM   22  O   UNL     1      40.221 -14.384  -1.476  1.00  0.00    -0.352 OA
BRANCH  22  23
HETATM   23  C   UNL     1      40.846 -15.352  -2.331  1.00  0.00     0.171 C 
HETATM   24  C   UNL     1      39.891 -15.681  -3.463  1.00  0.00     0.034 C 
ENDBRANCH  22  23
ENDBRANCH  19  22
ENDBRANCH  15  16
ENDBRANCH   1  14
BRANCH  13  25
HETATM   25  N   UNL     1      42.178 -11.862   6.951  1.00  0.00    -0.383 N 
HETATM   26  H   UNL     1      41.300 -11.531   6.561  1.00  0.00     0.157 HD
HETATM   27  H   UNL     1      42.219 -11.643   7.953  1.00  0.00     0.157 HD
ENDBRANCH  13  25
BRANCH  12  28
HETATM   28  C   UNL     1      44.812 -13.112   7.894  1.00  0.00     0.258 C 
HETATM   29  N   UNL     1      44.337 -12.792   9.143  1.00  0.00    -0.352 N 
HETATM   30  H   UNL     1      43.329 -12.808   9.267  1.00  0.00     0.163 HD
HETATM   31  O   UNL     1      45.984 -12.984   7.553  1.00  0.00    -0.267 OA
BRANCH  29  32
HETATM   32  C   UNL     1      45.151 -12.193  10.186  1.00  0.00     0.084 C 
HETATM   33  C   UNL     1      45.157 -10.669  10.039  1.00  0.00     0.025 C 
HETATM   34  C   UNL     1      43.795 -10.056  10.363  1.00  0.00     0.002 C 
HETATM   35  C   UNL     1      43.299 -10.475  11.744  1.00  0.00     0.000 C 
HETATM   36  C   UNL     1      43.286 -11.992  11.916  1.00  0.00     0.002 C 
HETATM   37  C   UNL     1      44.638 -12.616  11.569  1.00  0.00     0.025 C 
ENDBRANCH  29  32
ENDBRANCH  12  28
TORSDOF 7
ENDMDL
MODEL 3
REMARK VINA RESULT:      -8.2      3.320      5.314
REMARK  7 active torsions:
REMARK  status: ('A' for Active; 'I' for Inactive)
REMARK    1  A    between atoms: C_2  and  O_3 
REMARK    2  A    between atoms: O_3  and  C_4 
REMARK    3  A    between atoms: C_7  and  C_8 
REMARK    4  A    between atoms: N_9  and  N_10 
REMARK    5  A    between atoms: C_21  and  C_22 
REMARK       I    between atoms: C_22  and  N_23 
REMARK    6  A    between atoms: N_23  and  C_24 
REMARK    7  A    between atoms: C_31  and  N_32 
ROOT
HETATM    1  N   UNL     1      41.599 -13.537   1.217  1.00  0.00    -0.197 N 
HETATM    2  C   UNL     1      40.874 -13.845   0.071  1.00  0.00     0.183 A 
HETATM    3  C   UNL     1      39.645 -13.212   0.192  1.00  0.00     0.125 A 
HETATM    4  N   UNL     1      38.636 -13.424  -0.694  1.00  0.00    -0.242 NA
HETATM    5  C   UNL     1      38.966 -14.213  -1.725  1.00  0.00     0.086 A 
HETATM    6  C   UNL     1      40.242 -14.828  -1.853  1.00  0.00     0.088 A 
HETATM    7  N   UNL     1      41.217 -14.686  -0.934  1.00  0.00    -0.225 NA
HETATM    8  C   UNL     1      38.011 -14.413  -2.714  1.00  0.00     0.034 A 
HETATM    9  C   UNL     1      38.279 -15.188  -3.841  1.00  0.00     0.002 A 
HETATM   10  C   UNL     1      39.528 -15.778  -3.978  1.00  0.00     0.002 A 
HETATM   11  C   UNL     1      40.493 -15.596  -2.983  1.00  0.00     0.034 A 
HETATM   12  C   UNL     1      39.665 -12.401   1.348  1.00  0.00     0.110 C 
HETATM   13  C   UNL     1      40.966 -12.432   1.825  1.00  0.00     0.143 C 
ENDROOT
BRANCH   1  14
HETATM   14  N   UNL     1      42.363 -14.461   1.901  1.00  0.00    -0.176 NA
HETATM   15  C   UNL     1      41.703 -15.465   2.374  1.00  0.00     0.150 C 
BRANCH  15  16
HETATM   16  C   UNL     1      42.273 -16.828   2.351  1.00  0.00    -0.017 A 
HETATM   17  C   UNL     1      42.241 -17.593   3.524  1.00  0.00     0.016 A 
HETATM   18  C   UNL     1      43.093 -18.689   3.663  1.00  0.00     0.037 A 
HETATM   19  C   UNL     1      43.975 -19.013   2.632  1.00  0.00     0.068 A 
HETATM   20  C   UNL     1      43.928 -18.315   1.423  1.00  0.00     0.037 A 
HETATM   21  C   UNL     1      43.090 -17.205   1.285  1.00  0.00     0.016 A 
BRANCH  19  22
HETATM   22  O   UNL     1      44.929 -19.990   2.736  1.00  0.00    -0.352 OA
BRANCH  22  23
HETATM   23  C   UNL     1      44.376 -21.293   2.972  1.00  0.00     0.171 C 
HETATM   24  C   UNL     1      44.012 -21.909   1.634  1.00  0.00     0.034 C 
ENDBRANCH  22  23
ENDBRANCH  19  22
ENDBRANCH  15  16
ENDBRANCH   1  14
BRANCH  13  25
HETATM   25  N   UNL     1      41.496 -11.711   2.856  1.00  0.00    -0.383 N 
HETATM   26  H   UNL     1      41.156 -10.771   3.038  1.00  0.00     0.157 HD
HETATM   27  H   UNL     1      41.611 -12.218   3.741  1.00  0.00     0.157 HD
ENDBRANCH  13  25
BRANCH  12  28
HETATM   28  C   UNL     1      38.565 -11.681   1.961  1.00  0.00     0.258 C 
HETATM   29  N   UNL     1      37.599 -11.307   1.058  1.00  0.00    -0.352 N 
HETATM   30  H   UNL     1      37.843 -11.375   0.074  1.00  0.00     0.163 HD
HETATM   31  O   UNL     1      38.474 -11.506   3.172  1.00  0.00    -0.267 OA
BRANCH  29  32
HETATM   32  C   UNL     1      36.389 -10.593   1.421  1.00  0.00     0.084 C 
HETATM   33  C   UNL     1      36.569  -9.092   1.179  1.00  0.00     0.025 C 
HETATM   34  C   UNL     1      36.653  -8.757  -0.310  1.00  0.00     0.002 C 
HETATM   35  C   UNL     1      35.453  -9.300  -1.081  1.00  0.00     0.000 C 
HETATM   36  C   UNL     1      35.249 -10.796  -0.853  1.00  0.00     0.002 C 
HETATM   37  C   UNL     1      35.190 -11.143   0.635  1.00  0.00     0.025 C 
ENDBRANCH  29  32
ENDBRANCH  12  28
TORSDOF 7
ENDMDL
MODEL 4
REMARK VINA RESULT:      -8.2      4.906      7.872
REMARK  7 active torsions:
REMARK  status: ('A' for Active; 'I' for Inactive)
REMARK    1  A    between atoms: C_2  and  O_3 
REMARK    2  A    between atoms: O_3  and  C_4 
REMARK    3  A    between atoms: C_7  and  C_8 
REMARK    4  A    between atoms: N_9  and  N_10 
REMARK    5  A    between atoms: C_21  and  C_22 
REMARK       I    between atoms: C_22  and  N_23 
REMARK    6  A    between atoms: N_23  and  C_24 
REMARK    7  A    between atoms: C_31  and  N_32 
ROOT
HETATM    1  N   UNL     1      42.998 -13.882   5.880  1.00  0.00    -0.197 N 
HETATM    2  C   UNL     1      42.231 -12.730   6.004  1.00  0.00     0.183 A 
HETATM    3  C   UNL     1      42.682 -12.066   7.137  1.00  0.00     0.125 A 
HETATM    4  N   UNL     1      42.048 -10.970   7.629  1.00  0.00    -0.242 NA
HETATM    5  C   UNL     1      41.022 -10.545   6.880  1.00  0.00     0.086 A 
HETATM    6  C   UNL     1      40.592 -11.216   5.703  1.00  0.00     0.088 A 
HETATM    7  N   UNL     1      41.167 -12.350   5.256  1.00  0.00    -0.225 NA
HETATM    8  C   UNL     1      40.373  -9.383   7.278  1.00  0.00     0.034 A 
HETATM    9  C   UNL     1      39.320  -8.846   6.539  1.00  0.00     0.002 A 
HETATM   10  C   UNL     1      38.906  -9.488   5.381  1.00  0.00     0.002 A 
HETATM   11  C   UNL     1      39.542 -10.666   4.977  1.00  0.00     0.034 A 
HETATM   12  C   UNL     1      43.821 -12.740   7.632  1.00  0.00     0.110 C 
HETATM   13  C   UNL     1      44.137 -13.713   6.697  1.00  0.00     0.143 C 
ENDROOT
BRANCH   1  14
HETATM   14  N   UNL     1      42.470 -15.110   5.538  1.00  0.00    -0.176 NA
HETATM   15  C   UNL     1      42.720 -15.489   4.329  1.00  0.00     0.150 C 
BRANCH  15  16
HETATM   16  C   UNL     1      43.024 -16.902   4.024  1.00  0.00    -0.017 A 
HETATM   17  C   UNL     1      43.517 -17.724   5.047  1.00  0.00     0.016 A 
HETATM   18  C   UNL     1      44.176 -18.911   4.729  1.00  0.00     0.037 A 
HETATM   19  C   UNL     1      44.343 -19.271   3.392  1.00  0.00     0.068 A 
HETATM   20  C   UNL     1      43.759 -18.506   2.380  1.00  0.00     0.037 A 
HETATM   21  C   UNL     1      43.113 -17.306   2.692  1.00  0.00     0.016 A 
BRANCH  19  22
HETATM   22  O   UNL     1      45.085 -20.350   2.990  1.00  0.00    -0.352 OA
BRANCH  22  23
HETATM   23  C   UNL     1      44.336 -21.573   2.975  1.00  0.00     0.171 C 
HETATM   24  C   UNL     1      44.035 -21.934   1.531  1.00  0.00     0.034 C 
ENDBRANCH  22  23
ENDBRANCH  19  22
ENDBRANCH  15  16
ENDBRANCH   1  14
BRANCH  13  25
HETATM   25  N   UNL     1      45.224 -14.538   6.684  1.00  0.00    -0.383 N 
HETATM   26  H   UNL     1      45.359 -15.204   7.440  1.00  0.00     0.157 HD
HETATM   27  H   UNL     1      45.433 -14.986   5.785  1.00  0.00     0.157 HD
ENDBRANCH  13  25
BRANCH  12  28
HETATM   28  C   UNL     1      44.533 -12.509   8.875  1.00  0.00     0.258 C 
HETATM   29  N   UNL     1      43.725 -12.018   9.872  1.00  0.00    -0.352 N 
HETATM   30  H   UNL     1      42.810 -11.677   9.593  1.00  0.00     0.163 HD
HETATM   31  O   UNL     1      45.713 -12.806   9.033  1.00  0.00    -0.267 OA
BRANCH  29  32
HETATM   32  C   UNL     1      44.192 -11.721  11.214  1.00  0.00     0.084 C 
HETATM   33  C   UNL     1      44.452 -10.220  11.362  1.00  0.00     0.025 C 
HETATM   34  C   UNL     1      43.158  -9.407  11.332  1.00  0.00     0.002 C 
HETATM   35  C   UNL     1      42.157  -9.898  12.374  1.00  0.00     0.000 C 
HETATM   36  C   UNL     1      41.882 -11.395  12.249  1.00  0.00     0.002 C 
HETATM   37  C   UNL     1      43.174 -12.213  12.252  1.00  0.00     0.025 C 
ENDBRANCH  29  32
ENDBRANCH  12  28
TORSDOF 7
ENDMDL
MODEL 5
REMARK VINA RESULT:      -7.8      3.964      8.233
REMARK  7 active torsions:
REMARK  status: ('A' for Active; 'I' for Inactive)
REMARK    1  A    between atoms: C_2  and  O_3 
REMARK    2  A    between atoms: O_3  and  C_4 
REMARK    3  A    between atoms: C_7  and  C_8 
REMARK    4  A    between atoms: N_9  and  N_10 
REMARK    5  A    between atoms: C_21  and  C_22 
REMARK       I    between atoms: C_22  and  N_23 
REMARK    6  A    between atoms: N_23  and  C_24 
REMARK    7  A    between atoms: C_31  and  N_32 
ROOT
HETATM    1  N   UNL     1      39.976 -13.802   4.781  1.00  0.00    -0.197 N 
HETATM    2  C   UNL     1      41.015 -14.628   5.195  1.00  0.00     0.183 A 
HETATM    3  C   UNL     1      41.853 -13.853   5.985  1.00  0.00     0.125 A 
HETATM    4  N   UNL     1      43.049 -14.317   6.436  1.00  0.00    -0.242 NA
HETATM    5  C   UNL     1      43.293 -15.599   6.129  1.00  0.00     0.086 A 
HETATM    6  C   UNL     1      42.408 -16.390   5.346  1.00  0.00     0.088 A 
HETATM    7  N   UNL     1      41.261 -15.908   4.828  1.00  0.00    -0.225 NA
HETATM    8  C   UNL     1      44.461 -16.167   6.622  1.00  0.00     0.034 A 
HETATM    9  C   UNL     1      44.779 -17.503   6.384  1.00  0.00     0.002 A 
HETATM   10  C   UNL     1      43.911 -18.284   5.633  1.00  0.00     0.002 A 
HETATM   11  C   UNL     1      42.740 -17.720   5.119  1.00  0.00     0.034 A 
HETATM   12  C   UNL     1      41.256 -12.587   6.172  1.00  0.00     0.110 C 
HETATM   13  C   UNL     1      39.987 -12.668   5.621  1.00  0.00     0.143 C 
ENDROOT
BRANCH   1  14
HETATM   14  N   UNL     1      39.472 -13.805   3.496  1.00  0.00    -0.176 NA
HETATM   15  C   UNL     1      40.346 -13.591   2.571  1.00  0.00     0.150 C 
BRANCH  15  16
HETATM   16  C   UNL     1      40.290 -14.321   1.289  1.00  0.00    -0.017 A 
HETATM   17  C   UNL     1      41.154 -15.407   1.090  1.00  0.00     0.016 A 
HETATM   18  C   UNL     1      41.414 -15.861  -0.203  1.00  0.00     0.037 A 
HETATM   19  C   UNL     1      40.814 -15.228  -1.291  1.00  0.00     0.068 A 
HETATM   20  C   UNL     1      39.871 -14.218  -1.084  1.00  0.00     0.037 A 
HETATM   21  C   UNL     1      39.620 -13.747   0.208  1.00  0.00     0.016 A 
BRANCH  19  22
HETATM   22  O   UNL     1      41.111 -15.526  -2.594  1.00  0.00    -0.352 OA
BRANCH  22  23
HETATM   23  C   UNL     1      40.128 -15.043  -3.520  1.00  0.00     0.171 C 
HETATM   24  C   UNL     1      39.287 -16.218  -3.984  1.00  0.00     0.034 C 
ENDBRANCH  22  23
ENDBRANCH  19  22
ENDBRANCH  15  16
ENDBRANCH   1  14
BRANCH  13  25
HETATM   25  N   UNL     1      38.997 -11.729   5.662  1.00  0.00    -0.383 N 
HETATM   26  H   UNL     1      38.291 -11.775   6.391  1.00  0.00     0.157 HD
HETATM   27  H   UNL     1      39.299 -10.757   5.531  1.00  0.00     0.157 HD
ENDBRANCH  13  25
BRANCH  12  28
HETATM   28  C   UNL     1      41.829 -11.405   6.789  1.00  0.00     0.258 C 
HETATM   29  N   UNL     1      42.530 -11.687   7.938  1.00  0.00    -0.352 N 
HETATM   30  H   UNL     1      42.400 -12.611   8.337  1.00  0.00     0.163 HD
HETATM   31  O   UNL     1      41.761 -10.289   6.284  1.00  0.00    -0.267 OA
BRANCH  29  32
HETATM   32  C   UNL     1      43.213 -10.681   8.731  1.00  0.00     0.084 C 
HETATM   33  C   UNL     1      42.259 -10.098   9.777  1.00  0.00     0.025 C 
HETATM   34  C   UNL     1      41.905 -11.115  10.862  1.00  0.00     0.002 C 
HETATM   35  C   UNL     1      43.153 -11.699  11.518  1.00  0.00     0.000 C 
HETATM   36  C   UNL     1      44.122 -12.286  10.495  1.00  0.00     0.002 C 
HETATM   37  C   UNL     1      44.461 -11.283   9.392  1.00  0.00     0.025 C 
ENDBRANCH  29  32
ENDBRANCH  12  28
TORSDOF 7
ENDMDL
MODEL 6
REMARK VINA RESULT:      -7.7      4.303      8.268
REMARK  7 active torsions:
REMARK  status: ('A' for Active; 'I' for Inactive)
REMARK    1  A    between atoms: C_2  and  O_3 
REMARK    2  A    between atoms: O_3  and  C_4 
REMARK    3  A    between atoms: C_7  and  C_8 
REMARK    4  A    between atoms: N_9  and  N_10 
REMARK    5  A    between atoms: C_21  and  C_22 
REMARK       I    between atoms: C_22  and  N_23 
REMARK    6  A    between atoms: N_23  and  C_24 
REMARK    7  A    between atoms: C_31  and  N_32 
ROOT
HETATM    1  N   UNL     1      40.579 -11.928   5.388  1.00  0.00    -0.197 N 
HETATM    2  C   UNL     1      40.690 -11.798   4.008  1.00  0.00     0.183 A 
HETATM    3  C   UNL     1      40.781 -13.083   3.490  1.00  0.00     0.125 A 
HETATM    4  N   UNL     1      41.046 -13.312   2.177  1.00  0.00    -0.242 NA
HETATM    5  C   UNL     1      41.116 -12.203   1.428  1.00  0.00     0.086 A 
HETATM    6  C   UNL     1      40.986 -10.894   1.968  1.00  0.00     0.088 A 
HETATM    7  N   UNL     1      40.806 -10.660   3.283  1.00  0.00    -0.225 NA
HETATM    8  C   UNL     1      41.307 -12.361   0.061  1.00  0.00     0.034 A 
HETATM    9  C   UNL     1      41.354 -11.266  -0.800  1.00  0.00     0.002 A 
HETATM   10  C   UNL     1      41.213  -9.986  -0.280  1.00  0.00     0.002 A 
HETATM   11  C   UNL     1      41.035  -9.814   1.096  1.00  0.00     0.034 A 
HETATM   12  C   UNL     1      40.587 -14.009   4.539  1.00  0.00     0.110 C 
HETATM   13  C   UNL     1      40.221 -13.268   5.652  1.00  0.00     0.143 C 
ENDROOT
BRANCH   1  14
HETATM   14  N   UNL     1      41.251 -11.119   6.281  1.00  0.00    -0.176 NA
HETATM   15  C   UNL     1      40.523 -10.644   7.236  1.00  0.00     0.150 C 
BRANCH  15  16
HETATM   16  C   UNL     1      41.054 -10.526   8.609  1.00  0.00    -0.017 A 
HETATM   17  C   UNL     1      42.442 -10.481   8.796  1.00  0.00     0.016 A 
HETATM   18  C   UNL     1      42.985 -10.766  10.048  1.00  0.00     0.037 A 
HETATM   19  C   UNL     1      42.141 -11.097  11.108  1.00  0.00     0.068 A 
HETATM   20  C   UNL     1      40.755 -11.037  10.946  1.00  0.00     0.037 A 
HETATM   21  C   UNL     1      40.205 -10.770   9.689  1.00  0.00     0.016 A 
BRANCH  19  22
HETATM   22  O   UNL     1      42.595 -11.513  12.331  1.00  0.00    -0.352 OA
BRANCH  22  23
HETATM   23  C   UNL     1      42.222 -10.629  13.399  1.00  0.00     0.171 C 
HETATM   24  C   UNL     1      43.307  -9.579  13.554  1.00  0.00     0.034 C 
ENDBRANCH  22  23
ENDBRANCH  19  22
ENDBRANCH  15  16
ENDBRANCH   1  14
BRANCH  13  25
HETATM   25  N   UNL     1      39.821 -13.733   6.871  1.00  0.00    -0.383 N 
HETATM   26  H   UNL     1      39.083 -14.430   6.926  1.00  0.00     0.157 HD
HETATM   27  H   UNL     1      40.575 -13.973   7.526  1.00  0.00     0.157 HD
ENDBRANCH  13  25
BRANCH  12  28
HETATM   28  C   UNL     1      40.748 -15.450   4.508  1.00  0.00     0.258 C 
HETATM   29  N   UNL     1      41.155 -15.917   3.281  1.00  0.00    -0.352 N 
HETATM   30  H   UNL     1      41.093 -15.269   2.501  1.00  0.00     0.163 HD
HETATM   31  O   UNL     1      40.617 -16.158   5.501  1.00  0.00    -0.267 OA
BRANCH  29  32
HETATM   32  C   UNL     1      41.407 -17.318   2.995  1.00  0.00     0.084 C 
HETATM   33  C   UNL     1      41.198 -17.598   1.504  1.00  0.00     0.025 C 
HETATM   34  C   UNL     1      42.275 -16.940   0.641  1.00  0.00     0.002 C 
HETATM   35  C   UNL     1      43.679 -17.339   1.086  1.00  0.00     0.000 C 
HETATM   36  C   UNL     1      43.911 -17.073   2.571  1.00  0.00     0.002 C 
HETATM   37  C   UNL     1      42.824 -17.706   3.440  1.00  0.00     0.025 C 
ENDBRANCH  29  32
ENDBRANCH  12  28
TORSDOF 7
ENDMDL
MODEL 7
REMARK VINA RESULT:      -7.7      3.941      6.824
REMARK  7 active torsions:
REMARK  status: ('A' for Active; 'I' for Inactive)
REMARK    1  A    between atoms: C_2  and  O_3 
REMARK    2  A    between atoms: O_3  and  C_4 
REMARK    3  A    between atoms: C_7  and  C_8 
REMARK    4  A    between atoms: N_9  and  N_10 
REMARK    5  A    between atoms: C_21  and  C_22 
REMARK       I    between atoms: C_22  and  N_23 
REMARK    6  A    between atoms: N_23  and  C_24 
REMARK    7  A    between atoms: C_31  and  N_32 
ROOT
HETATM    1  N   UNL     1      43.135 -14.992   3.889  1.00  0.00    -0.197 N 
HETATM    2  C   UNL     1      43.317 -16.312   3.492  1.00  0.00     0.183 A 
HETATM    3  C   UNL     1      42.590 -16.484   2.322  1.00  0.00     0.125 A 
HETATM    4  N   UNL     1      42.435 -17.704   1.744  1.00  0.00    -0.242 NA
HETATM    5  C   UNL     1      43.114 -18.689   2.347  1.00  0.00     0.086 A 
HETATM    6  C   UNL     1      43.883 -18.491   3.526  1.00  0.00     0.088 A 
HETATM    7  N   UNL     1      43.972 -17.299   4.149  1.00  0.00    -0.225 NA
HETATM    8  C   UNL     1      43.067 -19.951   1.768  1.00  0.00     0.034 A 
HETATM    9  C   UNL     1      43.773 -21.026   2.305  1.00  0.00     0.002 A 
HETATM   10  C   UNL     1      44.537 -20.835   3.447  1.00  0.00     0.002 A 
HETATM   11  C   UNL     1      44.581 -19.573   4.048  1.00  0.00     0.034 A 
HETATM   12  C   UNL     1      42.072 -15.232   1.924  1.00  0.00     0.110 C 
HETATM   13  C   UNL     1      42.628 -14.289   2.775  1.00  0.00     0.143 C 
ENDROOT
BRANCH   1  14
HETATM   14  N   UNL     1      42.919 -14.619   5.200  1.00  0.00    -0.176 NA
HETATM   15  C   UNL     1      43.987 -14.313   5.858  1.00  0.00     0.150 C 
BRANCH  15  16
HETATM   16  C   UNL     1      43.990 -13.192   6.820  1.00  0.00    -0.017 A 
HETATM   17  C   UNL     1      44.895 -13.223   7.890  1.00  0.00     0.016 A 
HETATM   18  C   UNL     1      44.676 -12.421   9.010  1.00  0.00     0.037 A 
HETATM   19  C   UNL     1      43.552 -11.595   9.059  1.00  0.00     0.068 A 
HETATM   20  C   UNL     1      42.712 -11.487   7.948  1.00  0.00     0.037 A 
HETATM   21  C   UNL     1      42.917 -12.301   6.830  1.00  0.00     0.016 A 
BRANCH  19  22
HETATM   22  O   UNL     1      43.194 -10.875  10.167  1.00  0.00    -0.352 OA
BRANCH  22  23
HETATM   23  C   UNL     1      44.173 -10.932  11.215  1.00  0.00     0.171 C 
HETATM   24  C   UNL     1      43.699 -10.060  12.362  1.00  0.00     0.034 C 
ENDBRANCH  22  23
ENDBRANCH  19  22
ENDBRANCH  15  16
ENDBRANCH   1  14
BRANCH  13  25
HETATM   25  N   UNL     1      42.512 -12.931   2.707  1.00  0.00    -0.383 N 
HETATM   26  H   UNL     1      42.586 -12.465   1.807  1.00  0.00     0.157 HD
HETATM   27  H   UNL     1      41.743 -12.522   3.250  1.00  0.00     0.157 HD
ENDBRANCH  13  25
BRANCH  12  28
HETATM   28  C   UNL     1      41.129 -14.947   0.859  1.00  0.00     0.258 C 
HETATM   29  N   UNL     1      41.735 -14.485  -0.285  1.00  0.00    -0.352 N 
HETATM   30  H   UNL     1      42.706 -14.198  -0.204  1.00  0.00     0.163 HD
HETATM   31  O   UNL     1      39.927 -15.178   0.951  1.00  0.00    -0.267 OA
BRANCH  29  32
HETATM   32  C   UNL     1      41.014 -14.147  -1.499  1.00  0.00     0.084 C 
HETATM   33  C   UNL     1      40.249 -12.834  -1.309  1.00  0.00     0.025 C 
HETATM   34  C   UNL     1      41.189 -11.633  -1.199  1.00  0.00     0.002 C 
HETATM   35  C   UNL     1      42.141 -11.550  -2.389  1.00  0.00     0.000 C 
HETATM   36  C   UNL     1      42.914 -12.848  -2.602  1.00  0.00     0.002 C 
HETATM   37  C   UNL     1      41.983 -14.058  -2.686  1.00  0.00     0.025 C 
ENDBRANCH  29  32
ENDBRANCH  12  28
TORSDOF 7
ENDMDL
MODEL 8
REMARK VINA RESULT:      -7.6      3.536      7.125
REMARK  7 active torsions:
REMARK  status: ('A' for Active; 'I' for Inactive)
REMARK    1  A    between atoms: C_2  and  O_3 
REMARK    2  A    between atoms: O_3  and  C_4 
REMARK    3  A    between atoms: C_7  and  C_8 
REMARK    4  A    between atoms: N_9  and  N_10 
REMARK    5  A    between atoms: C_21  and  C_22 
REMARK       I    between atoms: C_22  and  N_23 
REMARK    6  A    between atoms: N_23  and  C_24 
REMARK    7  A    between atoms: C_31  and  N_32 
ROOT
HETATM    1  N   UNL     1      41.466 -14.102   3.898  1.00  0.00    -0.197 N 
HETATM    2  C   UNL     1      41.975 -15.332   3.498  1.00  0.00     0.183 A 
HETATM    3  C   UNL     1      41.358 -15.650   2.296  1.00  0.00     0.125 A 
HETATM    4  N   UNL     1      41.523 -16.861   1.702  1.00  0.00    -0.242 NA
HETATM    5  C   UNL     1      42.393 -17.667   2.325  1.00  0.00     0.086 A 
HETATM    6  C   UNL     1      43.044 -17.313   3.538  1.00  0.00     0.088 A 
HETATM    7  N   UNL     1      42.820 -16.146   4.175  1.00  0.00    -0.225 NA
HETATM    8  C   UNL     1      42.673 -18.892   1.733  1.00  0.00     0.034 A 
HETATM    9  C   UNL     1      43.593 -19.778   2.291  1.00  0.00     0.002 A 
HETATM   10  C   UNL     1      44.243 -19.432   3.467  1.00  0.00     0.002 A 
HETATM   11  C   UNL     1      43.959 -18.207   4.080  1.00  0.00     0.034 A 
HETATM   12  C   UNL     1      40.572 -14.551   1.887  1.00  0.00     0.110 C 
HETATM   13  C   UNL     1      40.851 -13.519   2.769  1.00  0.00     0.143 C 
ENDROOT
BRANCH   1  14
HETATM   14  N   UNL     1      41.115 -13.815   5.202  1.00  0.00    -0.176 NA
HETATM   15  C   UNL     1      41.816 -12.885   5.759  1.00  0.00     0.150 C 
BRANCH  15  16
HETATM   16  C   UNL     1      41.187 -11.899   6.661  1.00  0.00    -0.017 A 
HETATM   17  C   UNL     1      42.009 -11.008   7.366  1.00  0.00     0.016 A 
HETATM   18  C   UNL     1      41.516 -10.349   8.492  1.00  0.00     0.037 A 
HETATM   19  C   UNL     1      40.207 -10.586   8.913  1.00  0.00     0.068 A 
HETATM   20  C   UNL     1      39.359 -11.391   8.148  1.00  0.00     0.037 A 
HETATM   21  C   UNL     1      39.852 -12.067   7.029  1.00  0.00     0.016 A 
BRANCH  19  22
HETATM   22  O   UNL     1      39.686 -10.082  10.074  1.00  0.00    -0.352 OA
BRANCH  22  23
HETATM   23  C   UNL     1      40.623 -10.092  11.161  1.00  0.00     0.171 C 
HETATM   24  C   UNL     1      40.153 -11.103  12.191  1.00  0.00     0.034 C 
ENDBRANCH  22  23
ENDBRANCH  19  22
ENDBRANCH  15  16
ENDBRANCH   1  14
BRANCH  13  25
HETATM   25  N   UNL     1      40.417 -12.227   2.708  1.00  0.00    -0.383 N 
HETATM   26  H   UNL     1      40.865 -11.576   2.069  1.00  0.00     0.157 HD
HETATM   27  H   UNL     1      39.399 -12.100   2.678  1.00  0.00     0.157 HD
ENDBRANCH  13  25
BRANCH  12  28
HETATM   28  C   UNL     1      39.631 -14.479   0.784  1.00  0.00     0.258 C 
HETATM   29  N   UNL     1      40.229 -14.644  -0.442  1.00  0.00    -0.352 N 
HETATM   30  H   UNL     1      41.243 -14.584  -0.469  1.00  0.00     0.163 HD
HETATM   31  O   UNL     1      38.420 -14.369   0.946  1.00  0.00    -0.267 OA
BRANCH  29  32
HETATM   32  C   UNL     1      39.504 -14.634  -1.700  1.00  0.00     0.084 C 
HETATM   33  C   UNL     1      39.189 -13.194  -2.115  1.00  0.00     0.025 C 
HETATM   34  C   UNL     1      40.447 -12.423  -2.512  1.00  0.00     0.002 C 
HETATM   35  C   UNL     1      41.237 -13.149  -3.598  1.00  0.00     0.000 C 
HETATM   36  C   UNL     1      41.561 -14.589  -3.209  1.00  0.00     0.002 C 
HETATM   37  C   UNL     1      40.311 -15.360  -2.785  1.00  0.00     0.025 C 
ENDBRANCH  29  32
ENDBRANCH  12  28
TORSDOF 7
ENDMDL
MODEL 9
REMARK VINA RESULT:      -7.6      3.445      7.809
REMARK  7 active torsions:
REMARK  status: ('A' for Active; 'I' for Inactive)
REMARK    1  A    between atoms: C_2  and  O_3 
REMARK    2  A    between atoms: O_3  and  C_4 
REMARK    3  A    between atoms: C_7  and  C_8 
REMARK    4  A    between atoms: N_9  and  N_10 
REMARK    5  A    between atoms: C_21  and  C_22 
REMARK       I    between atoms: C_22  and  N_23 
REMARK    6  A    between atoms: N_23  and  C_24 
REMARK    7  A    between atoms: C_31  and  N_32 
ROOT
HETATM    1  N   UNL     1      39.987 -13.886   3.850  1.00  0.00    -0.197 N 
HETATM    2  C   UNL     1      40.980 -14.599   4.512  1.00  0.00     0.183 A 
HETATM    3  C   UNL     1      41.606 -13.710   5.374  1.00  0.00     0.125 A 
HETATM    4  N   UNL     1      42.723 -14.049   6.070  1.00  0.00    -0.242 NA
HETATM    5  C   UNL     1      43.098 -15.326   5.921  1.00  0.00     0.086 A 
HETATM    6  C   UNL     1      42.426 -16.236   5.059  1.00  0.00     0.088 A 
HETATM    7  N   UNL     1      41.367 -15.880   4.304  1.00  0.00    -0.225 NA
HETATM    8  C   UNL     1      44.187 -15.768   6.663  1.00  0.00     0.034 A 
HETATM    9  C   UNL     1      44.625 -17.090   6.598  1.00  0.00     0.002 A 
HETATM   10  C   UNL     1      43.962 -17.986   5.771  1.00  0.00     0.002 A 
HETATM   11  C   UNL     1      42.875 -17.550   5.008  1.00  0.00     0.034 A 
HETATM   12  C   UNL     1      40.908 -12.482   5.343  1.00  0.00     0.110 C 
HETATM   13  C   UNL     1      39.771 -12.698   4.581  1.00  0.00     0.143 C 
ENDROOT
BRANCH   1  14
HETATM   14  N   UNL     1      39.732 -14.018   2.500  1.00  0.00    -0.176 NA
HETATM   15  C   UNL     1      40.519 -13.342   1.732  1.00  0.00     0.150 C 
BRANCH  15  16
HETATM   16  C   UNL     1      40.999 -13.903   0.452  1.00  0.00    -0.017 A 
HETATM   17  C   UNL     1      41.173 -13.043  -0.640  1.00  0.00     0.016 A 
HETATM   18  C   UNL     1      41.235 -13.563  -1.933  1.00  0.00     0.037 A 
HETATM   19  C   UNL     1      41.119 -14.939  -2.129  1.00  0.00     0.068 A 
HETATM   20  C   UNL     1      41.053 -15.802  -1.032  1.00  0.00     0.037 A 
HETATM   21  C   UNL     1      40.972 -15.285   0.264  1.00  0.00     0.016 A 
BRANCH  19  22
HETATM   22  O   UNL     1      41.042 -15.520  -3.367  1.00  0.00    -0.352 OA
BRANCH  22  23
HETATM   23  C   UNL     1      39.893 -16.366  -3.520  1.00  0.00     0.171 C 
HETATM   24  C   UNL     1      38.729 -15.514  -3.993  1.00  0.00     0.034 C 
ENDBRANCH  22  23
ENDBRANCH  19  22
ENDBRANCH  15  16
ENDBRANCH   1  14
BRANCH  13  25
HETATM   25  N   UNL     1      38.735 -11.836   4.363  1.00  0.00    -0.383 N 
HETATM   26  H   UNL     1      38.318 -11.775   3.438  1.00  0.00     0.157 HD
HETATM   27  H   UNL     1      37.998 -11.836   5.078  1.00  0.00     0.157 HD
ENDBRANCH  13  25
BRANCH  12  28
HETATM   28  C   UNL     1      41.281 -11.220   5.953  1.00  0.00     0.258 C 
HETATM   29  N   UNL     1      41.368 -11.292   7.323  1.00  0.00    -0.352 N 
HETATM   30  H   UNL     1      40.972 -12.116   7.764  1.00  0.00     0.163 HD
HETATM   31  O   UNL     1      41.571 -10.223   5.300  1.00  0.00    -0.267 OA
BRANCH  29  32
HETATM   32  C   UNL     1      41.743 -10.171   8.167  1.00  0.00     0.084 C 
HETATM   33  C   UNL     1      40.691  -9.063   8.069  1.00  0.00     0.025 C 
HETATM   34  C   UNL     1      39.368  -9.470   8.718  1.00  0.00     0.002 C 
HETATM   35  C   UNL     1      39.561  -9.921  10.162  1.00  0.00     0.000 C 
HETATM   36  C   UNL     1      40.608 -11.024  10.287  1.00  0.00     0.002 C 
HETATM   37  C   UNL     1      41.927 -10.636   9.618  1.00  0.00     0.025 C 
ENDBRANCH  29  32
ENDBRANCH  12  28
TORSDOF 7
ENDMDL
MODEL 10
REMARK VINA RESULT:      -7.6      3.403      8.437
REMARK  7 active torsions:
REMARK  status: ('A' for Active; 'I' for Inactive)
REMARK    1  A    between atoms: C_2  and  O_3 
REMARK    2  A    between atoms: O_3  and  C_4 
REMARK    3  A    between atoms: C_7  and  C_8 
REMARK    4  A    between atoms: N_9  and  N_10 
REMARK    5  A    between atoms: C_21  and  C_22 
REMARK       I    between atoms: C_22  and  N_23 
REMARK    6  A    between atoms: N_23  and  C_24 
REMARK    7  A    between atoms: C_31  and  N_32 
ROOT
HETATM    1  N   UNL     1      40.883 -16.406   4.126  1.00  0.00    -0.197 N 
HETATM    2  C   UNL     1      40.637 -15.983   2.824  1.00  0.00     0.183 A 
HETATM    3  C   UNL     1      41.665 -16.487   2.038  1.00  0.00     0.125 A 
HETATM    4  N   UNL     1      41.807 -16.138   0.732  1.00  0.00    -0.242 NA
HETATM    5  C   UNL     1      40.828 -15.354   0.261  1.00  0.00     0.086 A 
HETATM    6  C   UNL     1      39.763 -14.874   1.071  1.00  0.00     0.088 A 
HETATM    7  N   UNL     1      39.663 -15.150   2.386  1.00  0.00    -0.225 NA
HETATM    8  C   UNL     1      40.865 -15.020  -1.087  1.00  0.00     0.034 A 
HETATM    9  C   UNL     1      39.868 -14.239  -1.672  1.00  0.00     0.002 A 
HETATM   10  C   UNL     1      38.818 -13.781  -0.889  1.00  0.00     0.002 A 
HETATM   11  C   UNL     1      38.778 -14.098   0.472  1.00  0.00     0.034 A 
HETATM   12  C   UNL     1      42.468 -17.334   2.832  1.00  0.00     0.110 C 
HETATM   13  C   UNL     1      41.821 -17.458   4.051  1.00  0.00     0.143 C 
ENDROOT
BRANCH   1  14
HETATM   14  N   UNL     1      40.723 -15.591   5.229  1.00  0.00    -0.176 NA
HETATM   15  C   UNL     1      41.522 -14.578   5.274  1.00  0.00     0.150 C 
BRANCH  15  16
HETATM   16  C   UNL     1      41.054 -13.263   5.758  1.00  0.00    -0.017 A 
HETATM   17  C   UNL     1      42.004 -12.285   6.081  1.00  0.00     0.016 A 
HETATM   18  C   UNL     1      41.645 -11.209   6.893  1.00  0.00     0.037 A 
HETATM   19  C   UNL     1      40.342 -11.116   7.381  1.00  0.00     0.068 A 
HETATM   20  C   UNL     1      39.371 -12.033   6.970  1.00  0.00     0.037 A 
HETATM   21  C   UNL     1      39.729 -13.123   6.171  1.00  0.00     0.016 A 
BRANCH  19  22
HETATM   22  O   UNL     1      39.941 -10.167   8.283  1.00  0.00    -0.352 OA
BRANCH  22  23
HETATM   23  C   UNL     1      39.226 -10.718   9.398  1.00  0.00     0.171 C 
HETATM   24  C   UNL     1      40.220 -11.015  10.506  1.00  0.00     0.034 C 
ENDBRANCH  22  23
ENDBRANCH  19  22
ENDBRANCH  15  16
ENDBRANCH   1  14
BRANCH  13  25
HETATM   25  N   UNL     1      42.158 -18.266   5.098  1.00  0.00    -0.383 N 
HETATM   26  H   UNL     1      41.945 -19.258   5.056  1.00  0.00     0.157 HD
HETATM   27  H   UNL     1      43.100 -18.128   5.482  1.00  0.00     0.157 HD
ENDBRANCH  13  25
BRANCH  12  28
HETATM   28  C   UNL     1      43.734 -17.954   2.489  1.00  0.00     0.258 C 
HETATM   29  N   UNL     1      43.912 -19.177   3.089  1.00  0.00    -0.352 N 
HETATM   30  H   UNL     1      43.274 -19.414   3.843  1.00  0.00     0.163 HD
HETATM   31  O   UNL     1      44.517 -17.468   1.679  1.00  0.00    -0.267 OA
BRANCH  29  32
HETATM   32  C   UNL     1      45.086 -20.008   2.892  1.00  0.00     0.084 C 
HETATM   33  C   UNL     1      45.665 -20.431   4.245  1.00  0.00     0.025 C 
HETATM   34  C   UNL     1      44.751 -21.411   4.980  1.00  0.00     0.002 C 
HETATM   35  C   UNL     1      44.416 -22.626   4.119  1.00  0.00     0.000 C 
HETATM   36  C   UNL     1      43.839 -22.231   2.763  1.00  0.00     0.002 C 
HETATM   37  C   UNL     1      44.735 -21.230   2.032  1.00  0.00     0.025 C 
ENDBRANCH  29  32
ENDBRANCH  12  28
TORSDOF 7
ENDMDL
