MODEL 1
REMARK VINA RESULT:      -9.1      0.000      0.000
REMARK  5 active torsions:
REMARK  status: ('A' for Active; 'I' for Inactive)
REMARK    1  A    between atoms: C_3  and  N_4 
REMARK       I    between atoms: N_4  and  C_5 
REMARK    2  A    between atoms: C_5  and  C_6 
REMARK    3  A    between atoms: C_14  and  C_15 
REMARK    4  A    between atoms: C_21  and  O_22 
REMARK    5  A    between atoms: C_24  and  O_25 
ROOT
HETATM    1  N   UNL     1      41.890 -16.381   0.714  1.00  0.00    -0.322 N 
HETATM    2  C   UNL     1      41.194 -16.995   1.733  1.00  0.00     0.257 C 
HETATM    3  O   UNL     1      39.992 -17.011   1.946  1.00  0.00    -0.267 OA
HETATM    4  H   UNL     1      42.861 -16.665   0.654  1.00  0.00     0.169 HD
ENDROOT
BRANCH   2   5
HETATM    5  C   UNL     1      42.049 -17.781   2.666  1.00  0.00     0.046 A 
HETATM    6  C   UNL     1      42.050 -17.575   4.066  1.00  0.00     0.008 A 
HETATM    7  C   UNL     1      42.955 -18.363   4.798  1.00  0.00     0.068 A 
HETATM    8  C   UNL     1      41.205 -16.677   4.775  1.00  0.00     0.015 A 
HETATM    9  C   UNL     1      43.037 -18.191   6.174  1.00  0.00     0.032 A 
HETATM   10  N   UNL     1      43.741 -19.294   4.233  1.00  0.00    -0.252 NA
HETATM   11  C   UNL     1      42.231 -17.279   6.858  1.00  0.00     0.002 A 
HETATM   12  C   UNL     1      41.303 -16.525   6.157  1.00  0.00     0.001 A 
HETATM   13  C   UNL     1      43.674 -19.531   2.901  1.00  0.00     0.040 A 
HETATM   14  C   UNL     1      42.840 -18.778   2.092  1.00  0.00     0.045 A 
BRANCH  13  15
HETATM   15  C   UNL     1      44.494 -20.666   2.337  1.00  0.00     0.038 A 
HETATM   16  C   UNL     1      44.457 -22.040   2.963  1.00  0.00     0.011 A 
HETATM   17  C   UNL     1      43.802 -21.813   1.634  1.00  0.00     0.011 A 
ENDBRANCH  13  15
ENDBRANCH   2   5
BRANCH   1  18
HETATM   18  C   UNL     1      41.533 -15.354  -0.198  1.00  0.00     0.043 A 
HETATM   19  C   UNL     1      41.576 -13.964  -0.008  1.00  0.00    -0.032 A 
HETATM   20  C   UNL     1      41.916 -13.268   1.279  1.00  0.00     0.050 C 
HETATM   21  C   UNL     1      41.271 -13.114  -1.101  1.00  0.00     0.048 A 
HETATM   22  C   UNL     1      40.937 -13.612  -2.362  1.00  0.00     0.102 A 
HETATM   23  C   UNL     1      40.869 -14.994  -2.546  1.00  0.00     0.103 A 
HETATM   24  C   UNL     1      41.149 -15.843  -1.469  1.00  0.00     0.069 A 
BRANCH  22  25
HETATM   25  O   UNL     1      40.656 -12.831  -3.455  1.00  0.00    -0.353 OA
HETATM   26  C   UNL     1      41.696 -11.987  -3.930  1.00  0.00     0.210 C 
ENDBRANCH  22  25
BRANCH  23  27
HETATM   27  O   UNL     1      40.512 -15.430  -3.798  1.00  0.00    -0.353 OA
HETATM   28  C   UNL     1      39.232 -16.031  -3.930  1.00  0.00     0.210 C 
ENDBRANCH  23  27
ENDBRANCH   1  18
TORSDOF 5
ENDMDL
MODEL 2
REMARK VINA RESULT:      -8.8      1.730      1.956
REMARK  5 active torsions:
REMARK  status: ('A' for Active; 'I' for Inactive)
REMARK    1  A    between atoms: C_3  and  N_4 
REMARK       I    between atoms: N_4  and  C_5 
REMARK    2  A    between atoms: C_5  and  C_6 
REMARK    3  A    between atoms: C_14  and  C_15 
REMARK    4  A    between atoms: C_21  and  O_22 
REMARK    5  A    between atoms: C_24  and  O_25 
ROOT
HETATM    1  N   UNL     1      41.662 -16.340   2.294  1.00  0.00    -0.322 N 
HETATM    2  C   UNL     1      42.923 -16.256   2.846  1.00  0.00     0.257 C 
HETATM    3  O   UNL     1      43.682 -15.301   2.892  1.00  0.00    -0.267 OA
HETATM    4  H   UNL     1      41.163 -17.187   2.544  1.00  0.00     0.169 HD
ENDROOT
BRANCH   2   5
HETATM    5  C   UNL     1      43.378 -17.507   3.514  1.00  0.00     0.046 A 
HETATM    6  C   UNL     1      43.336 -17.688   4.917  1.00  0.00     0.008 A 
HETATM    7  C   UNL     1      43.854 -18.906   5.391  1.00  0.00     0.068 A 
HETATM    8  C   UNL     1      42.798 -16.768   5.859  1.00  0.00     0.015 A 
HETATM    9  C   UNL     1      43.878 -19.140   6.760  1.00  0.00     0.032 A 
HETATM   10  N   UNL     1      44.314 -19.873   4.580  1.00  0.00    -0.252 NA
HETATM   11  C   UNL     1      43.383 -18.215   7.680  1.00  0.00     0.002 A 
HETATM   12  C   UNL     1      42.830 -17.027   7.227  1.00  0.00     0.001 A 
HETATM   13  C   UNL     1      44.277 -19.714   3.235  1.00  0.00     0.040 A 
HETATM   14  C   UNL     1      43.821 -18.533   2.676  1.00  0.00     0.045 A 
BRANCH  13  15
HETATM   15  C   UNL     1      44.701 -20.876   2.369  1.00  0.00     0.038 A 
HETATM   16  C   UNL     1      44.465 -22.302   2.809  1.00  0.00     0.011 A 
HETATM   17  C   UNL     1      43.648 -21.727   1.691  1.00  0.00     0.011 A 
ENDBRANCH  13  15
ENDBRANCH   2   5
BRANCH   1  18
HETATM   18  C   UNL     1      40.973 -15.520   1.364  1.00  0.00     0.043 A 
HETATM   19  C   UNL     1      40.068 -14.478   1.619  1.00  0.00    -0.032 A 
HETATM   20  C   UNL     1      39.549 -14.085   2.973  1.00  0.00     0.050 C 
HETATM   21  C   UNL     1      39.575 -13.716   0.531  1.00  0.00     0.048 A 
HETATM   22  C   UNL     1      39.965 -13.961  -0.788  1.00  0.00     0.102 A 
HETATM   23  C   UNL     1      40.846 -15.014  -1.047  1.00  0.00     0.103 A 
HETATM   24  C   UNL     1      41.323 -15.785   0.019  1.00  0.00     0.069 A 
BRANCH  22  25
HETATM   25  O   UNL     1      39.534 -13.238  -1.871  1.00  0.00    -0.353 OA
HETATM   26  C   UNL     1      38.131 -13.056  -2.009  1.00  0.00     0.210 C 
ENDBRANCH  22  25
BRANCH  23  27
HETATM   27  O   UNL     1      41.177 -15.227  -2.362  1.00  0.00    -0.353 OA
HETATM   28  C   UNL     1      40.325 -16.082  -3.111  1.00  0.00     0.210 C 
ENDBRANCH  23  27
ENDBRANCH   1  18
TORSDOF 5
ENDMDL
MODEL 3
REMARK VINA RESULT:      -8.8      0.936      3.309
REMARK  5 active torsions:
REMARK  status: ('A' for Active; 'I' for Inactive)
REMARK    1  A    between atoms: C_3  and  N_4 
REMARK       I    between atoms: N_4  and  C_5 
REMARK    2  A    between atoms: C_5  and  C_6 
REMARK    3  A    between atoms: C_14  and  C_15 
REMARK    4  A    between atoms: C_21  and  O_22 
REMARK    5  A    between atoms: C_24  and  O_25 
ROOT
HETATM    1  N   UNL     1      42.051 -15.982   1.094  1.00  0.00    -0.322 N 
HETATM    2  C   UNL     1      41.328 -16.815   1.921  1.00  0.00     0.257 C 
HETATM    3  O   UNL     1      40.174 -17.199   1.811  1.00  0.00    -0.267 OA
HETATM    4  H   UNL     1      43.043 -15.959   1.305  1.00  0.00     0.169 HD
ENDROOT
BRANCH   2   5
HETATM    5  C   UNL     1      42.102 -17.343   3.079  1.00  0.00     0.046 A 
HETATM    6  C   UNL     1      42.900 -18.509   3.002  1.00  0.00     0.008 A 
HETATM    7  C   UNL     1      43.523 -18.903   4.199  1.00  0.00     0.068 A 
HETATM    8  C   UNL     1      43.139 -19.278   1.829  1.00  0.00     0.015 A 
HETATM    9  C   UNL     1      44.294 -20.058   4.208  1.00  0.00     0.032 A 
HETATM   10  N   UNL     1      43.424 -18.204   5.342  1.00  0.00    -0.252 NA
HETATM   11  C   UNL     1      44.492 -20.828   3.061  1.00  0.00     0.002 A 
HETATM   12  C   UNL     1      43.920 -20.431   1.863  1.00  0.00     0.001 A 
HETATM   13  C   UNL     1      42.717 -17.048   5.380  1.00  0.00     0.040 A 
HETATM   14  C   UNL     1      42.037 -16.601   4.260  1.00  0.00     0.045 A 
BRANCH  13  15
HETATM   15  C   UNL     1      42.734 -16.245   6.658  1.00  0.00     0.038 A 
HETATM   16  C   UNL     1      43.485 -16.732   7.874  1.00  0.00     0.011 A 
HETATM   17  C   UNL     1      44.012 -15.564   7.097  1.00  0.00     0.011 A 
ENDBRANCH  13  15
ENDBRANCH   2   5
BRANCH   1  18
HETATM   18  C   UNL     1      41.658 -15.074   0.077  1.00  0.00     0.043 A 
HETATM   19  C   UNL     1      41.601 -13.672   0.131  1.00  0.00    -0.032 A 
HETATM   20  C   UNL     1      41.852 -12.835   1.352  1.00  0.00     0.050 C 
HETATM   21  C   UNL     1      41.276 -12.954  -1.047  1.00  0.00     0.048 A 
HETATM   22  C   UNL     1      41.018 -13.593  -2.262  1.00  0.00     0.102 A 
HETATM   23  C   UNL     1      41.048 -14.989  -2.311  1.00  0.00     0.103 A 
HETATM   24  C   UNL     1      41.349 -15.708  -1.149  1.00  0.00     0.069 A 
BRANCH  22  25
HETATM   25  O   UNL     1      40.722 -12.942  -3.433  1.00  0.00    -0.353 OA
HETATM   26  C   UNL     1      41.685 -12.018  -3.919  1.00  0.00     0.210 C 
ENDBRANCH  22  25
BRANCH  23  27
HETATM   27  O   UNL     1      40.763 -15.567  -3.523  1.00  0.00    -0.353 OA
HETATM   28  C   UNL     1      39.446 -16.068  -3.703  1.00  0.00     0.210 C 
ENDBRANCH  23  27
ENDBRANCH   1  18
TORSDOF 5
ENDMDL
MODEL 4
REMARK VINA RESULT:      -8.4      2.067      4.192
REMARK  5 active torsions:
REMARK  status: ('A' for Active; 'I' for Inactive)
REMARK    1  A    between atoms: C_3  and  N_4 
REMARK       I    between atoms: N_4  and  C_5 
REMARK    2  A    between atoms: C_5  and  C_6 
REMARK    3  A    between atoms: C_14  and  C_15 
REMARK    4  A    between atoms: C_21  and  O_22 
REMARK    5  A    between atoms: C_24  and  O_25 
ROOT
HETATM    1  N   UNL     1      41.865 -16.238   2.653  1.00  0.00    -0.322 N 
HETATM    2  C   UNL     1      42.122 -17.557   2.341  1.00  0.00     0.257 C 
HETATM    3  O   UNL     1      41.751 -18.208   1.377  1.00  0.00    -0.267 OA
HETATM    4  H   UNL     1      42.434 -15.881   3.412  1.00  0.00     0.169 HD
ENDROOT
BRANCH   2   5
HETATM    5  C   UNL     1      43.020 -18.246   3.309  1.00  0.00     0.046 A 
HETATM    6  C   UNL     1      43.544 -19.541   3.083  1.00  0.00     0.008 A 
HETATM    7  C   UNL     1      44.332 -20.070   4.120  1.00  0.00     0.068 A 
HETATM    8  C   UNL     1      43.364 -20.317   1.904  1.00  0.00     0.015 A 
HETATM    9  C   UNL     1      44.851 -21.351   3.984  1.00  0.00     0.032 A 
HETATM   10  N   UNL     1      44.626 -19.388   5.239  1.00  0.00    -0.252 NA
HETATM   11  C   UNL     1      44.638 -22.122   2.840  1.00  0.00     0.002 A 
HETATM   12  C   UNL     1      43.899 -21.598   1.790  1.00  0.00     0.001 A 
HETATM   13  C   UNL     1      44.178 -18.120   5.407  1.00  0.00     0.040 A 
HETATM   14  C   UNL     1      43.363 -17.529   4.457  1.00  0.00     0.045 A 
BRANCH  13  15
HETATM   15  C   UNL     1      44.633 -17.360   6.629  1.00  0.00     0.038 A 
HETATM   16  C   UNL     1      44.080 -15.991   6.945  1.00  0.00     0.011 A 
HETATM   17  C   UNL     1      43.677 -17.165   7.786  1.00  0.00     0.011 A 
ENDBRANCH  13  15
ENDBRANCH   2   5
BRANCH   1  18
HETATM   18  C   UNL     1      40.886 -15.323   2.186  1.00  0.00     0.043 A 
HETATM   19  C   UNL     1      40.067 -14.462   2.933  1.00  0.00    -0.032 A 
HETATM   20  C   UNL     1      39.987 -14.417   4.432  1.00  0.00     0.050 C 
HETATM   21  C   UNL     1      39.227 -13.550   2.247  1.00  0.00     0.048 A 
HETATM   22  C   UNL     1      39.191 -13.472   0.853  1.00  0.00     0.102 A 
HETATM   23  C   UNL     1      39.987 -14.345   0.108  1.00  0.00     0.103 A 
HETATM   24  C   UNL     1      40.806 -15.264   0.774  1.00  0.00     0.069 A 
BRANCH  22  25
HETATM   25  O   UNL     1      38.413 -12.592   0.145  1.00  0.00    -0.353 OA
HETATM   26  C   UNL     1      37.093 -12.369   0.623  1.00  0.00     0.210 C 
ENDBRANCH  22  25
BRANCH  23  27
HETATM   27  O   UNL     1      39.895 -14.244  -1.258  1.00  0.00    -0.353 OA
HETATM   28  C   UNL     1      40.740 -15.090  -2.025  1.00  0.00     0.210 C 
ENDBRANCH  23  27
ENDBRANCH   1  18
TORSDOF 5
ENDMDL
MODEL 5
REMARK VINA RESULT:      -8.4      2.516      3.524
REMARK  5 active torsions:
REMARK  status: ('A' for Active; 'I' for Inactive)
REMARK    1  A    between atoms: C_3  and  N_4 
REMARK       I    between atoms: N_4  and  C_5 
REMARK    2  A    between atoms: C_5  and  C_6 
REMARK    3  A    between atoms: C_14  and  C_15 
REMARK    4  A    between atoms: C_21  and  O_22 
REMARK    5  A    between atoms: C_24  and  O_25 
ROOT
HETATM    1  N   UNL     1      41.653 -16.003   2.889  1.00  0.00    -0.322 N 
HETATM    2  C   UNL     1      43.011 -16.084   3.115  1.00  0.00     0.257 C 
HETATM    3  O   UNL     1      43.877 -15.245   2.923  1.00  0.00    -0.267 OA
HETATM    4  H   UNL     1      41.125 -16.766   3.299  1.00  0.00     0.169 HD
ENDROOT
BRANCH   2   5
HETATM    5  C   UNL     1      43.450 -17.372   3.724  1.00  0.00     0.046 A 
HETATM    6  C   UNL     1      43.434 -17.607   5.119  1.00  0.00     0.008 A 
HETATM    7  C   UNL     1      43.931 -18.855   5.533  1.00  0.00     0.068 A 
HETATM    8  C   UNL     1      42.939 -16.712   6.108  1.00  0.00     0.015 A 
HETATM    9  C   UNL     1      43.979 -19.143   6.891  1.00  0.00     0.032 A 
HETATM   10  N   UNL     1      44.349 -19.800   4.675  1.00  0.00    -0.252 NA
HETATM   11  C   UNL     1      43.527 -18.243   7.858  1.00  0.00     0.002 A 
HETATM   12  C   UNL     1      42.994 -17.026   7.464  1.00  0.00     0.001 A 
HETATM   13  C   UNL     1      44.287 -19.587   3.338  1.00  0.00     0.040 A 
HETATM   14  C   UNL     1      43.849 -18.374   2.836  1.00  0.00     0.045 A 
BRANCH  13  15
HETATM   15  C   UNL     1      44.662 -20.724   2.418  1.00  0.00     0.038 A 
HETATM   16  C   UNL     1      44.419 -22.160   2.816  1.00  0.00     0.011 A 
HETATM   17  C   UNL     1      43.574 -21.534   1.747  1.00  0.00     0.011 A 
ENDBRANCH  13  15
ENDBRANCH   2   5
BRANCH   1  18
HETATM   18  C   UNL     1      40.870 -15.115   2.107  1.00  0.00     0.043 A 
HETATM   19  C   UNL     1      40.629 -15.148   0.725  1.00  0.00    -0.032 A 
HETATM   20  C   UNL     1      41.263 -16.100  -0.249  1.00  0.00     0.050 C 
HETATM   21  C   UNL     1      39.722 -14.214   0.165  1.00  0.00     0.048 A 
HETATM   22  C   UNL     1      39.053 -13.266   0.943  1.00  0.00     0.102 A 
HETATM   23  C   UNL     1      39.311 -13.215   2.314  1.00  0.00     0.103 A 
HETATM   24  C   UNL     1      40.220 -14.120   2.875  1.00  0.00     0.069 A 
BRANCH  22  25
HETATM   25  O   UNL     1      38.151 -12.357   0.451  1.00  0.00    -0.353 OA
HETATM   26  C   UNL     1      38.503 -11.682  -0.748  1.00  0.00     0.210 C 
ENDBRANCH  22  25
BRANCH  23  27
HETATM   27  O   UNL     1      38.647 -12.248   3.028  1.00  0.00    -0.353 OA
HETATM   28  C   UNL     1      39.106 -11.991   4.347  1.00  0.00     0.210 C 
ENDBRANCH  23  27
ENDBRANCH   1  18
TORSDOF 5
ENDMDL
MODEL 6
REMARK VINA RESULT:      -8.4      2.570      3.523
REMARK  5 active torsions:
REMARK  status: ('A' for Active; 'I' for Inactive)
REMARK    1  A    between atoms: C_3  and  N_4 
REMARK       I    between atoms: N_4  and  C_5 
REMARK    2  A    between atoms: C_5  and  C_6 
REMARK    3  A    between atoms: C_14  and  C_15 
REMARK    4  A    between atoms: C_21  and  O_22 
REMARK    5  A    between atoms: C_24  and  O_25 
ROOT
HETATM    1  N   UNL     1      42.207 -15.495   3.188  1.00  0.00    -0.322 N 
HETATM    2  C   UNL     1      41.739 -16.783   3.034  1.00  0.00     0.257 C 
HETATM    3  O   UNL     1      40.751 -17.178   2.435  1.00  0.00    -0.267 OA
HETATM    4  H   UNL     1      43.143 -15.445   3.574  1.00  0.00     0.169 HD
ENDROOT
BRANCH   2   5
HETATM    5  C   UNL     1      42.605 -17.823   3.656  1.00  0.00     0.046 A 
HETATM    6  C   UNL     1      42.819 -17.910   5.052  1.00  0.00     0.008 A 
HETATM    7  C   UNL     1      43.708 -18.915   5.472  1.00  0.00     0.068 A 
HETATM    8  C   UNL     1      42.198 -17.097   6.041  1.00  0.00     0.015 A 
HETATM    9  C   UNL     1      43.994 -19.038   6.825  1.00  0.00     0.032 A 
HETATM   10  N   UNL     1      44.286 -19.783   4.626  1.00  0.00    -0.252 NA
HETATM   11  C   UNL     1      43.409 -18.211   7.786  1.00  0.00     0.002 A 
HETATM   12  C   UNL     1      42.499 -17.242   7.393  1.00  0.00     0.001 A 
HETATM   13  C   UNL     1      44.011 -19.735   3.300  1.00  0.00     0.040 A 
HETATM   14  C   UNL     1      43.179 -18.754   2.788  1.00  0.00     0.045 A 
BRANCH  13  15
HETATM   15  C   UNL     1      44.598 -20.805   2.411  1.00  0.00     0.038 A 
HETATM   16  C   UNL     1      44.548 -22.261   2.808  1.00  0.00     0.011 A 
HETATM   17  C   UNL     1      43.679 -21.767   1.691  1.00  0.00     0.011 A 
ENDBRANCH  13  15
ENDBRANCH   2   5
BRANCH   1  18
HETATM   18  C   UNL     1      41.590 -14.230   3.008  1.00  0.00     0.043 A 
HETATM   19  C   UNL     1      40.604 -13.618   3.797  1.00  0.00    -0.032 A 
HETATM   20  C   UNL     1      39.907 -14.250   4.968  1.00  0.00     0.050 C 
HETATM   21  C   UNL     1      40.203 -12.295   3.489  1.00  0.00     0.048 A 
HETATM   22  C   UNL     1      40.761 -11.574   2.430  1.00  0.00     0.102 A 
HETATM   23  C   UNL     1      41.723 -12.191   1.627  1.00  0.00     0.103 A 
HETATM   24  C   UNL     1      42.112 -13.505   1.911  1.00  0.00     0.069 A 
BRANCH  22  25
HETATM   25  O   UNL     1      40.422 -10.285   2.106  1.00  0.00    -0.353 OA
HETATM   26  C   UNL     1      40.790  -9.270   3.030  1.00  0.00     0.210 C 
ENDBRANCH  22  25
BRANCH  23  27
HETATM   27  O   UNL     1      42.220 -11.448   0.585  1.00  0.00    -0.353 OA
HETATM   28  C   UNL     1      42.400 -12.117  -0.655  1.00  0.00     0.210 C 
ENDBRANCH  23  27
ENDBRANCH   1  18
TORSDOF 5
ENDMDL
MODEL 7
REMARK VINA RESULT:      -8.3      1.979      4.452
REMARK  5 active torsions:
REMARK  status: ('A' for Active; 'I' for Inactive)
REMARK    1  A    between atoms: C_3  and  N_4 
REMARK       I    between atoms: N_4  and  C_5 
REMARK    2  A    between atoms: C_5  and  C_6 
REMARK    3  A    between atoms: C_14  and  C_15 
REMARK    4  A    between atoms: C_21  and  O_22 
REMARK    5  A    between atoms: C_24  and  O_25 
ROOT
HETATM    1  N   UNL     1      42.438 -15.923   1.918  1.00  0.00    -0.322 N 
HETATM    2  C   UNL     1      41.838 -16.920   2.658  1.00  0.00     0.257 C 
HETATM    3  O   UNL     1      40.674 -17.290   2.653  1.00  0.00    -0.267 OA
HETATM    4  H   UNL     1      43.451 -15.930   1.971  1.00  0.00     0.169 HD
ENDROOT
BRANCH   2   5
HETATM    5  C   UNL     1      42.774 -17.666   3.544  1.00  0.00     0.046 A 
HETATM    6  C   UNL     1      43.320 -18.925   3.199  1.00  0.00     0.008 A 
HETATM    7  C   UNL     1      44.144 -19.520   4.171  1.00  0.00     0.068 A 
HETATM    8  C   UNL     1      43.128 -19.605   1.965  1.00  0.00     0.015 A 
HETATM    9  C   UNL     1      44.687 -20.772   3.917  1.00  0.00     0.032 A 
HETATM   10  N   UNL     1      44.450 -18.926   5.336  1.00  0.00    -0.252 NA
HETATM   11  C   UNL     1      44.462 -21.450   2.717  1.00  0.00     0.002 A 
HETATM   12  C   UNL     1      43.688 -20.859   1.732  1.00  0.00     0.001 A 
HETATM   13  C   UNL     1      43.980 -17.687   5.619  1.00  0.00     0.040 A 
HETATM   14  C   UNL     1      43.129 -17.039   4.740  1.00  0.00     0.045 A 
BRANCH  13  15
HETATM   15  C   UNL     1      44.447 -17.021   6.890  1.00  0.00     0.038 A 
HETATM   16  C   UNL     1      43.890 -15.684   7.319  1.00  0.00     0.011 A 
HETATM   17  C   UNL     1      43.508 -16.923   8.072  1.00  0.00     0.011 A 
ENDBRANCH  13  15
ENDBRANCH   2   5
BRANCH   1  18
HETATM   18  C   UNL     1      41.906 -14.829   1.187  1.00  0.00     0.043 A 
HETATM   19  C   UNL     1      41.306 -14.835  -0.082  1.00  0.00    -0.032 A 
HETATM   20  C   UNL     1      41.202 -16.025  -0.992  1.00  0.00     0.050 C 
HETATM   21  C   UNL     1      40.747 -13.633  -0.581  1.00  0.00     0.048 A 
HETATM   22  C   UNL     1      40.765 -12.442   0.149  1.00  0.00     0.102 A 
HETATM   23  C   UNL     1      41.385 -12.428   1.401  1.00  0.00     0.103 A 
HETATM   24  C   UNL     1      41.958 -13.605   1.895  1.00  0.00     0.069 A 
BRANCH  22  25
HETATM   25  O   UNL     1      40.218 -11.260  -0.281  1.00  0.00    -0.353 OA
HETATM   26  C   UNL     1      39.177 -11.343  -1.244  1.00  0.00     0.210 C 
ENDBRANCH  22  25
BRANCH  23  27
HETATM   27  O   UNL     1      41.397 -11.227   2.066  1.00  0.00    -0.353 OA
HETATM   28  C   UNL     1      40.689 -11.165   3.296  1.00  0.00     0.210 C 
ENDBRANCH  23  27
ENDBRANCH   1  18
TORSDOF 5
ENDMDL
MODEL 8
REMARK VINA RESULT:      -8.3      1.525      2.709
REMARK  5 active torsions:
REMARK  status: ('A' for Active; 'I' for Inactive)
REMARK    1  A    between atoms: C_3  and  N_4 
REMARK       I    between atoms: N_4  and  C_5 
REMARK    2  A    between atoms: C_5  and  C_6 
REMARK    3  A    between atoms: C_14  and  C_15 
REMARK    4  A    between atoms: C_21  and  O_22 
REMARK    5  A    between atoms: C_24  and  O_25 
ROOT
HETATM    1  N   UNL     1      42.154 -15.904   1.299  1.00  0.00    -0.322 N 
HETATM    2  C   UNL     1      41.451 -16.939   1.879  1.00  0.00     0.257 C 
HETATM    3  O   UNL     1      40.288 -17.271   1.711  1.00  0.00    -0.267 OA
HETATM    4  H   UNL     1      43.153 -15.946   1.465  1.00  0.00     0.169 HD
ENDROOT
BRANCH   2   5
HETATM    5  C   UNL     1      42.263 -17.784   2.799  1.00  0.00     0.046 A 
HETATM    6  C   UNL     1      42.252 -17.617   4.204  1.00  0.00     0.008 A 
HETATM    7  C   UNL     1      43.116 -18.460   4.925  1.00  0.00     0.068 A 
HETATM    8  C   UNL     1      41.435 -16.705   4.928  1.00  0.00     0.015 A 
HETATM    9  C   UNL     1      43.187 -18.329   6.306  1.00  0.00     0.032 A 
HETATM   10  N   UNL     1      43.872 -19.406   4.344  1.00  0.00    -0.252 NA
HETATM   11  C   UNL     1      42.409 -17.405   7.005  1.00  0.00     0.002 A 
HETATM   12  C   UNL     1      41.520 -16.595   6.314  1.00  0.00     0.001 A 
HETATM   13  C   UNL     1      43.813 -19.604   3.005  1.00  0.00     0.040 A 
HETATM   14  C   UNL     1      43.021 -18.796   2.207  1.00  0.00     0.045 A 
BRANCH  13  15
HETATM   15  C   UNL     1      44.595 -20.755   2.420  1.00  0.00     0.038 A 
HETATM   16  C   UNL     1      44.470 -22.149   2.986  1.00  0.00     0.011 A 
HETATM   17  C   UNL     1      43.871 -21.836   1.648  1.00  0.00     0.011 A 
ENDBRANCH  13  15
ENDBRANCH   2   5
BRANCH   1  18
HETATM   18  C   UNL     1      41.734 -14.738   0.607  1.00  0.00     0.043 A 
HETATM   19  C   UNL     1      41.207 -14.634  -0.689  1.00  0.00    -0.032 A 
HETATM   20  C   UNL     1      41.081 -15.761  -1.673  1.00  0.00     0.050 C 
HETATM   21  C   UNL     1      40.753 -13.371  -1.145  1.00  0.00     0.048 A 
HETATM   22  C   UNL     1      40.803 -12.227  -0.344  1.00  0.00     0.102 A 
HETATM   23  C   UNL     1      41.351 -12.324   0.937  1.00  0.00     0.103 A 
HETATM   24  C   UNL     1      41.821 -13.562   1.390  1.00  0.00     0.069 A 
BRANCH  22  25
HETATM   25  O   UNL     1      40.356 -10.990  -0.730  1.00  0.00    -0.353 OA
HETATM   26  C   UNL     1      40.809 -10.503  -1.986  1.00  0.00     0.210 C 
ENDBRANCH  22  25
BRANCH  23  27
HETATM   27  O   UNL     1      41.399 -11.166   1.673  1.00  0.00    -0.353 OA
HETATM   28  C   UNL     1      40.677 -11.149   2.896  1.00  0.00     0.210 C 
ENDBRANCH  23  27
ENDBRANCH   1  18
TORSDOF 5
ENDMDL
MODEL 9
REMARK VINA RESULT:      -7.8      2.587      7.461
REMARK  5 active torsions:
REMARK  status: ('A' for Active; 'I' for Inactive)
REMARK    1  A    between atoms: C_3  and  N_4 
REMARK       I    between atoms: N_4  and  C_5 
REMARK    2  A    between atoms: C_5  and  C_6 
REMARK    3  A    between atoms: C_14  and  C_15 
REMARK    4  A    between atoms: C_21  and  O_22 
REMARK    5  A    between atoms: C_24  and  O_25 
ROOT
HETATM    1  N   UNL     1      42.443 -16.538   2.833  1.00  0.00    -0.322 N 
HETATM    2  C   UNL     1      41.182 -16.576   2.276  1.00  0.00     0.257 C 
HETATM    3  O   UNL     1      40.315 -17.428   2.390  1.00  0.00    -0.267 OA
HETATM    4  H   UNL     1      42.905 -15.640   2.733  1.00  0.00     0.169 HD
ENDROOT
BRANCH   2   5
HETATM    5  C   UNL     1      40.840 -15.376   1.463  1.00  0.00     0.046 A 
HETATM    6  C   UNL     1      40.316 -14.190   2.028  1.00  0.00     0.008 A 
HETATM    7  C   UNL     1      39.995 -13.169   1.116  1.00  0.00     0.068 A 
HETATM    8  C   UNL     1      40.119 -13.945   3.415  1.00  0.00     0.015 A 
HETATM    9  C   UNL     1      39.443 -11.988   1.594  1.00  0.00     0.032 A 
HETATM   10  N   UNL     1      40.215 -13.270  -0.205  1.00  0.00    -0.252 NA
HETATM   11  C   UNL     1      39.217 -11.771   2.955  1.00  0.00     0.002 A 
HETATM   12  C   UNL     1      39.567 -12.750   3.871  1.00  0.00     0.001 A 
HETATM   13  C   UNL     1      40.788 -14.384  -0.722  1.00  0.00     0.040 A 
HETATM   14  C   UNL     1      41.102 -15.458   0.093  1.00  0.00     0.045 A 
BRANCH  13  15
HETATM   15  C   UNL     1      41.116 -14.399  -2.195  1.00  0.00     0.038 A 
HETATM   16  C   UNL     1      41.083 -15.684  -2.988  1.00  0.00     0.011 A 
HETATM   17  C   UNL     1      40.017 -14.652  -3.204  1.00  0.00     0.011 A 
ENDBRANCH  13  15
ENDBRANCH   2   5
BRANCH   1  18
HETATM   18  C   UNL     1      43.255 -17.541   3.423  1.00  0.00     0.043 A 
HETATM   19  C   UNL     1      43.707 -17.632   4.748  1.00  0.00    -0.032 A 
HETATM   20  C   UNL     1      43.503 -16.593   5.813  1.00  0.00     0.050 C 
HETATM   21  C   UNL     1      44.426 -18.786   5.149  1.00  0.00     0.048 A 
HETATM   22  C   UNL     1      44.694 -19.839   4.272  1.00  0.00     0.102 A 
HETATM   23  C   UNL     1      44.268 -19.739   2.946  1.00  0.00     0.103 A 
HETATM   24  C   UNL     1      43.574 -18.595   2.534  1.00  0.00     0.069 A 
BRANCH  22  25
HETATM   25  O   UNL     1      45.366 -20.984   4.617  1.00  0.00    -0.353 OA
HETATM   26  C   UNL     1      44.677 -21.912   5.446  1.00  0.00     0.210 C 
ENDBRANCH  22  25
BRANCH  23  27
HETATM   27  O   UNL     1      44.579 -20.791   2.120  1.00  0.00    -0.353 OA
HETATM   28  C   UNL     1      43.512 -21.648   1.739  1.00  0.00     0.210 C 
ENDBRANCH  23  27
ENDBRANCH   1  18
TORSDOF 5
ENDMDL
MODEL 10
REMARK VINA RESULT:      -7.8      3.010      8.403
REMARK  5 active torsions:
REMARK  status: ('A' for Active; 'I' for Inactive)
REMARK    1  A    between atoms: C_3  and  N_4 
REMARK       I    between atoms: N_4  and  C_5 
REMARK    2  A    between atoms: C_5  and  C_6 
REMARK    3  A    between atoms: C_14  and  C_15 
REMARK    4  A    between atoms: C_21  and  O_22 
REMARK    5  A    between atoms: C_24  and  O_25 
ROOT
HETATM    1  N   UNL     1      42.046 -16.559   3.478  1.00  0.00    -0.322 N 
HETATM    2  C   UNL     1      40.929 -16.290   2.716  1.00  0.00     0.257 C 
HETATM    3  O   UNL     1      40.136 -17.067   2.208  1.00  0.00    -0.267 OA
HETATM    4  H   UNL     1      42.436 -15.740   3.933  1.00  0.00     0.169 HD
ENDROOT
BRANCH   2   5
HETATM    5  C   UNL     1      40.647 -14.837   2.542  1.00  0.00     0.046 A 
HETATM    6  C   UNL     1      40.917 -14.141   1.340  1.00  0.00     0.008 A 
HETATM    7  C   UNL     1      40.643 -12.762   1.359  1.00  0.00     0.068 A 
HETATM    8  C   UNL     1      41.404 -14.719   0.135  1.00  0.00     0.015 A 
HETATM    9  C   UNL     1      40.915 -12.006   0.226  1.00  0.00     0.032 A 
HETATM   10  N   UNL     1      40.109 -12.135   2.420  1.00  0.00    -0.252 NA
HETATM   11  C   UNL     1      41.430 -12.575  -0.940  1.00  0.00     0.002 A 
HETATM   12  C   UNL     1      41.665 -13.940  -0.990  1.00  0.00     0.001 A 
HETATM   13  C   UNL     1      39.787 -12.831   3.537  1.00  0.00     0.040 A 
HETATM   14  C   UNL     1      40.056 -14.185   3.626  1.00  0.00     0.045 A 
BRANCH  13  15
HETATM   15  C   UNL     1      39.085 -12.098   4.655  1.00  0.00     0.038 A 
HETATM   16  C   UNL     1      39.116 -12.624   6.071  1.00  0.00     0.011 A 
HETATM   17  C   UNL     1      39.903 -11.397   5.719  1.00  0.00     0.011 A 
ENDBRANCH  13  15
ENDBRANCH   2   5
BRANCH   1  18
HETATM   18  C   UNL     1      42.812 -17.739   3.661  1.00  0.00     0.043 A 
HETATM   19  C   UNL     1      43.591 -18.430   2.720  1.00  0.00    -0.032 A 
HETATM   20  C   UNL     1      43.684 -18.106   1.257  1.00  0.00     0.050 C 
HETATM   21  C   UNL     1      44.363 -19.538   3.151  1.00  0.00     0.048 A 
HETATM   22  C   UNL     1      44.382 -19.961   4.482  1.00  0.00     0.102 A 
HETATM   23  C   UNL     1      43.588 -19.291   5.415  1.00  0.00     0.103 A 
HETATM   24  C   UNL     1      42.806 -18.207   4.996  1.00  0.00     0.069 A 
BRANCH  22  25
HETATM   25  O   UNL     1      45.129 -21.011   4.951  1.00  0.00    -0.353 OA
HETATM   26  C   UNL     1      44.769 -22.311   4.502  1.00  0.00     0.210 C 
ENDBRANCH  22  25
BRANCH  23  27
HETATM   27  O   UNL     1      43.624 -19.762   6.703  1.00  0.00    -0.353 OA
HETATM   28  C   UNL     1      44.078 -18.863   7.706  1.00  0.00     0.210 C 
ENDBRANCH  23  27
ENDBRANCH   1  18
TORSDOF 5
ENDMDL
