MODEL 1
REMARK VINA RESULT:      -8.2      0.000      0.000
REMARK  6 active torsions:
REMARK  status: ('A' for Active; 'I' for Inactive)
REMARK    1  A    between atoms: C_2  and  N_3 
REMARK    2  A    between atoms: N_3  and  C_5 
REMARK    3  A    between atoms: N_3  and  C_26 
REMARK    4  A    between atoms: C_5  and  C_6 
REMARK    5  A    between atoms: C_8  and  N_9 
REMARK       I    between atoms: N_9  and  C_10 
REMARK    6  A    between atoms: C_10  and  C_11 
ROOT
HETATM    1  N   UNL     1      41.017 -15.589   2.021  1.00  0.00    -0.322 N 
HETATM    2  C   UNL     1      41.370 -16.920   1.865  1.00  0.00     0.277 C 
HETATM    3  O   UNL     1      40.944 -17.675   0.995  1.00  0.00    -0.266 OA
HETATM    4  H   UNL     1      41.493 -15.137   2.801  1.00  0.00     0.169 HD
ENDROOT
BRANCH   1   5
HETATM    5  C   UNL     1      40.069 -14.851   1.295  1.00  0.00     0.035 A 
HETATM    6  C   UNL     1      40.396 -14.072   0.183  1.00  0.00     0.038 A 
HETATM    7  C   UNL     1      39.408 -13.428  -0.581  1.00  0.00    -0.030 A 
HETATM    8  C   UNL     1      38.075 -13.515  -0.164  1.00  0.00     0.009 A 
HETATM    9  C   UNL     1      37.741 -14.260   0.968  1.00  0.00     0.003 A 
HETATM   10  C   UNL     1      38.732 -14.934   1.687  1.00  0.00     0.029 A 
BRANCH   7  11
HETATM   11  C   UNL     1      39.802 -12.694  -1.836  1.00  0.00     0.273 C 
BRANCH  11  12
HETATM   12  N   UNL     1      40.104 -13.566  -3.053  1.00  0.00    -0.068 N 
HETATM   13  H   UNL     1      40.007 -12.944  -3.865  1.00  0.00     0.280 HD
BRANCH  12  14
HETATM   14  C   UNL     1      39.111 -14.694  -3.269  1.00  0.00     0.231 C 
HETATM   15  C   UNL     1      39.822 -16.015  -3.502  1.00  0.00     0.034 C 
ENDBRANCH  12  14
BRANCH  12  16
HETATM   16  C   UNL     1      41.529 -14.095  -3.114  1.00  0.00     0.231 C 
HETATM   17  C   UNL     1      42.539 -13.005  -2.804  1.00  0.00     0.034 C 
ENDBRANCH  12  16
ENDBRANCH  11  12
ENDBRANCH   7  11
ENDBRANCH   1   5
BRANCH   2  18
HETATM   18  C   UNL     1      42.316 -17.366   2.901  1.00  0.00     0.157 A 
HETATM   19  N   UNL     1      42.571 -16.603   3.987  1.00  0.00    -0.168 NA
HETATM   20  N   UNL     1      43.417 -17.359   4.715  1.00  0.00    -0.277 N 
HETATM   21  H   UNL     1      43.746 -17.000   5.605  1.00  0.00     0.189 HD
HETATM   22  C   UNL     1      43.740 -18.557   4.140  1.00  0.00     0.063 A 
HETATM   23  C   UNL     1      43.045 -18.590   2.939  1.00  0.00     0.029 A 
HETATM   24  C   UNL     1      44.574 -19.594   4.566  1.00  0.00     0.032 A 
HETATM   25  C   UNL     1      43.193 -19.711   2.097  1.00  0.00     0.023 A 
HETATM   26  C   UNL     1      44.030 -20.769   2.493  1.00  0.00    -0.061 A 
HETATM   27  C   UNL     1      44.711 -20.697   3.714  1.00  0.00     0.009 A 
HETATM   28  C   UNL     1      44.238 -21.937   1.572  1.00  0.00     0.048 C 
ENDBRANCH   2  18
TORSDOF 6
ENDMDL
MODEL 2
REMARK VINA RESULT:      -8.0      1.351      1.727
REMARK  6 active torsions:
REMARK  status: ('A' for Active; 'I' for Inactive)
REMARK    1  A    between atoms: C_2  and  N_3 
REMARK    2  A    between atoms: N_3  and  C_5 
REMARK    3  A    between atoms: N_3  and  C_26 
REMARK    4  A    between atoms: C_5  and  C_6 
REMARK    5  A    between atoms: C_8  and  N_9 
REMARK       I    between atoms: N_9  and  C_10 
REMARK    6  A    between atoms: C_10  and  C_11 
ROOT
HETATM    1  N   UNL     1      41.914 -16.707   2.905  1.00  0.00    -0.322 N 
HETATM    2  C   UNL     1      43.245 -16.526   3.248  1.00  0.00     0.277 C 
HETATM    3  O   UNL     1      43.965 -15.610   2.861  1.00  0.00    -0.266 OA
HETATM    4  H   UNL     1      41.495 -17.526   3.344  1.00  0.00     0.169 HD
ENDROOT
BRANCH   1   5
HETATM    5  C   UNL     1      41.139 -15.955   2.008  1.00  0.00     0.035 A 
HETATM    6  C   UNL     1      41.438 -15.844   0.649  1.00  0.00     0.038 A 
HETATM    7  C   UNL     1      40.586 -15.168  -0.240  1.00  0.00    -0.030 A 
HETATM    8  C   UNL     1      39.451 -14.530   0.273  1.00  0.00     0.009 A 
HETATM    9  C   UNL     1      39.162 -14.603   1.637  1.00  0.00     0.003 A 
HETATM   10  C   UNL     1      39.996 -15.322   2.498  1.00  0.00     0.029 A 
BRANCH   7  11
HETATM   11  C   UNL     1      40.896 -15.173  -1.714  1.00  0.00     0.273 C 
BRANCH  11  12
HETATM   12  N   UNL     1      40.144 -14.144  -2.558  1.00  0.00    -0.068 N 
HETATM   13  H   UNL     1      39.712 -13.502  -1.884  1.00  0.00     0.280 HD
BRANCH  12  14
HETATM   14  C   UNL     1      39.004 -14.726  -3.373  1.00  0.00     0.231 C 
HETATM   15  C   UNL     1      39.354 -16.105  -3.904  1.00  0.00     0.034 C 
ENDBRANCH  12  14
BRANCH  12  16
HETATM   16  C   UNL     1      41.034 -13.276  -3.435  1.00  0.00     0.231 C 
HETATM   17  C   UNL     1      42.404 -13.076  -2.811  1.00  0.00     0.034 C 
ENDBRANCH  12  16
ENDBRANCH  11  12
ENDBRANCH   7  11
ENDBRANCH   1   5
BRANCH   2  18
HETATM   18  C   UNL     1      43.738 -17.597   4.130  1.00  0.00     0.157 A 
HETATM   19  N   UNL     1      44.002 -17.360   5.434  1.00  0.00    -0.168 NA
HETATM   20  N   UNL     1      44.363 -18.568   5.910  1.00  0.00    -0.277 N 
HETATM   21  H   UNL     1      44.597 -18.652   6.893  1.00  0.00     0.189 HD
HETATM   22  C   UNL     1      44.371 -19.565   4.973  1.00  0.00     0.063 A 
HETATM   23  C   UNL     1      43.979 -18.959   3.787  1.00  0.00     0.029 A 
HETATM   24  C   UNL     1      44.688 -20.922   5.067  1.00  0.00     0.032 A 
HETATM   25  C   UNL     1      43.909 -19.740   2.615  1.00  0.00     0.023 A 
HETATM   26  C   UNL     1      44.229 -21.107   2.673  1.00  0.00    -0.061 A 
HETATM   27  C   UNL     1      44.617 -21.679   3.891  1.00  0.00     0.009 A 
HETATM   28  C   UNL     1      44.216 -21.928   1.416  1.00  0.00     0.048 C 
ENDBRANCH   2  18
TORSDOF 6
ENDMDL
MODEL 3
REMARK VINA RESULT:      -7.7      2.399      8.254
REMARK  6 active torsions:
REMARK  status: ('A' for Active; 'I' for Inactive)
REMARK    1  A    between atoms: C_2  and  N_3 
REMARK    2  A    between atoms: N_3  and  C_5 
REMARK    3  A    between atoms: N_3  and  C_26 
REMARK    4  A    between atoms: C_5  and  C_6 
REMARK    5  A    between atoms: C_8  and  N_9 
REMARK       I    between atoms: N_9  and  C_10 
REMARK    6  A    between atoms: C_10  and  C_11 
ROOT
HETATM    1  N   UNL     1      42.639 -16.008   0.251  1.00  0.00    -0.322 N 
HETATM    2  C   UNL     1      41.394 -15.442   0.026  1.00  0.00     0.277 C 
HETATM    3  O   UNL     1      40.451 -15.452   0.814  1.00  0.00    -0.266 OA
HETATM    4  H   UNL     1      43.284 -15.879  -0.527  1.00  0.00     0.169 HD
ENDROOT
BRANCH   1   5
HETATM    5  C   UNL     1      43.064 -16.760   1.357  1.00  0.00     0.035 A 
HETATM    6  C   UNL     1      43.010 -16.286   2.670  1.00  0.00     0.038 A 
HETATM    7  C   UNL     1      43.347 -17.102   3.762  1.00  0.00    -0.030 A 
HETATM    8  C   UNL     1      43.821 -18.395   3.513  1.00  0.00     0.009 A 
HETATM    9  C   UNL     1      43.916 -18.866   2.202  1.00  0.00     0.003 A 
HETATM   10  C   UNL     1      43.528 -18.057   1.131  1.00  0.00     0.029 A 
BRANCH   7  11
HETATM   11  C   UNL     1      43.164 -16.580   5.163  1.00  0.00     0.273 C 
BRANCH  11  12
HETATM   12  N   UNL     1      42.496 -15.212   5.284  1.00  0.00    -0.068 N 
HETATM   13  H   UNL     1      42.365 -14.886   4.319  1.00  0.00     0.280 HD
BRANCH  12  14
HETATM   14  C   UNL     1      43.352 -14.161   5.968  1.00  0.00     0.231 C 
HETATM   15  C   UNL     1      44.320 -14.796   6.950  1.00  0.00     0.034 C 
ENDBRANCH  12  14
BRANCH  12  16
HETATM   16  C   UNL     1      41.102 -15.241   5.895  1.00  0.00     0.231 C 
HETATM   17  C   UNL     1      40.702 -16.648   6.297  1.00  0.00     0.034 C 
ENDBRANCH  12  16
ENDBRANCH  11  12
ENDBRANCH   7  11
ENDBRANCH   1   5
BRANCH   2  18
HETATM   18  C   UNL     1      41.297 -14.833  -1.310  1.00  0.00     0.157 A 
HETATM   19  N   UNL     1      40.690 -15.481  -2.330  1.00  0.00    -0.168 NA
HETATM   20  N   UNL     1      40.747 -14.598  -3.346  1.00  0.00    -0.277 N 
HETATM   21  H   UNL     1      40.331 -14.854  -4.235  1.00  0.00     0.189 HD
HETATM   22  C   UNL     1      41.381 -13.425  -3.041  1.00  0.00     0.063 A 
HETATM   23  C   UNL     1      41.770 -13.550  -1.713  1.00  0.00     0.029 A 
HETATM   24  C   UNL     1      41.646 -12.288  -3.808  1.00  0.00     0.032 A 
HETATM   25  C   UNL     1      42.477 -12.492  -1.109  1.00  0.00     0.023 A 
HETATM   26  C   UNL     1      42.766 -11.336  -1.854  1.00  0.00    -0.061 A 
HETATM   27  C   UNL     1      42.353 -11.249  -3.189  1.00  0.00     0.009 A 
HETATM   28  C   UNL     1      43.571 -10.232  -1.232  1.00  0.00     0.048 C 
ENDBRANCH   2  18
TORSDOF 6
ENDMDL
MODEL 4
REMARK VINA RESULT:      -7.5      1.478      1.878
REMARK  6 active torsions:
REMARK  status: ('A' for Active; 'I' for Inactive)
REMARK    1  A    between atoms: C_2  and  N_3 
REMARK    2  A    between atoms: N_3  and  C_5 
REMARK    3  A    between atoms: N_3  and  C_26 
REMARK    4  A    between atoms: C_5  and  C_6 
REMARK    5  A    between atoms: C_8  and  N_9 
REMARK       I    between atoms: N_9  and  C_10 
REMARK    6  A    between atoms: C_10  and  C_11 
ROOT
HETATM    1  N   UNL     1      42.536 -15.385   2.199  1.00  0.00    -0.322 N 
HETATM    2  C   UNL     1      42.009 -16.603   2.599  1.00  0.00     0.277 C 
HETATM    3  O   UNL     1      40.912 -17.049   2.273  1.00  0.00    -0.266 OA
HETATM    4  H   UNL     1      43.467 -15.209   2.575  1.00  0.00     0.169 HD
ENDROOT
BRANCH   1   5
HETATM    5  C   UNL     1      41.925 -14.387   1.424  1.00  0.00     0.035 A 
HETATM    6  C   UNL     1      41.794 -14.472   0.036  1.00  0.00     0.038 A 
HETATM    7  C   UNL     1      41.087 -13.505  -0.698  1.00  0.00    -0.030 A 
HETATM    8  C   UNL     1      40.571 -12.394  -0.020  1.00  0.00     0.009 A 
HETATM    9  C   UNL     1      40.730 -12.280   1.362  1.00  0.00     0.003 A 
HETATM   10  C   UNL     1      41.393 -13.278   2.081  1.00  0.00     0.029 A 
BRANCH   7  11
HETATM   11  C   UNL     1      40.877 -13.701  -2.176  1.00  0.00     0.273 C 
BRANCH  11  12
HETATM   12  N   UNL     1      39.669 -14.547  -2.573  1.00  0.00    -0.068 N 
HETATM   13  H   UNL     1      39.240 -14.842  -1.688  1.00  0.00     0.280 HD
BRANCH  12  14
HETATM   14  C   UNL     1      40.021 -15.823  -3.315  1.00  0.00     0.231 C 
HETATM   15  C   UNL     1      38.943 -16.190  -4.319  1.00  0.00     0.034 C 
ENDBRANCH  12  14
BRANCH  12  16
HETATM   16  C   UNL     1      38.581 -13.784  -3.316  1.00  0.00     0.231 C 
HETATM   17  C   UNL     1      37.710 -12.988  -2.362  1.00  0.00     0.034 C 
ENDBRANCH  12  16
ENDBRANCH  11  12
ENDBRANCH   7  11
ENDBRANCH   1   5
BRANCH   2  18
HETATM   18  C   UNL     1      42.912 -17.323   3.511  1.00  0.00     0.157 A 
HETATM   19  N   UNL     1      43.318 -16.767   4.674  1.00  0.00    -0.168 NA
HETATM   20  N   UNL     1      44.065 -17.733   5.245  1.00  0.00    -0.277 N 
HETATM   21  H   UNL     1      44.474 -17.555   6.155  1.00  0.00     0.189 HD
HETATM   22  C   UNL     1      44.183 -18.872   4.497  1.00  0.00     0.063 A 
HETATM   23  C   UNL     1      43.449 -18.633   3.342  1.00  0.00     0.029 A 
HETATM   24  C   UNL     1      44.865 -20.068   4.732  1.00  0.00     0.032 A 
HETATM   25  C   UNL     1      43.397 -19.633   2.351  1.00  0.00     0.023 A 
HETATM   26  C   UNL     1      44.077 -20.846   2.553  1.00  0.00    -0.061 A 
HETATM   27  C   UNL     1      44.803 -21.047   3.733  1.00  0.00     0.009 A 
HETATM   28  C   UNL     1      44.074 -21.890   1.473  1.00  0.00     0.048 C 
ENDBRANCH   2  18
TORSDOF 6
ENDMDL
MODEL 5
REMARK VINA RESULT:      -7.5      2.360      8.529
REMARK  6 active torsions:
REMARK  status: ('A' for Active; 'I' for Inactive)
REMARK    1  A    between atoms: C_2  and  N_3 
REMARK    2  A    between atoms: N_3  and  C_5 
REMARK    3  A    between atoms: N_3  and  C_26 
REMARK    4  A    between atoms: C_5  and  C_6 
REMARK    5  A    between atoms: C_8  and  N_9 
REMARK       I    between atoms: N_9  and  C_10 
REMARK    6  A    between atoms: C_10  and  C_11 
ROOT
HETATM    1  N   UNL     1      42.083 -15.847   0.404  1.00  0.00    -0.322 N 
HETATM    2  C   UNL     1      41.734 -14.514   0.251  1.00  0.00     0.277 C 
HETATM    3  O   UNL     1      41.459 -13.738   1.161  1.00  0.00    -0.266 OA
HETATM    4  H   UNL     1      42.283 -16.313  -0.480  1.00  0.00     0.169 HD
ENDROOT
BRANCH   1   5
HETATM    5  C   UNL     1      42.121 -16.604   1.585  1.00  0.00     0.035 A 
HETATM    6  C   UNL     1      43.187 -17.440   1.922  1.00  0.00     0.038 A 
HETATM    7  C   UNL     1      43.240 -18.104   3.159  1.00  0.00    -0.030 A 
HETATM    8  C   UNL     1      42.156 -17.977   4.036  1.00  0.00     0.009 A 
HETATM    9  C   UNL     1      41.067 -17.174   3.692  1.00  0.00     0.003 A 
HETATM   10  C   UNL     1      41.056 -16.482   2.479  1.00  0.00     0.029 A 
BRANCH   7  11
HETATM   11  C   UNL     1      44.465 -18.904   3.520  1.00  0.00     0.273 C 
BRANCH  11  12
HETATM   12  N   UNL     1      44.240 -20.395   3.764  1.00  0.00    -0.068 N 
HETATM   13  H   UNL     1      43.222 -20.513   3.817  1.00  0.00     0.280 HD
BRANCH  12  14
HETATM   14  C   UNL     1      44.790 -20.898   5.086  1.00  0.00     0.231 C 
HETATM   15  C   UNL     1      44.998 -22.401   5.059  1.00  0.00     0.034 C 
ENDBRANCH  12  14
BRANCH  12  16
HETATM   16  C   UNL     1      44.694 -21.296   2.624  1.00  0.00     0.231 C 
HETATM   17  C   UNL     1      43.565 -21.568   1.647  1.00  0.00     0.034 C 
ENDBRANCH  12  16
ENDBRANCH  11  12
ENDBRANCH   7  11
ENDBRANCH   1   5
BRANCH   2  18
HETATM   18  C   UNL     1      41.695 -14.113  -1.166  1.00  0.00     0.157 A 
HETATM   19  N   UNL     1      41.204 -14.943  -2.112  1.00  0.00    -0.168 NA
HETATM   20  N   UNL     1      41.277 -14.214  -3.243  1.00  0.00    -0.277 N 
HETATM   21  H   UNL     1      40.943 -14.625  -4.108  1.00  0.00     0.189 HD
HETATM   22  C   UNL     1      41.815 -12.967  -3.078  1.00  0.00     0.063 A 
HETATM   23  C   UNL     1      42.115 -12.871  -1.725  1.00  0.00     0.029 A 
HETATM   24  C   UNL     1      42.063 -11.937  -3.988  1.00  0.00     0.032 A 
HETATM   25  C   UNL     1      42.711 -11.688  -1.243  1.00  0.00     0.023 A 
HETATM   26  C   UNL     1      42.980 -10.635  -2.133  1.00  0.00    -0.061 A 
HETATM   27  C   UNL     1      42.658 -10.771  -3.489  1.00  0.00     0.009 A 
HETATM   28  C   UNL     1      43.669  -9.397  -1.634  1.00  0.00     0.048 C 
ENDBRANCH   2  18
TORSDOF 6
ENDMDL
MODEL 6
REMARK VINA RESULT:      -7.5      1.179      1.913
REMARK  6 active torsions:
REMARK  status: ('A' for Active; 'I' for Inactive)
REMARK    1  A    between atoms: C_2  and  N_3 
REMARK    2  A    between atoms: N_3  and  C_5 
REMARK    3  A    between atoms: N_3  and  C_26 
REMARK    4  A    between atoms: C_5  and  C_6 
REMARK    5  A    between atoms: C_8  and  N_9 
REMARK       I    between atoms: N_9  and  C_10 
REMARK    6  A    between atoms: C_10  and  C_11 
ROOT
HETATM    1  N   UNL     1      41.022 -15.631   1.993  1.00  0.00    -0.322 N 
HETATM    2  C   UNL     1      41.253 -16.997   1.954  1.00  0.00     0.277 C 
HETATM    3  O   UNL     1      40.689 -17.797   1.212  1.00  0.00    -0.266 OA
HETATM    4  H   UNL     1      41.604 -15.146   2.675  1.00  0.00     0.169 HD
ENDROOT
BRANCH   1   5
HETATM    5  C   UNL     1      40.070 -14.890   1.275  1.00  0.00     0.035 A 
HETATM    6  C   UNL     1      40.382 -14.152   0.132  1.00  0.00     0.038 A 
HETATM    7  C   UNL     1      39.387 -13.505  -0.621  1.00  0.00    -0.030 A 
HETATM    8  C   UNL     1      38.065 -13.546  -0.162  1.00  0.00     0.009 A 
HETATM    9  C   UNL     1      37.749 -14.250   1.002  1.00  0.00     0.003 A 
HETATM   10  C   UNL     1      38.745 -14.928   1.709  1.00  0.00     0.029 A 
BRANCH   7  11
HETATM   11  C   UNL     1      39.760 -12.816  -1.907  1.00  0.00     0.273 C 
BRANCH  11  12
HETATM   12  N   UNL     1      40.575 -11.532  -1.765  1.00  0.00    -0.068 N 
HETATM   13  H   UNL     1      41.113 -11.645  -0.898  1.00  0.00     0.280 HD
BRANCH  12  14
HETATM   14  C   UNL     1      39.734 -10.282  -1.577  1.00  0.00     0.231 C 
HETATM   15  C   UNL     1      39.658  -9.886  -0.113  1.00  0.00     0.034 C 
ENDBRANCH  12  14
BRANCH  12  16
HETATM   16  C   UNL     1      41.609 -11.316  -2.861  1.00  0.00     0.231 C 
HETATM   17  C   UNL     1      42.885 -10.709  -2.308  1.00  0.00     0.034 C 
ENDBRANCH  12  16
ENDBRANCH  11  12
ENDBRANCH   7  11
ENDBRANCH   1   5
BRANCH   2  18
HETATM   18  C   UNL     1      42.255 -17.417   2.948  1.00  0.00     0.157 A 
HETATM   19  N   UNL     1      42.538 -16.646   4.021  1.00  0.00    -0.168 NA
HETATM   20  N   UNL     1      43.434 -17.379   4.711  1.00  0.00    -0.277 N 
HETATM   21  H   UNL     1      43.792 -17.011   5.585  1.00  0.00     0.189 HD
HETATM   22  C   UNL     1      43.763 -18.570   4.123  1.00  0.00     0.063 A 
HETATM   23  C   UNL     1      43.016 -18.622   2.953  1.00  0.00     0.029 A 
HETATM   24  C   UNL     1      44.641 -19.584   4.512  1.00  0.00     0.032 A 
HETATM   25  C   UNL     1      43.156 -19.740   2.106  1.00  0.00     0.023 A 
HETATM   26  C   UNL     1      44.036 -20.775   2.465  1.00  0.00    -0.061 A 
HETATM   27  C   UNL     1      44.768 -20.684   3.655  1.00  0.00     0.009 A 
HETATM   28  C   UNL     1      44.234 -21.939   1.536  1.00  0.00     0.048 C 
ENDBRANCH   2  18
TORSDOF 6
ENDMDL
MODEL 7
REMARK VINA RESULT:      -7.5      1.768      2.771
REMARK  6 active torsions:
REMARK  status: ('A' for Active; 'I' for Inactive)
REMARK    1  A    between atoms: C_2  and  N_3 
REMARK    2  A    between atoms: N_3  and  C_5 
REMARK    3  A    between atoms: N_3  and  C_26 
REMARK    4  A    between atoms: C_5  and  C_6 
REMARK    5  A    between atoms: C_8  and  N_9 
REMARK       I    between atoms: N_9  and  C_10 
REMARK    6  A    between atoms: C_10  and  C_11 
ROOT
HETATM    1  N   UNL     1      42.124 -15.905   1.022  1.00  0.00    -0.322 N 
HETATM    2  C   UNL     1      41.489 -16.647   2.007  1.00  0.00     0.277 C 
HETATM    3  O   UNL     1      40.283 -16.872   2.066  1.00  0.00    -0.266 OA
HETATM    4  H   UNL     1      43.133 -15.847   1.153  1.00  0.00     0.169 HD
ENDROOT
BRANCH   1   5
HETATM    5  C   UNL     1      41.544 -15.203  -0.046  1.00  0.00     0.035 A 
HETATM    6  C   UNL     1      41.336 -13.823  -0.029  1.00  0.00     0.038 A 
HETATM    7  C   UNL     1      40.847 -13.138  -1.154  1.00  0.00    -0.030 A 
HETATM    8  C   UNL     1      40.491 -13.877  -2.288  1.00  0.00     0.009 A 
HETATM    9  C   UNL     1      40.659 -15.263  -2.301  1.00  0.00     0.003 A 
HETATM   10  C   UNL     1      41.194 -15.921  -1.191  1.00  0.00     0.029 A 
BRANCH   7  11
HETATM   11  C   UNL     1      40.747 -11.635  -1.123  1.00  0.00     0.273 C 
BRANCH  11  12
HETATM   12  N   UNL     1      41.724 -10.882  -2.025  1.00  0.00    -0.068 N 
HETATM   13  H   UNL     1      42.500 -11.534  -2.189  1.00  0.00     0.280 HD
BRANCH  12  14
HETATM   14  C   UNL     1      42.338  -9.652  -1.383  1.00  0.00     0.231 C 
HETATM   15  C   UNL     1      43.840  -9.805  -1.227  1.00  0.00     0.034 C 
ENDBRANCH  12  14
BRANCH  12  16
HETATM   16  C   UNL     1      41.177 -10.544  -3.404  1.00  0.00     0.231 C 
HETATM   17  C   UNL     1      42.199 -10.825  -4.491  1.00  0.00     0.034 C 
ENDBRANCH  12  16
ENDBRANCH  11  12
ENDBRANCH   7  11
ENDBRANCH   1   5
BRANCH   2  18
HETATM   18  C   UNL     1      42.432 -17.130   3.028  1.00  0.00     0.157 A 
HETATM   19  N   UNL     1      42.732 -16.380   4.112  1.00  0.00    -0.168 NA
HETATM   20  N   UNL     1      43.559 -17.169   4.826  1.00  0.00    -0.277 N 
HETATM   21  H   UNL     1      43.913 -16.824   5.711  1.00  0.00     0.189 HD
HETATM   22  C   UNL     1      43.827 -18.378   4.245  1.00  0.00     0.063 A 
HETATM   23  C   UNL     1      43.114 -18.381   3.054  1.00  0.00     0.029 A 
HETATM   24  C   UNL     1      44.627 -19.446   4.658  1.00  0.00     0.032 A 
HETATM   25  C   UNL     1      43.207 -19.506   2.209  1.00  0.00     0.023 A 
HETATM   26  C   UNL     1      44.008 -20.595   2.591  1.00  0.00    -0.061 A 
HETATM   27  C   UNL     1      44.708 -20.552   3.802  1.00  0.00     0.009 A 
HETATM   28  C   UNL     1      44.158 -21.769   1.666  1.00  0.00     0.048 C 
ENDBRANCH   2  18
TORSDOF 6
ENDMDL
MODEL 8
REMARK VINA RESULT:      -7.4      2.273      3.386
REMARK  6 active torsions:
REMARK  status: ('A' for Active; 'I' for Inactive)
REMARK    1  A    between atoms: C_2  and  N_3 
REMARK    2  A    between atoms: N_3  and  C_5 
REMARK    3  A    between atoms: N_3  and  C_26 
REMARK    4  A    between atoms: C_5  and  C_6 
REMARK    5  A    between atoms: C_8  and  N_9 
REMARK       I    between atoms: N_9  and  C_10 
REMARK    6  A    between atoms: C_10  and  C_11 
ROOT
HETATM    1  N   UNL     1      42.183 -17.152   2.878  1.00  0.00    -0.322 N 
HETATM    2  C   UNL     1      43.204 -16.750   3.725  1.00  0.00     0.277 C 
HETATM    3  O   UNL     1      43.627 -15.603   3.841  1.00  0.00    -0.266 OA
HETATM    4  H   UNL     1      41.978 -18.148   2.943  1.00  0.00     0.169 HD
ENDROOT
BRANCH   1   5
HETATM    5  C   UNL     1      41.482 -16.382   1.937  1.00  0.00     0.035 A 
HETATM    6  C   UNL     1      40.271 -15.747   2.220  1.00  0.00     0.038 A 
HETATM    7  C   UNL     1      39.647 -14.901   1.288  1.00  0.00    -0.030 A 
HETATM    8  C   UNL     1      40.223 -14.757   0.021  1.00  0.00     0.009 A 
HETATM    9  C   UNL     1      41.414 -15.418  -0.286  1.00  0.00     0.003 A 
HETATM   10  C   UNL     1      42.046 -16.216   0.672  1.00  0.00     0.029 A 
BRANCH   7  11
HETATM   11  C   UNL     1      38.401 -14.151   1.683  1.00  0.00     0.273 C 
BRANCH  11  12
HETATM   12  N   UNL     1      38.596 -12.684   2.060  1.00  0.00    -0.068 N 
HETATM   13  H   UNL     1      37.922 -12.504   2.814  1.00  0.00     0.280 HD
BRANCH  12  14
HETATM   14  C   UNL     1      38.253 -11.708   0.949  1.00  0.00     0.231 C 
HETATM   15  C   UNL     1      37.138 -12.245   0.070  1.00  0.00     0.034 C 
ENDBRANCH  12  14
BRANCH  12  16
HETATM   16  C   UNL     1      39.961 -12.359   2.649  1.00  0.00     0.231 C 
HETATM   17  C   UNL     1      40.729 -11.390   1.768  1.00  0.00     0.034 C 
ENDBRANCH  12  16
ENDBRANCH  11  12
ENDBRANCH   7  11
ENDBRANCH   1   5
BRANCH   2  18
HETATM   18  C   UNL     1      43.773 -17.879   4.479  1.00  0.00     0.157 A 
HETATM   19  N   UNL     1      44.116 -17.747   5.780  1.00  0.00    -0.168 NA
HETATM   20  N   UNL     1      44.529 -18.983   6.126  1.00  0.00    -0.277 N 
HETATM   21  H   UNL     1      44.828 -19.144   7.081  1.00  0.00     0.189 HD
HETATM   22  C   UNL     1      44.494 -19.896   5.108  1.00  0.00     0.063 A 
HETATM   23  C   UNL     1      44.015 -19.201   4.005  1.00  0.00     0.029 A 
HETATM   24  C   UNL     1      44.843 -21.248   5.064  1.00  0.00     0.032 A 
HETATM   25  C   UNL     1      43.884 -19.881   2.777  1.00  0.00     0.023 A 
HETATM   26  C   UNL     1      44.232 -21.240   2.697  1.00  0.00    -0.061 A 
HETATM   27  C   UNL     1      44.709 -21.904   3.834  1.00  0.00     0.009 A 
HETATM   28  C   UNL     1      44.152 -21.952   1.377  1.00  0.00     0.048 C 
ENDBRANCH   2  18
TORSDOF 6
ENDMDL
MODEL 9
REMARK VINA RESULT:      -7.3      1.780      2.994
REMARK  6 active torsions:
REMARK  status: ('A' for Active; 'I' for Inactive)
REMARK    1  A    between atoms: C_2  and  N_3 
REMARK    2  A    between atoms: N_3  and  C_5 
REMARK    3  A    between atoms: N_3  and  C_26 
REMARK    4  A    between atoms: C_5  and  C_6 
REMARK    5  A    between atoms: C_8  and  N_9 
REMARK       I    between atoms: N_9  and  C_10 
REMARK    6  A    between atoms: C_10  and  C_11 
ROOT
HETATM    1  N   UNL     1      41.993 -16.046   1.074  1.00  0.00    -0.322 N 
HETATM    2  C   UNL     1      41.406 -16.848   2.040  1.00  0.00     0.277 C 
HETATM    3  O   UNL     1      40.210 -17.118   2.116  1.00  0.00    -0.266 OA
HETATM    4  H   UNL     1      43.002 -15.958   1.185  1.00  0.00     0.169 HD
ENDROOT
BRANCH   1   5
HETATM    5  C   UNL     1      41.365 -15.323   0.047  1.00  0.00     0.035 A 
HETATM    6  C   UNL     1      40.799 -14.061   0.239  1.00  0.00     0.038 A 
HETATM    7  C   UNL     1      40.269 -13.322  -0.832  1.00  0.00    -0.030 A 
HETATM    8  C   UNL     1      40.245 -13.905  -2.104  1.00  0.00     0.009 A 
HETATM    9  C   UNL     1      40.774 -15.183  -2.299  1.00  0.00     0.003 A 
HETATM   10  C   UNL     1      41.342 -15.882  -1.231  1.00  0.00     0.029 A 
BRANCH   7  11
HETATM   11  C   UNL     1      39.773 -11.920  -0.592  1.00  0.00     0.273 C 
BRANCH  11  12
HETATM   12  N   UNL     1      39.265 -11.623   0.818  1.00  0.00    -0.068 N 
HETATM   13  H   UNL     1      39.317 -12.518   1.320  1.00  0.00     0.280 HD
BRANCH  12  14
HETATM   14  C   UNL     1      37.811 -11.193   0.876  1.00  0.00     0.231 C 
HETATM   15  C   UNL     1      36.880 -12.364   0.614  1.00  0.00     0.034 C 
ENDBRANCH  12  14
BRANCH  12  16
HETATM   16  C   UNL     1      40.135 -10.660   1.613  1.00  0.00     0.231 C 
HETATM   17  C   UNL     1      40.377 -11.165   3.024  1.00  0.00     0.034 C 
ENDBRANCH  12  16
ENDBRANCH  11  12
ENDBRANCH   7  11
ENDBRANCH   1   5
BRANCH   2  18
HETATM   18  C   UNL     1      42.388 -17.339   3.021  1.00  0.00     0.157 A 
HETATM   19  N   UNL     1      42.703 -16.611   4.116  1.00  0.00    -0.168 NA
HETATM   20  N   UNL     1      43.566 -17.402   4.785  1.00  0.00    -0.277 N 
HETATM   21  H   UNL     1      43.938 -17.074   5.669  1.00  0.00     0.189 HD
HETATM   22  C   UNL     1      43.843 -18.588   4.164  1.00  0.00     0.063 A 
HETATM   23  C   UNL     1      43.096 -18.575   2.993  1.00  0.00     0.029 A 
HETATM   24  C   UNL     1      44.676 -19.650   4.524  1.00  0.00     0.032 A 
HETATM   25  C   UNL     1      43.188 -19.674   2.115  1.00  0.00     0.023 A 
HETATM   26  C   UNL     1      44.022 -20.756   2.444  1.00  0.00    -0.061 A 
HETATM   27  C   UNL     1      44.756 -20.731   3.637  1.00  0.00     0.009 A 
HETATM   28  C   UNL     1      44.170 -21.901   1.484  1.00  0.00     0.048 C 
ENDBRANCH   2  18
TORSDOF 6
ENDMDL
MODEL 10
REMARK VINA RESULT:      -7.3      2.765      3.890
REMARK  6 active torsions:
REMARK  status: ('A' for Active; 'I' for Inactive)
REMARK    1  A    between atoms: C_2  and  N_3 
REMARK    2  A    between atoms: N_3  and  C_5 
REMARK    3  A    between atoms: N_3  and  C_26 
REMARK    4  A    between atoms: C_5  and  C_6 
REMARK    5  A    between atoms: C_8  and  N_9 
REMARK       I    between atoms: N_9  and  C_10 
REMARK    6  A    between atoms: C_10  and  C_11 
ROOT
HETATM    1  N   UNL     1      41.699 -15.968   5.623  1.00  0.00    -0.322 N 
HETATM    2  C   UNL     1      42.907 -15.973   6.303  1.00  0.00     0.277 C 
HETATM    3  O   UNL     1      43.610 -14.990   6.520  1.00  0.00    -0.266 OA
HETATM    4  H   UNL     1      41.269 -16.890   5.562  1.00  0.00     0.169 HD
ENDROOT
BRANCH   1   5
HETATM    5  C   UNL     1      41.068 -14.890   4.983  1.00  0.00     0.035 A 
HETATM    6  C   UNL     1      41.291 -14.561   3.644  1.00  0.00     0.038 A 
HETATM    7  C   UNL     1      40.568 -13.539   3.006  1.00  0.00    -0.030 A 
HETATM    8  C   UNL     1      39.659 -12.789   3.761  1.00  0.00     0.009 A 
HETATM    9  C   UNL     1      39.456 -13.085   5.110  1.00  0.00     0.003 A 
HETATM   10  C   UNL     1      40.148 -14.138   5.714  1.00  0.00     0.029 A 
BRANCH   7  11
HETATM   11  C   UNL     1      40.765 -13.299   1.532  1.00  0.00     0.273 C 
BRANCH  11  12
HETATM   12  N   UNL     1      39.989 -14.223   0.595  1.00  0.00    -0.068 N 
HETATM   13  H   UNL     1      39.731 -15.036   1.167  1.00  0.00     0.280 HD
BRANCH  12  14
HETATM   14  C   UNL     1      40.810 -14.767  -0.560  1.00  0.00     0.231 C 
HETATM   15  C   UNL     1      41.770 -13.719  -1.094  1.00  0.00     0.034 C 
ENDBRANCH  12  14
BRANCH  12  16
HETATM   16  C   UNL     1      38.675 -13.648   0.088  1.00  0.00     0.231 C 
HETATM   17  C   UNL     1      37.492 -14.195   0.866  1.00  0.00     0.034 C 
ENDBRANCH  12  16
ENDBRANCH  11  12
ENDBRANCH   7  11
ENDBRANCH   1   5
BRANCH   2  18
HETATM   18  C   UNL     1      43.294 -17.328   6.731  1.00  0.00     0.157 A 
HETATM   19  N   UNL     1      43.295 -17.674   8.037  1.00  0.00    -0.168 NA
HETATM   20  N   UNL     1      43.636 -18.977   8.020  1.00  0.00    -0.277 N 
HETATM   21  H   UNL     1      43.689 -19.476   8.902  1.00  0.00     0.189 HD
HETATM   22  C   UNL     1      43.881 -19.481   6.773  1.00  0.00     0.063 A 
HETATM   23  C   UNL     1      43.679 -18.420   5.900  1.00  0.00     0.029 A 
HETATM   24  C   UNL     1      44.260 -20.756   6.347  1.00  0.00     0.032 A 
HETATM   25  C   UNL     1      43.877 -18.627   4.520  1.00  0.00     0.023 A 
HETATM   26  C   UNL     1      44.266 -19.896   4.058  1.00  0.00    -0.061 A 
HETATM   27  C   UNL     1      44.456 -20.940   4.972  1.00  0.00     0.009 A 
HETATM   28  C   UNL     1      44.538 -20.105   2.596  1.00  0.00     0.048 C 
ENDBRANCH   2  18
TORSDOF 6
ENDMDL
