MODEL 1
REMARK VINA RESULT:      -9.4      0.000      0.000
REMARK  6 active torsions:
REMARK  status: ('A' for Active; 'I' for Inactive)
REMARK    1  A    between atoms: C_5  and  C_6 
REMARK    2  A    between atoms: C_6  and  C_7 
REMARK       I    between atoms: C_7  and  N_8 
REMARK    3  A    between atoms: N_8  and  N_9 
REMARK       I    between atoms: N_9  and  C_10 
REMARK    4  A    between atoms: C_10  and  C_11 
REMARK    5  A    between atoms: C_15  and  C_16 
REMARK    6  A    between atoms: C_19  and  O_20 
ROOT
HETATM    1  N   UNL     1      44.143 -13.697   8.220  1.00  0.00    -0.262 N 
HETATM    2  C   UNL     1      43.626 -14.098   7.006  1.00  0.00     0.288 C 
HETATM    3  O   UNL     1      43.131 -13.302   6.211  1.00  0.00    -0.264 OA
HETATM    4  H   UNL     1      44.444 -14.353   8.937  1.00  0.00     0.190 HD
ENDROOT
BRANCH   2   5
HETATM    5  C   UNL     1      43.707 -15.510   6.751  1.00  0.00     0.121 A 
HETATM    6  N   UNL     1      43.516 -16.442   7.732  1.00  0.00    -0.272 N 
HETATM    7  H   UNL     1      43.305 -16.264   8.710  1.00  0.00     0.189 HD
HETATM    8  N   UNL     1      43.616 -17.712   7.312  1.00  0.00    -0.174 NA
HETATM    9  C   UNL     1      43.905 -17.617   6.004  1.00  0.00     0.089 A 
HETATM   10  C   UNL     1      43.964 -16.250   5.614  1.00  0.00     0.071 A 
BRANCH   9  11
HETATM   11  C   UNL     1      44.104 -18.800   5.161  1.00  0.00    -0.005 A 
HETATM   12  C   UNL     1      43.938 -18.723   3.772  1.00  0.00     0.016 A 
HETATM   13  C   UNL     1      44.153 -19.845   2.965  1.00  0.00     0.037 A 
HETATM   14  C   UNL     1      44.536 -21.065   3.528  1.00  0.00     0.068 A 
HETATM   15  C   UNL     1      44.689 -21.156   4.910  1.00  0.00     0.037 A 
HETATM   16  C   UNL     1      44.474 -20.031   5.719  1.00  0.00     0.016 A 
BRANCH  14  17
HETATM   17  O   UNL     1      44.723 -22.078   2.630  1.00  0.00    -0.356 OA
HETATM   18  C   UNL     1      44.068 -21.953   1.374  1.00  0.00     0.210 C 
ENDBRANCH  14  17
ENDBRANCH   9  11
ENDBRANCH   2   5
BRANCH   1  19
HETATM   19  N   UNL     1      43.978 -12.374   8.640  1.00  0.00    -0.267 N 
HETATM   20  C   UNL     1      44.250 -12.089   9.962  1.00  0.00     0.240 C 
HETATM   21  O   UNL     1      44.696 -12.938  10.734  1.00  0.00    -0.272 OA
HETATM   22  H   UNL     1      43.536 -11.726   7.990  1.00  0.00     0.190 HD
BRANCH  20  23
HETATM   23  C   UNL     1      43.984 -10.655  10.369  1.00  0.00     0.143 C 
BRANCH  23  24
HETATM   24  C   UNL     1      43.315 -10.466  11.711  1.00  0.00    -0.049 A 
HETATM   25  C   UNL     1      42.122 -11.104  12.074  1.00  0.00     0.008 A 
HETATM   26  C   UNL     1      41.538 -10.871  13.324  1.00  0.00     0.007 A 
HETATM   27  C   UNL     1      42.122  -9.980  14.228  1.00  0.00    -0.062 A 
HETATM   28  C   UNL     1      41.509  -9.748  15.578  1.00  0.00     0.048 C 
HETATM   29  C   UNL     1      43.315  -9.343  13.874  1.00  0.00     0.007 A 
HETATM   30  C   UNL     1      43.900  -9.579  12.629  1.00  0.00     0.008 A 
ENDBRANCH  23  24
ENDBRANCH  20  23
ENDBRANCH   1  19
TORSDOF 6
ENDMDL
MODEL 2
REMARK VINA RESULT:      -8.7      1.774      2.346
REMARK  6 active torsions:
REMARK  status: ('A' for Active; 'I' for Inactive)
REMARK    1  A    between atoms: C_5  and  C_6 
REMARK    2  A    between atoms: C_6  and  C_7 
REMARK       I    between atoms: C_7  and  N_8 
REMARK    3  A    between atoms: N_8  and  N_9 
REMARK       I    between atoms: N_9  and  C_10 
REMARK    4  A    between atoms: C_10  and  C_11 
REMARK    5  A    between atoms: C_15  and  C_16 
REMARK    6  A    between atoms: C_19  and  O_20 
ROOT
HETATM    1  N   UNL     1      44.015 -12.744   9.261  1.00  0.00    -0.262 N 
HETATM    2  C   UNL     1      44.827 -13.088   8.201  1.00  0.00     0.288 C 
HETATM    3  O   UNL     1      45.993 -12.707   8.120  1.00  0.00    -0.264 OA
HETATM    4  H   UNL     1      43.018 -12.949   9.284  1.00  0.00     0.190 HD
ENDROOT
BRANCH   2   5
HETATM    5  C   UNL     1      44.204 -13.915   7.205  1.00  0.00     0.121 A 
HETATM    6  N   UNL     1      43.014 -13.585   6.622  1.00  0.00    -0.272 N 
HETATM    7  H   UNL     1      42.450 -12.761   6.809  1.00  0.00     0.189 HD
HETATM    8  N   UNL     1      42.587 -14.466   5.704  1.00  0.00    -0.174 NA
HETATM    9  C   UNL     1      43.523 -15.429   5.694  1.00  0.00     0.089 A 
HETATM   10  C   UNL     1      44.558 -15.114   6.618  1.00  0.00     0.071 A 
BRANCH   9  11
HETATM   11  C   UNL     1      43.430 -16.600   4.817  1.00  0.00    -0.005 A 
HETATM   12  C   UNL     1      43.139 -16.451   3.455  1.00  0.00     0.016 A 
HETATM   13  C   UNL     1      43.076 -17.566   2.613  1.00  0.00     0.037 A 
HETATM   14  C   UNL     1      43.299 -18.850   3.114  1.00  0.00     0.068 A 
HETATM   15  C   UNL     1      43.574 -19.011   4.470  1.00  0.00     0.037 A 
HETATM   16  C   UNL     1      43.639 -17.894   5.314  1.00  0.00     0.016 A 
BRANCH  14  17
HETATM   17  O   UNL     1      43.218 -19.851   2.187  1.00  0.00    -0.356 OA
HETATM   18  C   UNL     1      44.131 -20.933   2.329  1.00  0.00     0.210 C 
ENDBRANCH  14  17
ENDBRANCH   9  11
ENDBRANCH   2   5
BRANCH   1  19
HETATM   19  N   UNL     1      44.465 -11.818  10.206  1.00  0.00    -0.267 N 
HETATM   20  C   UNL     1      43.514 -11.047  10.843  1.00  0.00     0.240 C 
HETATM   21  O   UNL     1      42.309 -11.211  10.653  1.00  0.00    -0.272 OA
HETATM   22  H   UNL     1      45.470 -11.665  10.274  1.00  0.00     0.190 HD
BRANCH  20  23
HETATM   23  C   UNL     1      44.071 -10.017  11.802  1.00  0.00     0.143 C 
BRANCH  23  24
HETATM   24  C   UNL     1      43.116  -9.528  12.868  1.00  0.00    -0.049 A 
HETATM   25  C   UNL     1      42.582  -8.233  12.889  1.00  0.00     0.008 A 
HETATM   26  C   UNL     1      41.721  -7.833  13.915  1.00  0.00     0.007 A 
HETATM   27  C   UNL     1      41.391  -8.709  14.953  1.00  0.00    -0.062 A 
HETATM   28  C   UNL     1      40.449  -8.287  16.041  1.00  0.00     0.048 C 
HETATM   29  C   UNL     1      41.918 -10.004  14.936  1.00  0.00     0.007 A 
HETATM   30  C   UNL     1      42.774 -10.406  13.909  1.00  0.00     0.008 A 
ENDBRANCH  23  24
ENDBRANCH  20  23
ENDBRANCH   1  19
TORSDOF 6
ENDMDL
MODEL 3
REMARK VINA RESULT:      -8.7      1.743      2.292
REMARK  6 active torsions:
REMARK  status: ('A' for Active; 'I' for Inactive)
REMARK    1  A    between atoms: C_5  and  C_6 
REMARK    2  A    between atoms: C_6  and  C_7 
REMARK       I    between atoms: C_7  and  N_8 
REMARK    3  A    between atoms: N_8  and  N_9 
REMARK       I    between atoms: N_9  and  C_10 
REMARK    4  A    between atoms: C_10  and  C_11 
REMARK    5  A    between atoms: C_15  and  C_16 
REMARK    6  A    between atoms: C_19  and  O_20 
ROOT
HETATM    1  N   UNL     1      44.338 -14.034   7.631  1.00  0.00    -0.262 N 
HETATM    2  C   UNL     1      43.474 -13.809   6.580  1.00  0.00     0.288 C 
HETATM    3  O   UNL     1      42.784 -12.795   6.507  1.00  0.00    -0.264 OA
HETATM    4  H   UNL     1      44.824 -14.918   7.769  1.00  0.00     0.190 HD
ENDROOT
BRANCH   2   5
HETATM    5  C   UNL     1      43.443 -14.849   5.589  1.00  0.00     0.121 A 
HETATM    6  N   UNL     1      42.913 -14.657   4.345  1.00  0.00    -0.272 N 
HETATM    7  H   UNL     1      42.498 -13.803   3.984  1.00  0.00     0.189 HD
HETATM    8  N   UNL     1      42.980 -15.732   3.546  1.00  0.00    -0.174 NA
HETATM    9  C   UNL     1      43.558 -16.682   4.298  1.00  0.00     0.089 A 
HETATM   10  C   UNL     1      43.870 -16.163   5.586  1.00  0.00     0.071 A 
BRANCH   9  11
HETATM   11  C   UNL     1      43.813 -18.034   3.791  1.00  0.00    -0.005 A 
HETATM   12  C   UNL     1      44.416 -19.000   4.605  1.00  0.00     0.016 A 
HETATM   13  C   UNL     1      44.635 -20.298   4.129  1.00  0.00     0.037 A 
HETATM   14  C   UNL     1      44.259 -20.653   2.832  1.00  0.00     0.068 A 
HETATM   15  C   UNL     1      43.672 -19.695   2.009  1.00  0.00     0.037 A 
HETATM   16  C   UNL     1      43.451 -18.395   2.486  1.00  0.00     0.016 A 
BRANCH  14  17
HETATM   17  O   UNL     1      44.519 -21.952   2.495  1.00  0.00    -0.356 OA
HETATM   18  C   UNL     1      44.644 -22.881   3.564  1.00  0.00     0.210 C 
ENDBRANCH  14  17
ENDBRANCH   9  11
ENDBRANCH   2   5
BRANCH   1  19
HETATM   19  N   UNL     1      44.336 -13.167   8.727  1.00  0.00    -0.267 N 
HETATM   20  C   UNL     1      45.446 -12.367   8.906  1.00  0.00     0.240 C 
HETATM   21  O   UNL     1      46.374 -12.350   8.098  1.00  0.00    -0.272 OA
HETATM   22  H   UNL     1      43.584 -13.270   9.407  1.00  0.00     0.190 HD
BRANCH  20  23
HETATM   23  C   UNL     1      45.411 -11.502  10.149  1.00  0.00     0.143 C 
BRANCH  23  24
HETATM   24  C   UNL     1      44.035 -11.176  10.684  1.00  0.00    -0.049 A 
HETATM   25  C   UNL     1      43.129 -10.338  10.022  1.00  0.00     0.008 A 
HETATM   26  C   UNL     1      41.878 -10.056  10.580  1.00  0.00     0.007 A 
HETATM   27  C   UNL     1      41.514 -10.587  11.820  1.00  0.00    -0.062 A 
HETATM   28  C   UNL     1      40.163 -10.303  12.408  1.00  0.00     0.048 C 
HETATM   29  C   UNL     1      42.412 -11.427  12.485  1.00  0.00     0.007 A 
HETATM   30  C   UNL     1      43.660 -11.713  11.926  1.00  0.00     0.008 A 
ENDBRANCH  23  24
ENDBRANCH  20  23
ENDBRANCH   1  19
TORSDOF 6
ENDMDL
MODEL 4
REMARK VINA RESULT:      -8.4      2.380      2.760
REMARK  6 active torsions:
REMARK  status: ('A' for Active; 'I' for Inactive)
REMARK    1  A    between atoms: C_5  and  C_6 
REMARK    2  A    between atoms: C_6  and  C_7 
REMARK       I    between atoms: C_7  and  N_8 
REMARK    3  A    between atoms: N_8  and  N_9 
REMARK       I    between atoms: N_9  and  C_10 
REMARK    4  A    between atoms: C_10  and  C_11 
REMARK    5  A    between atoms: C_15  and  C_16 
REMARK    6  A    between atoms: C_19  and  O_20 
ROOT
HETATM    1  N   UNL     1      42.057 -12.442   6.615  1.00  0.00    -0.262 N 
HETATM    2  C   UNL     1      41.867 -12.451   5.249  1.00  0.00     0.288 C 
HETATM    3  O   UNL     1      41.242 -11.565   4.670  1.00  0.00    -0.264 OA
HETATM    4  H   UNL     1      42.465 -13.226   7.121  1.00  0.00     0.190 HD
ENDROOT
BRANCH   2   5
HETATM    5  C   UNL     1      42.450 -13.572   4.564  1.00  0.00     0.121 A 
HETATM    6  N   UNL     1      43.145 -13.433   3.396  1.00  0.00    -0.272 N 
HETATM    7  H   UNL     1      43.327 -12.569   2.893  1.00  0.00     0.189 HD
HETATM    8  N   UNL     1      43.629 -14.582   2.903  1.00  0.00    -0.174 NA
HETATM    9  C   UNL     1      43.221 -15.524   3.769  1.00  0.00     0.089 A 
HETATM   10  C   UNL     1      42.483 -14.927   4.829  1.00  0.00     0.071 A 
BRANCH   9  11
HETATM   11  C   UNL     1      43.541 -16.943   3.588  1.00  0.00    -0.005 A 
HETATM   12  C   UNL     1      43.680 -17.791   4.694  1.00  0.00     0.016 A 
HETATM   13  C   UNL     1      43.960 -19.150   4.520  1.00  0.00     0.037 A 
HETATM   14  C   UNL     1      44.108 -19.689   3.240  1.00  0.00     0.068 A 
HETATM   15  C   UNL     1      43.986 -18.851   2.134  1.00  0.00     0.037 A 
HETATM   16  C   UNL     1      43.705 -17.489   2.307  1.00  0.00     0.016 A 
BRANCH  14  17
HETATM   17  O   UNL     1      44.369 -21.030   3.208  1.00  0.00    -0.356 OA
HETATM   18  C   UNL     1      44.173 -21.692   1.965  1.00  0.00     0.210 C 
ENDBRANCH  14  17
ENDBRANCH   9  11
ENDBRANCH   2   5
BRANCH   1  19
HETATM   19  N   UNL     1      41.404 -11.488   7.399  1.00  0.00    -0.267 N 
HETATM   20  C   UNL     1      42.145 -10.851   8.373  1.00  0.00     0.240 C 
HETATM   21  O   UNL     1      43.353 -11.050   8.507  1.00  0.00    -0.272 OA
HETATM   22  H   UNL     1      40.392 -11.414   7.304  1.00  0.00     0.190 HD
BRANCH  20  23
HETATM   23  C   UNL     1      41.363  -9.881   9.233  1.00  0.00     0.143 C 
BRANCH  23  24
HETATM   24  C   UNL     1      41.605  -9.979  10.722  1.00  0.00    -0.049 A 
HETATM   25  C   UNL     1      41.023 -10.960  11.534  1.00  0.00     0.008 A 
HETATM   26  C   UNL     1      41.268 -10.986  12.911  1.00  0.00     0.007 A 
HETATM   27  C   UNL     1      42.082 -10.019  13.508  1.00  0.00    -0.062 A 
HETATM   28  C   UNL     1      42.363 -10.059  14.981  1.00  0.00     0.048 C 
HETATM   29  C   UNL     1      42.669  -9.039  12.703  1.00  0.00     0.007 A 
HETATM   30  C   UNL     1      42.429  -9.016  11.327  1.00  0.00     0.008 A 
ENDBRANCH  23  24
ENDBRANCH  20  23
ENDBRANCH   1  19
TORSDOF 6
ENDMDL
MODEL 5
REMARK VINA RESULT:      -8.3      2.127      2.387
REMARK  6 active torsions:
REMARK  status: ('A' for Active; 'I' for Inactive)
REMARK    1  A    between atoms: C_5  and  C_6 
REMARK    2  A    between atoms: C_6  and  C_7 
REMARK       I    between atoms: C_7  and  N_8 
REMARK    3  A    between atoms: N_8  and  N_9 
REMARK       I    between atoms: N_9  and  C_10 
REMARK    4  A    between atoms: C_10  and  C_11 
REMARK    5  A    between atoms: C_15  and  C_16 
REMARK    6  A    between atoms: C_19  and  O_20 
ROOT
HETATM    1  N   UNL     1      41.869 -12.972   6.618  1.00  0.00    -0.262 N 
HETATM    2  C   UNL     1      40.772 -13.681   6.177  1.00  0.00     0.288 C 
HETATM    3  O   UNL     1      39.641 -13.199   6.172  1.00  0.00    -0.264 OA
HETATM    4  H   UNL     1      42.787 -13.393   6.742  1.00  0.00     0.190 HD
ENDROOT
BRANCH   2   5
HETATM    5  C   UNL     1      41.054 -15.017   5.731  1.00  0.00     0.121 A 
HETATM    6  N   UNL     1      40.187 -16.053   5.931  1.00  0.00    -0.272 N 
HETATM    7  H   UNL     1      39.284 -16.012   6.396  1.00  0.00     0.189 HD
HETATM    8  N   UNL     1      40.607 -17.227   5.438  1.00  0.00    -0.174 NA
HETATM    9  C   UNL     1      41.812 -16.963   4.906  1.00  0.00     0.089 A 
HETATM   10  C   UNL     1      42.124 -15.584   5.065  1.00  0.00     0.071 A 
BRANCH   9  11
HETATM   11  C   UNL     1      42.624 -17.997   4.259  1.00  0.00    -0.005 A 
HETATM   12  C   UNL     1      42.525 -18.226   2.881  1.00  0.00     0.016 A 
HETATM   13  C   UNL     1      43.319 -19.195   2.260  1.00  0.00     0.037 A 
HETATM   14  C   UNL     1      44.225 -19.956   3.002  1.00  0.00     0.068 A 
HETATM   15  C   UNL     1      44.321 -19.747   4.376  1.00  0.00     0.037 A 
HETATM   16  C   UNL     1      43.527 -18.775   4.999  1.00  0.00     0.016 A 
BRANCH  14  17
HETATM   17  O   UNL     1      44.947 -20.861   2.274  1.00  0.00    -0.356 OA
HETATM   18  C   UNL     1      44.222 -21.929   1.677  1.00  0.00     0.210 C 
ENDBRANCH  14  17
ENDBRANCH   9  11
ENDBRANCH   2   5
BRANCH   1  19
HETATM   19  N   UNL     1      41.690 -11.723   7.219  1.00  0.00    -0.267 N 
HETATM   20  C   UNL     1      42.643 -11.313   8.129  1.00  0.00     0.240 C 
HETATM   21  O   UNL     1      43.656 -11.977   8.355  1.00  0.00    -0.272 OA
HETATM   22  H   UNL     1      40.804 -11.247   7.060  1.00  0.00     0.190 HD
BRANCH  20  23
HETATM   23  C   UNL     1      42.355  -9.984   8.795  1.00  0.00     0.143 C 
BRANCH  23  24
HETATM   24  C   UNL     1      42.410  -9.980  10.305  1.00  0.00    -0.049 A 
HETATM   25  C   UNL     1      43.604  -9.899  11.033  1.00  0.00     0.008 A 
HETATM   26  C   UNL     1      43.592  -9.922  12.431  1.00  0.00     0.007 A 
HETATM   27  C   UNL     1      42.389 -10.049  13.132  1.00  0.00    -0.062 A 
HETATM   28  C   UNL     1      42.373 -10.051  14.632  1.00  0.00     0.048 C 
HETATM   29  C   UNL     1      41.194 -10.126  12.412  1.00  0.00     0.007 A 
HETATM   30  C   UNL     1      41.205 -10.098  11.016  1.00  0.00     0.008 A 
ENDBRANCH  23  24
ENDBRANCH  20  23
ENDBRANCH   1  19
TORSDOF 6
ENDMDL
MODEL 6
REMARK VINA RESULT:      -8.2      9.180     12.858
REMARK  6 active torsions:
REMARK  status: ('A' for Active; 'I' for Inactive)
REMARK    1  A    between atoms: C_5  and  C_6 
REMARK    2  A    between atoms: C_6  and  C_7 
REMARK       I    between atoms: C_7  and  N_8 
REMARK    3  A    between atoms: N_8  and  N_9 
REMARK       I    between atoms: N_9  and  C_10 
REMARK    4  A    between atoms: C_10  and  C_11 
REMARK    5  A    between atoms: C_15  and  C_16 
REMARK    6  A    between atoms: C_19  and  O_20 
ROOT
HETATM    1  N   UNL     1      41.579 -16.202  -0.766  1.00  0.00    -0.262 N 
HETATM    2  C   UNL     1      41.199 -14.910  -1.065  1.00  0.00     0.288 C 
HETATM    3  O   UNL     1      41.765 -13.933  -0.579  1.00  0.00    -0.264 OA
HETATM    4  H   UNL     1      41.047 -17.017  -1.062  1.00  0.00     0.190 HD
ENDROOT
BRANCH   2   5
HETATM    5  C   UNL     1      40.096 -14.800  -1.979  1.00  0.00     0.121 A 
HETATM    6  N   UNL     1      39.868 -15.719  -2.963  1.00  0.00    -0.272 N 
HETATM    7  H   UNL     1      40.419 -16.549  -3.163  1.00  0.00     0.189 HD
HETATM    8  N   UNL     1      38.786 -15.465  -3.715  1.00  0.00    -0.174 NA
HETATM    9  C   UNL     1      38.289 -14.320  -3.221  1.00  0.00     0.089 A 
HETATM   10  C   UNL     1      39.080 -13.876  -2.125  1.00  0.00     0.071 A 
BRANCH   9  11
HETATM   11  C   UNL     1      37.089 -13.686  -3.775  1.00  0.00    -0.005 A 
HETATM   12  C   UNL     1      36.184 -14.423  -4.550  1.00  0.00     0.016 A 
HETATM   13  C   UNL     1      35.026 -13.825  -5.057  1.00  0.00     0.037 A 
HETATM   14  C   UNL     1      34.750 -12.480  -4.803  1.00  0.00     0.068 A 
HETATM   15  C   UNL     1      35.651 -11.733  -4.047  1.00  0.00     0.037 A 
HETATM   16  C   UNL     1      36.811 -12.333  -3.537  1.00  0.00     0.016 A 
BRANCH  14  17
HETATM   17  O   UNL     1      33.583 -12.020  -5.347  1.00  0.00    -0.356 OA
HETATM   18  C   UNL     1      33.594 -11.731  -6.739  1.00  0.00     0.210 C 
ENDBRANCH  14  17
ENDBRANCH   9  11
ENDBRANCH   2   5
BRANCH   1  19
HETATM   19  N   UNL     1      42.534 -16.430   0.228  1.00  0.00    -0.267 N 
HETATM   20  C   UNL     1      42.084 -16.890   1.448  1.00  0.00     0.240 C 
HETATM   21  O   UNL     1      40.900 -17.167   1.644  1.00  0.00    -0.272 OA
HETATM   22  H   UNL     1      43.486 -16.115   0.047  1.00  0.00     0.190 HD
BRANCH  20  23
HETATM   23  C   UNL     1      43.159 -17.050   2.502  1.00  0.00     0.143 C 
BRANCH  23  24
HETATM   24  C   UNL     1      43.571 -18.472   2.810  1.00  0.00    -0.049 A 
HETATM   25  C   UNL     1      44.148 -18.862   4.025  1.00  0.00     0.008 A 
HETATM   26  C   UNL     1      44.529 -20.190   4.242  1.00  0.00     0.007 A 
HETATM   27  C   UNL     1      44.362 -21.152   3.241  1.00  0.00    -0.062 A 
HETATM   28  C   UNL     1      44.750 -22.581   3.482  1.00  0.00     0.048 C 
HETATM   29  C   UNL     1      43.784 -20.770   2.028  1.00  0.00     0.007 A 
HETATM   30  C   UNL     1      43.399 -19.445   1.812  1.00  0.00     0.008 A 
ENDBRANCH  23  24
ENDBRANCH  20  23
ENDBRANCH   1  19
TORSDOF 6
ENDMDL
MODEL 7
REMARK VINA RESULT:      -7.9      2.813      3.445
REMARK  6 active torsions:
REMARK  status: ('A' for Active; 'I' for Inactive)
REMARK    1  A    between atoms: C_5  and  C_6 
REMARK    2  A    between atoms: C_6  and  C_7 
REMARK       I    between atoms: C_7  and  N_8 
REMARK    3  A    between atoms: N_8  and  N_9 
REMARK       I    between atoms: N_9  and  C_10 
REMARK    4  A    between atoms: C_10  and  C_11 
REMARK    5  A    between atoms: C_15  and  C_16 
REMARK    6  A    between atoms: C_19  and  O_20 
ROOT
HETATM    1  N   UNL     1      41.621 -12.764   6.597  1.00  0.00    -0.262 N 
HETATM    2  C   UNL     1      41.706 -12.681   5.224  1.00  0.00     0.288 C 
HETATM    3  O   UNL     1      41.693 -11.604   4.632  1.00  0.00    -0.264 OA
HETATM    4  H   UNL     1      41.509 -13.647   7.092  1.00  0.00     0.190 HD
ENDROOT
BRANCH   2   5
HETATM    5  C   UNL     1      41.807 -13.944   4.546  1.00  0.00     0.121 A 
HETATM    6  N   UNL     1      40.905 -14.338   3.598  1.00  0.00    -0.272 N 
HETATM    7  H   UNL     1      40.095 -13.818   3.273  1.00  0.00     0.189 HD
HETATM    8  N   UNL     1      41.160 -15.540   3.061  1.00  0.00    -0.174 NA
HETATM    9  C   UNL     1      42.265 -15.969   3.693  1.00  0.00     0.089 A 
HETATM   10  C   UNL     1      42.704 -14.991   4.627  1.00  0.00     0.071 A 
BRANCH   9  11
HETATM   11  C   UNL     1      42.880 -17.266   3.397  1.00  0.00    -0.005 A 
HETATM   12  C   UNL     1      43.651 -17.928   4.360  1.00  0.00     0.016 A 
HETATM   13  C   UNL     1      44.217 -19.177   4.087  1.00  0.00     0.037 A 
HETATM   14  C   UNL     1      44.026 -19.789   2.846  1.00  0.00     0.068 A 
HETATM   15  C   UNL     1      43.273 -19.133   1.874  1.00  0.00     0.037 A 
HETATM   16  C   UNL     1      42.705 -17.881   2.149  1.00  0.00     0.016 A 
BRANCH  14  17
HETATM   17  O   UNL     1      44.622 -21.012   2.710  1.00  0.00    -0.356 OA
HETATM   18  C   UNL     1      44.121 -21.860   1.684  1.00  0.00     0.210 C 
ENDBRANCH  14  17
ENDBRANCH   9  11
ENDBRANCH   2   5
BRANCH   1  19
HETATM   19  N   UNL     1      41.364 -11.613   7.346  1.00  0.00    -0.267 N 
HETATM   20  C   UNL     1      40.061 -11.392   7.744  1.00  0.00     0.240 C 
HETATM   21  O   UNL     1      39.165 -12.208   7.523  1.00  0.00    -0.272 OA
HETATM   22  H   UNL     1      42.117 -10.933   7.438  1.00  0.00     0.190 HD
BRANCH  20  23
HETATM   23  C   UNL     1      39.837 -10.095   8.492  1.00  0.00     0.143 C 
BRANCH  23  24
HETATM   24  C   UNL     1      40.617  -9.933   9.776  1.00  0.00    -0.049 A 
HETATM   25  C   UNL     1      41.390  -8.802  10.072  1.00  0.00     0.008 A 
HETATM   26  C   UNL     1      42.107  -8.721  11.269  1.00  0.00     0.007 A 
HETATM   27  C   UNL     1      42.087  -9.775  12.187  1.00  0.00    -0.062 A 
HETATM   28  C   UNL     1      42.838  -9.678  13.481  1.00  0.00     0.048 C 
HETATM   29  C   UNL     1      41.315 -10.905  11.900  1.00  0.00     0.007 A 
HETATM   30  C   UNL     1      40.594 -10.985  10.706  1.00  0.00     0.008 A 
ENDBRANCH  23  24
ENDBRANCH  20  23
ENDBRANCH   1  19
TORSDOF 6
ENDMDL
MODEL 8
REMARK VINA RESULT:      -7.7      7.685     11.796
REMARK  6 active torsions:
REMARK  status: ('A' for Active; 'I' for Inactive)
REMARK    1  A    between atoms: C_5  and  C_6 
REMARK    2  A    between atoms: C_6  and  C_7 
REMARK       I    between atoms: C_7  and  N_8 
REMARK    3  A    between atoms: N_8  and  N_9 
REMARK       I    between atoms: N_9  and  C_10 
REMARK    4  A    between atoms: C_10  and  C_11 
REMARK    5  A    between atoms: C_15  and  C_16 
REMARK    6  A    between atoms: C_19  and  O_20 
ROOT
HETATM    1  N   UNL     1      40.279 -15.500   3.410  1.00  0.00    -0.262 N 
HETATM    2  C   UNL     1      39.918 -15.780   2.109  1.00  0.00     0.288 C 
HETATM    3  O   UNL     1      40.042 -16.903   1.624  1.00  0.00    -0.264 OA
HETATM    4  H   UNL     1      40.297 -14.555   3.787  1.00  0.00     0.190 HD
ENDROOT
BRANCH   2   5
HETATM    5  C   UNL     1      39.394 -14.664   1.372  1.00  0.00     0.121 A 
HETATM    6  N   UNL     1      40.202 -13.747   0.763  1.00  0.00    -0.272 N 
HETATM    7  H   UNL     1      41.218 -13.738   0.756  1.00  0.00     0.189 HD
HETATM    8  N   UNL     1      39.543 -12.779   0.109  1.00  0.00    -0.174 NA
HETATM    9  C   UNL     1      38.244 -13.055   0.310  1.00  0.00     0.089 A 
HETATM   10  C   UNL     1      38.111 -14.235   1.093  1.00  0.00     0.071 A 
BRANCH   9  11
HETATM   11  C   UNL     1      37.173 -12.220  -0.243  1.00  0.00    -0.005 A 
HETATM   12  C   UNL     1      37.132 -11.923  -1.610  1.00  0.00     0.016 A 
HETATM   13  C   UNL     1      36.096 -11.148  -2.142  1.00  0.00     0.037 A 
HETATM   14  C   UNL     1      35.083 -10.653  -1.318  1.00  0.00     0.068 A 
HETATM   15  C   UNL     1      35.122 -10.930   0.047  1.00  0.00     0.037 A 
HETATM   16  C   UNL     1      36.159 -11.707   0.580  1.00  0.00     0.016 A 
BRANCH  14  17
HETATM   17  O   UNL     1      34.126  -9.920  -1.962  1.00  0.00    -0.356 OA
HETATM   18  C   UNL     1      33.540 -10.504  -3.119  1.00  0.00     0.210 C 
ENDBRANCH  14  17
ENDBRANCH   9  11
ENDBRANCH   2   5
BRANCH   1  19
HETATM   19  N   UNL     1      40.943 -16.467   4.168  1.00  0.00    -0.267 N 
HETATM   20  C   UNL     1      42.315 -16.359   4.277  1.00  0.00     0.240 C 
HETATM   21  O   UNL     1      42.933 -15.409   3.795  1.00  0.00    -0.272 OA
HETATM   22  H   UNL     1      40.403 -17.272   4.481  1.00  0.00     0.190 HD
BRANCH  20  23
HETATM   23  C   UNL     1      42.981 -17.475   5.053  1.00  0.00     0.143 C 
BRANCH  23  24
HETATM   24  C   UNL     1      43.415 -18.673   4.239  1.00  0.00    -0.049 A 
HETATM   25  C   UNL     1      44.302 -19.647   4.714  1.00  0.00     0.008 A 
HETATM   26  C   UNL     1      44.684 -20.721   3.904  1.00  0.00     0.007 A 
HETATM   27  C   UNL     1      44.204 -20.834   2.596  1.00  0.00    -0.062 A 
HETATM   28  C   UNL     1      44.595 -21.999   1.735  1.00  0.00     0.048 C 
HETATM   29  C   UNL     1      43.315 -19.868   2.117  1.00  0.00     0.007 A 
HETATM   30  C   UNL     1      42.930 -18.797   2.927  1.00  0.00     0.008 A 
ENDBRANCH  23  24
ENDBRANCH  20  23
ENDBRANCH   1  19
TORSDOF 6
ENDMDL
MODEL 9
REMARK VINA RESULT:      -7.7      7.754     11.806
REMARK  6 active torsions:
REMARK  status: ('A' for Active; 'I' for Inactive)
REMARK    1  A    between atoms: C_5  and  C_6 
REMARK    2  A    between atoms: C_6  and  C_7 
REMARK       I    between atoms: C_7  and  N_8 
REMARK    3  A    between atoms: N_8  and  N_9 
REMARK       I    between atoms: N_9  and  C_10 
REMARK    4  A    between atoms: C_10  and  C_11 
REMARK    5  A    between atoms: C_15  and  C_16 
REMARK    6  A    between atoms: C_19  and  O_20 
ROOT
HETATM    1  N   UNL     1      41.479 -14.609   2.166  1.00  0.00    -0.262 N 
HETATM    2  C   UNL     1      41.712 -14.776   0.817  1.00  0.00     0.288 C 
HETATM    3  O   UNL     1      41.755 -15.887   0.293  1.00  0.00    -0.264 OA
HETATM    4  H   UNL     1      41.560 -13.709   2.634  1.00  0.00     0.190 HD
ENDROOT
BRANCH   2   5
HETATM    5  C   UNL     1      41.904 -13.556   0.081  1.00  0.00     0.121 A 
HETATM    6  N   UNL     1      42.146 -12.362   0.697  1.00  0.00    -0.272 N 
HETATM    7  H   UNL     1      42.216 -12.194   1.696  1.00  0.00     0.189 HD
HETATM    8  N   UNL     1      42.313 -11.331  -0.145  1.00  0.00    -0.174 NA
HETATM    9  C   UNL     1      42.155 -11.861  -1.369  1.00  0.00     0.089 A 
HETATM   10  C   UNL     1      41.904 -13.258  -1.268  1.00  0.00     0.071 A 
BRANCH   9  11
HETATM   11  C   UNL     1      42.256 -11.055  -2.589  1.00  0.00    -0.005 A 
HETATM   12  C   UNL     1      42.317  -9.657  -2.519  1.00  0.00     0.016 A 
HETATM   13  C   UNL     1      42.439  -8.889  -3.681  1.00  0.00     0.037 A 
HETATM   14  C   UNL     1      42.502  -9.500  -4.935  1.00  0.00     0.068 A 
HETATM   15  C   UNL     1      42.427 -10.889  -5.018  1.00  0.00     0.037 A 
HETATM   16  C   UNL     1      42.306 -11.660  -3.853  1.00  0.00     0.016 A 
BRANCH  14  17
HETATM   17  O   UNL     1      42.631  -8.639  -5.989  1.00  0.00    -0.356 OA
HETATM   18  C   UNL     1      42.890  -7.276  -5.675  1.00  0.00     0.210 C 
ENDBRANCH  14  17
ENDBRANCH   9  11
ENDBRANCH   2   5
BRANCH   1  19
HETATM   19  N   UNL     1      41.433 -15.727   3.003  1.00  0.00    -0.267 N 
HETATM   20  C   UNL     1      42.583 -16.050   3.694  1.00  0.00     0.240 C 
HETATM   21  O   UNL     1      43.592 -15.346   3.645  1.00  0.00    -0.272 OA
HETATM   22  H   UNL     1      40.606 -16.319   2.953  1.00  0.00     0.190 HD
BRANCH  20  23
HETATM   23  C   UNL     1      42.489 -17.309   4.530  1.00  0.00     0.143 C 
BRANCH  23  24
HETATM   24  C   UNL     1      43.080 -18.555   3.910  1.00  0.00    -0.049 A 
HETATM   25  C   UNL     1      44.022 -19.365   4.557  1.00  0.00     0.008 A 
HETATM   26  C   UNL     1      44.549 -20.494   3.922  1.00  0.00     0.007 A 
HETATM   27  C   UNL     1      44.165 -20.824   2.619  1.00  0.00    -0.062 A 
HETATM   28  C   UNL     1      44.713 -22.048   1.947  1.00  0.00     0.048 C 
HETATM   29  C   UNL     1      43.223 -20.022   1.969  1.00  0.00     0.007 A 
HETATM   30  C   UNL     1      42.692 -18.897   2.605  1.00  0.00     0.008 A 
ENDBRANCH  23  24
ENDBRANCH  20  23
ENDBRANCH   1  19
TORSDOF 6
ENDMDL
MODEL 10
REMARK VINA RESULT:      -7.7      8.375     11.410
REMARK  6 active torsions:
REMARK  status: ('A' for Active; 'I' for Inactive)
REMARK    1  A    between atoms: C_5  and  C_6 
REMARK    2  A    between atoms: C_6  and  C_7 
REMARK       I    between atoms: C_7  and  N_8 
REMARK    3  A    between atoms: N_8  and  N_9 
REMARK       I    between atoms: N_9  and  C_10 
REMARK    4  A    between atoms: C_10  and  C_11 
REMARK    5  A    between atoms: C_15  and  C_16 
REMARK    6  A    between atoms: C_19  and  O_20 
ROOT
HETATM    1  N   UNL     1      41.918 -16.269  -0.178  1.00  0.00    -0.262 N 
HETATM    2  C   UNL     1      41.480 -15.011   0.179  1.00  0.00     0.288 C 
HETATM    3  O   UNL     1      42.107 -14.299   0.960  1.00  0.00    -0.264 OA
HETATM    4  H   UNL     1      41.354 -16.916  -0.726  1.00  0.00     0.190 HD
ENDROOT
BRANCH   2   5
HETATM    5  C   UNL     1      40.242 -14.606  -0.428  1.00  0.00     0.121 A 
HETATM    6  N   UNL     1      39.104 -14.403   0.300  1.00  0.00    -0.272 N 
HETATM    7  H   UNL     1      38.996 -14.508   1.305  1.00  0.00     0.189 HD
HETATM    8  N   UNL     1      38.046 -14.015  -0.427  1.00  0.00    -0.174 NA
HETATM    9  C   UNL     1      38.496 -13.980  -1.692  1.00  0.00     0.089 A 
HETATM   10  C   UNL     1      39.873 -14.338  -1.731  1.00  0.00     0.071 A 
BRANCH   9  11
HETATM   11  C   UNL     1      37.636 -13.602  -2.817  1.00  0.00    -0.005 A 
HETATM   12  C   UNL     1      37.366 -12.256  -3.090  1.00  0.00     0.016 A 
HETATM   13  C   UNL     1      36.566 -11.895  -4.179  1.00  0.00     0.037 A 
HETATM   14  C   UNL     1      36.019 -12.870  -5.015  1.00  0.00     0.068 A 
HETATM   15  C   UNL     1      36.268 -14.214  -4.744  1.00  0.00     0.037 A 
HETATM   16  C   UNL     1      37.071 -14.576  -3.653  1.00  0.00     0.016 A 
BRANCH  14  17
HETATM   17  O   UNL     1      35.265 -12.386  -6.048  1.00  0.00    -0.356 OA
HETATM   18  C   UNL     1      33.899 -12.106  -5.769  1.00  0.00     0.210 C 
ENDBRANCH  14  17
ENDBRANCH   9  11
ENDBRANCH   2   5
BRANCH   1  19
HETATM   19  N   UNL     1      43.024 -16.827   0.468  1.00  0.00    -0.267 N 
HETATM   20  C   UNL     1      42.787 -17.846   1.368  1.00  0.00     0.240 C 
HETATM   21  O   UNL     1      41.660 -18.308   1.547  1.00  0.00    -0.272 OA
HETATM   22  H   UNL     1      43.923 -16.363   0.346  1.00  0.00     0.190 HD
BRANCH  20  23
HETATM   23  C   UNL     1      44.018 -18.359   2.084  1.00  0.00     0.143 C 
BRANCH  23  24
HETATM   24  C   UNL     1      43.969 -18.307   3.594  1.00  0.00    -0.049 A 
HETATM   25  C   UNL     1      43.531 -17.188   4.313  1.00  0.00     0.008 A 
HETATM   26  C   UNL     1      43.530 -17.192   5.712  1.00  0.00     0.007 A 
HETATM   27  C   UNL     1      43.987 -18.307   6.421  1.00  0.00    -0.062 A 
HETATM   28  C   UNL     1      43.965 -18.320   7.921  1.00  0.00     0.048 C 
HETATM   29  C   UNL     1      44.423 -19.428   5.710  1.00  0.00     0.007 A 
HETATM   30  C   UNL     1      44.419 -19.426   4.313  1.00  0.00     0.008 A 
ENDBRANCH  23  24
ENDBRANCH  20  23
ENDBRANCH   1  19
TORSDOF 6
ENDMDL
