MODEL 1
REMARK VINA RESULT:      -9.6      0.000      0.000
REMARK  8 active torsions:
REMARK  status: ('A' for Active; 'I' for Inactive)
REMARK    1  A    between atoms: C_2  and  O_3 
REMARK    2  A    between atoms: O_3  and  C_4 
REMARK    3  A    between atoms: C_7  and  N_8 
REMARK       I    between atoms: N_8  and  C_9 
REMARK    4  A    between atoms: C_9  and  C_10 
REMARK    5  A    between atoms: C_12  and  N_13 
REMARK    6  A    between atoms: N_16  and  C_18 
REMARK    7  A    between atoms: C_18  and  C_19 
REMARK    8  A    between atoms: C_18  and  C_25 
ROOT
HETATM    1  C   UNL     1      40.501 -12.408   3.749  1.00  0.00     0.200 C 
HETATM    2  N   UNL     1      40.741 -13.750   3.195  1.00  0.00    -0.211 N 
HETATM    3  C   UNL     1      40.220 -14.085   1.988  1.00  0.00     0.702 C 
HETATM    4  N   UNL     1      39.541 -13.267   1.251  1.00  0.00    -0.028 NA
HETATM    5  C   UNL     1      39.223 -12.036   1.773  1.00  0.00     0.263 C 
HETATM    6  O   UNL     1      38.971 -11.063   1.069  1.00  0.00    -0.271 OA
HETATM    7  C   UNL     1      39.152 -11.933   3.272  1.00  0.00     0.141 C 
HETATM    8  H   UNL     1      40.652 -14.444   3.939  1.00  0.00     0.178 HD
ENDROOT
BRANCH   3   9
HETATM    9  N   UNL     1      40.529 -15.356   1.544  1.00  0.00    -0.213 N 
HETATM   10  C   UNL     1      40.111 -16.591   2.227  1.00  0.00     0.169 C 
HETATM   11  C   UNL     1      41.175 -16.991   3.266  1.00  0.00     0.256 C 
HETATM   12  N   UNL     1      42.520 -17.189   2.559  1.00  0.00    -0.056 N 
HETATM   13  H   UNL     1      42.376 -17.872   1.813  1.00  0.00     0.281 HD
HETATM   14  C   UNL     1      42.923 -15.903   1.817  1.00  0.00     0.256 C 
HETATM   15  C   UNL     1      41.807 -15.525   0.812  1.00  0.00     0.169 C 
BRANCH  12  16
HETATM   16  C   UNL     1      43.624 -17.786   3.435  1.00  0.00     0.254 C 
BRANCH  16  17
HETATM   17  C   UNL     1      43.455 -17.416   4.908  1.00  0.00    -0.023 A 
HETATM   18  C   UNL     1      43.795 -16.142   5.402  1.00  0.00     0.009 A 
HETATM   19  C   UNL     1      43.647 -15.836   6.756  1.00  0.00     0.001 A 
HETATM   20  C   UNL     1      43.157 -16.795   7.638  1.00  0.00     0.000 A 
HETATM   21  C   UNL     1      42.808 -18.059   7.169  1.00  0.00     0.001 A 
HETATM   22  C   UNL     1      42.955 -18.369   5.814  1.00  0.00     0.009 A 
ENDBRANCH  16  17
BRANCH  16  23
HETATM   23  C   UNL     1      43.916 -19.277   3.161  1.00  0.00    -0.023 A 
HETATM   24  C   UNL     1      44.688 -20.077   4.027  1.00  0.00     0.009 A 
HETATM   25  C   UNL     1      44.902 -21.436   3.765  1.00  0.00     0.001 A 
HETATM   26  C   UNL     1      44.336 -22.031   2.645  1.00  0.00     0.000 A 
HETATM   27  C   UNL     1      43.538 -21.276   1.795  1.00  0.00     0.001 A 
HETATM   28  C   UNL     1      43.318 -19.922   2.057  1.00  0.00     0.009 A 
ENDBRANCH  16  23
ENDBRANCH  12  16
ENDBRANCH   3   9
BRANCH   1  29
HETATM   29  C   UNL     1      40.631 -12.501   5.282  1.00  0.00     0.246 C 
HETATM   30  N   UNL     1      40.235 -11.375   5.976  1.00  0.00    -0.325 N 
HETATM   31  H   UNL     1      39.668 -10.683   5.501  1.00  0.00     0.169 HD
HETATM   32  O   UNL     1      41.098 -13.529   5.779  1.00  0.00    -0.271 OA
BRANCH  30  33
HETATM   33  C   UNL     1      40.465 -11.117   7.346  1.00  0.00     0.035 A 
HETATM   34  C   UNL     1      39.504 -11.306   8.340  1.00  0.00     0.032 A 
HETATM   35  C   UNL     1      39.814 -11.084   9.688  1.00  0.00     0.039 A 
HETATM   36  C   UNL     1      41.089 -10.661  10.056  1.00  0.00     0.068 A 
HETATM   37  C   UNL     1      42.047 -10.457   9.063  1.00  0.00     0.039 A 
HETATM   38  C   UNL     1      41.745 -10.696   7.719  1.00  0.00     0.032 A 
BRANCH  36  39
HETATM   39  O   UNL     1      41.516 -10.409  11.328  1.00  0.00    -0.352 OA
BRANCH  39  40
HETATM   40  C   UNL     1      42.688 -11.096  11.765  1.00  0.00     0.171 C 
HETATM   41  C   UNL     1      43.574 -10.099  12.490  1.00  0.00     0.034 C 
ENDBRANCH  39  40
ENDBRANCH  36  39
ENDBRANCH  30  33
ENDBRANCH   1  29
TORSDOF 8
ENDMDL
MODEL 2
REMARK VINA RESULT:      -9.4      1.985      4.226
REMARK  8 active torsions:
REMARK  status: ('A' for Active; 'I' for Inactive)
REMARK    1  A    between atoms: C_2  and  O_3 
REMARK    2  A    between atoms: O_3  and  C_4 
REMARK    3  A    between atoms: C_7  and  N_8 
REMARK       I    between atoms: N_8  and  C_9 
REMARK    4  A    between atoms: C_9  and  C_10 
REMARK    5  A    between atoms: C_12  and  N_13 
REMARK    6  A    between atoms: N_16  and  C_18 
REMARK    7  A    between atoms: C_18  and  C_19 
REMARK    8  A    between atoms: C_18  and  C_25 
ROOT
HETATM    1  C   UNL     1      41.669 -10.762   6.929  1.00  0.00     0.200 C 
HETATM    2  N   UNL     1      42.337 -12.073   6.933  1.00  0.00    -0.211 N 
HETATM    3  C   UNL     1      42.017 -12.997   5.992  1.00  0.00     0.702 C 
HETATM    4  N   UNL     1      41.169 -12.782   5.038  1.00  0.00    -0.028 NA
HETATM    5  C   UNL     1      40.462 -11.603   5.055  1.00  0.00     0.263 C 
HETATM    6  O   UNL     1      39.972 -11.111   4.043  1.00  0.00    -0.271 OA
HETATM    7  C   UNL     1      40.271 -10.945   6.393  1.00  0.00     0.141 C 
HETATM    8  H   UNL     1      42.416 -12.410   7.894  1.00  0.00     0.178 HD
ENDROOT
BRANCH   3   9
HETATM    9  N   UNL     1      42.722 -14.182   6.063  1.00  0.00    -0.213 N 
HETATM   10  C   UNL     1      43.798 -14.558   5.132  1.00  0.00     0.169 C 
HETATM   11  C   UNL     1      43.200 -15.303   3.925  1.00  0.00     0.256 C 
HETATM   12  N   UNL     1      42.453 -16.546   4.421  1.00  0.00    -0.056 N 
HETATM   13  H   UNL     1      43.109 -17.095   4.978  1.00  0.00     0.281 HD
HETATM   14  C   UNL     1      41.358 -16.140   5.423  1.00  0.00     0.256 C 
HETATM   15  C   UNL     1      42.005 -15.364   6.597  1.00  0.00     0.169 C 
BRANCH  12  16
HETATM   16  C   UNL     1      41.979 -17.494   3.317  1.00  0.00     0.254 C 
BRANCH  16  17
HETATM   17  C   UNL     1      41.595 -16.746   2.040  1.00  0.00    -0.023 A 
HETATM   18  C   UNL     1      42.421 -16.744   0.899  1.00  0.00     0.009 A 
HETATM   19  C   UNL     1      42.055 -16.037  -0.248  1.00  0.00     0.001 A 
HETATM   20  C   UNL     1      40.860 -15.323  -0.276  1.00  0.00     0.000 A 
HETATM   21  C   UNL     1      40.026 -15.319   0.840  1.00  0.00     0.001 A 
HETATM   22  C   UNL     1      40.389 -16.024   1.989  1.00  0.00     0.009 A 
ENDBRANCH  16  17
BRANCH  16  23
HETATM   23  C   UNL     1      42.882 -18.728   3.109  1.00  0.00    -0.023 A 
HETATM   24  C   UNL     1      42.758 -19.590   2.000  1.00  0.00     0.009 A 
HETATM   25  C   UNL     1      43.618 -20.680   1.825  1.00  0.00     0.001 A 
HETATM   26  C   UNL     1      44.634 -20.925   2.741  1.00  0.00     0.000 A 
HETATM   27  C   UNL     1      44.805 -20.070   3.821  1.00  0.00     0.001 A 
HETATM   28  C   UNL     1      43.952 -18.977   3.995  1.00  0.00     0.009 A 
ENDBRANCH  16  23
ENDBRANCH  12  16
ENDBRANCH   3   9
BRANCH   1  29
HETATM   29  C   UNL     1      41.726 -10.200   8.363  1.00  0.00     0.246 C 
HETATM   30  N   UNL     1      42.297 -11.037   9.301  1.00  0.00    -0.325 N 
HETATM   31  H   UNL     1      42.855 -11.820   8.982  1.00  0.00     0.169 HD
HETATM   32  O   UNL     1      41.242  -9.087   8.586  1.00  0.00    -0.271 OA
BRANCH  30  33
HETATM   33  C   UNL     1      42.264 -10.862  10.703  1.00  0.00     0.035 A 
HETATM   34  C   UNL     1      41.189 -11.252  11.505  1.00  0.00     0.032 A 
HETATM   35  C   UNL     1      41.242 -11.100  12.896  1.00  0.00     0.039 A 
HETATM   36  C   UNL     1      42.369 -10.548  13.501  1.00  0.00     0.068 A 
HETATM   37  C   UNL     1      43.438 -10.145  12.701  1.00  0.00     0.039 A 
HETATM   38  C   UNL     1      43.395 -10.313  11.313  1.00  0.00     0.032 A 
BRANCH  36  39
HETATM   39  O   UNL     1      42.544 -10.346  14.840  1.00  0.00    -0.352 OA
BRANCH  39  40
HETATM   40  C   UNL     1      41.503  -9.658  15.533  1.00  0.00     0.171 C 
HETATM   41  C   UNL     1      41.726  -8.167  15.355  1.00  0.00     0.034 C 
ENDBRANCH  39  40
ENDBRANCH  36  39
ENDBRANCH  30  33
ENDBRANCH   1  29
TORSDOF 8
ENDMDL
MODEL 3
REMARK VINA RESULT:      -9.3      1.662      2.548
REMARK  8 active torsions:
REMARK  status: ('A' for Active; 'I' for Inactive)
REMARK    1  A    between atoms: C_2  and  O_3 
REMARK    2  A    between atoms: O_3  and  C_4 
REMARK    3  A    between atoms: C_7  and  N_8 
REMARK       I    between atoms: N_8  and  C_9 
REMARK    4  A    between atoms: C_9  and  C_10 
REMARK    5  A    between atoms: C_12  and  N_13 
REMARK    6  A    between atoms: N_16  and  C_18 
REMARK    7  A    between atoms: C_18  and  C_19 
REMARK    8  A    between atoms: C_18  and  C_25 
ROOT
HETATM    1  C   UNL     1      41.672 -12.124   1.663  1.00  0.00     0.200 C 
HETATM    2  N   UNL     1      41.380 -13.561   1.787  1.00  0.00    -0.211 N 
HETATM    3  C   UNL     1      41.425 -14.356   0.688  1.00  0.00     0.702 C 
HETATM    4  N   UNL     1      41.755 -13.931  -0.489  1.00  0.00    -0.028 NA
HETATM    5  C   UNL     1      41.948 -12.581  -0.659  1.00  0.00     0.263 C 
HETATM    6  O   UNL     1      42.640 -12.119  -1.560  1.00  0.00    -0.271 OA
HETATM    7  C   UNL     1      41.229 -11.667   0.296  1.00  0.00     0.141 C 
HETATM    8  H   UNL     1      40.584 -13.692   2.413  1.00  0.00     0.178 HD
ENDROOT
BRANCH   3   9
HETATM    9  N   UNL     1      41.166 -15.693   0.915  1.00  0.00    -0.213 N 
HETATM   10  C   UNL     1      40.582 -16.219   2.160  1.00  0.00     0.169 C 
HETATM   11  C   UNL     1      41.706 -16.546   3.161  1.00  0.00     0.256 C 
HETATM   12  N   UNL     1      42.657 -17.570   2.532  1.00  0.00    -0.056 N 
HETATM   13  H   UNL     1      42.095 -18.374   2.245  1.00  0.00     0.281 HD
HETATM   14  C   UNL     1      43.229 -17.022   1.213  1.00  0.00     0.256 C 
HETATM   15  C   UNL     1      42.059 -16.676   0.257  1.00  0.00     0.169 C 
BRANCH  12  16
HETATM   16  C   UNL     1      43.708 -18.142   3.487  1.00  0.00     0.254 C 
BRANCH  16  17
HETATM   17  C   UNL     1      43.497 -17.669   4.925  1.00  0.00    -0.023 A 
HETATM   18  C   UNL     1      42.422 -18.124   5.711  1.00  0.00     0.009 A 
HETATM   19  C   UNL     1      42.243 -17.662   7.016  1.00  0.00     0.001 A 
HETATM   20  C   UNL     1      43.134 -16.740   7.558  1.00  0.00     0.000 A 
HETATM   21  C   UNL     1      44.208 -16.282   6.799  1.00  0.00     0.001 A 
HETATM   22  C   UNL     1      44.391 -16.742   5.493  1.00  0.00     0.009 A 
ENDBRANCH  16  17
BRANCH  16  23
HETATM   23  C   UNL     1      43.958 -19.656   3.323  1.00  0.00    -0.023 A 
HETATM   24  C   UNL     1      43.614 -20.367   2.155  1.00  0.00     0.009 A 
HETATM   25  C   UNL     1      43.890 -21.734   2.028  1.00  0.00     0.001 A 
HETATM   26  C   UNL     1      44.532 -22.418   3.052  1.00  0.00     0.000 A 
HETATM   27  C   UNL     1      44.919 -21.734   4.197  1.00  0.00     0.001 A 
HETATM   28  C   UNL     1      44.651 -20.369   4.325  1.00  0.00     0.009 A 
ENDBRANCH  16  23
ENDBRANCH  12  16
ENDBRANCH   3   9
BRANCH   1  29
HETATM   29  C   UNL     1      40.969 -11.399   2.828  1.00  0.00     0.246 C 
HETATM   30  N   UNL     1      41.452 -11.699   4.086  1.00  0.00    -0.325 N 
HETATM   31  H   UNL     1      42.357 -12.148   4.167  1.00  0.00     0.169 HD
HETATM   32  O   UNL     1      40.025 -10.645   2.578  1.00  0.00    -0.271 OA
BRANCH  30  33
HETATM   33  C   UNL     1      40.845 -11.357   5.315  1.00  0.00     0.035 A 
HETATM   34  C   UNL     1      40.962 -10.101   5.912  1.00  0.00     0.032 A 
HETATM   35  C   UNL     1      40.290  -9.809   7.105  1.00  0.00     0.039 A 
HETATM   36  C   UNL     1      39.497 -10.775   7.720  1.00  0.00     0.068 A 
HETATM   37  C   UNL     1      39.391 -12.036   7.134  1.00  0.00     0.039 A 
HETATM   38  C   UNL     1      40.046 -12.324   5.933  1.00  0.00     0.032 A 
BRANCH  36  39
HETATM   39  O   UNL     1      38.795 -10.618   8.880  1.00  0.00    -0.352 OA
BRANCH  39  40
HETATM   40  C   UNL     1      39.464  -9.969   9.960  1.00  0.00     0.171 C 
HETATM   41  C   UNL     1      40.413 -10.969  10.595  1.00  0.00     0.034 C 
ENDBRANCH  39  40
ENDBRANCH  36  39
ENDBRANCH  30  33
ENDBRANCH   1  29
TORSDOF 8
ENDMDL
MODEL 4
REMARK VINA RESULT:      -9.1      2.813      9.282
REMARK  8 active torsions:
REMARK  status: ('A' for Active; 'I' for Inactive)
REMARK    1  A    between atoms: C_2  and  O_3 
REMARK    2  A    between atoms: O_3  and  C_4 
REMARK    3  A    between atoms: C_7  and  N_8 
REMARK       I    between atoms: N_8  and  C_9 
REMARK    4  A    between atoms: C_9  and  C_10 
REMARK    5  A    between atoms: C_12  and  N_13 
REMARK    6  A    between atoms: N_16  and  C_18 
REMARK    7  A    between atoms: C_18  and  C_19 
REMARK    8  A    between atoms: C_18  and  C_25 
ROOT
HETATM    1  C   UNL     1      40.235 -12.516   5.420  1.00  0.00     0.200 C 
HETATM    2  N   UNL     1      39.864 -11.907   6.707  1.00  0.00    -0.211 N 
HETATM    3  C   UNL     1      39.886 -10.558   6.847  1.00  0.00     0.702 C 
HETATM    4  N   UNL     1      40.181  -9.744   5.885  1.00  0.00    -0.028 NA
HETATM    5  C   UNL     1      40.618 -10.279   4.697  1.00  0.00     0.263 C 
HETATM    6  O   UNL     1      40.526  -9.681   3.629  1.00  0.00    -0.271 OA
HETATM    7  C   UNL     1      41.265 -11.635   4.759  1.00  0.00     0.141 C 
HETATM    8  H   UNL     1      40.271 -12.452   7.469  1.00  0.00     0.178 HD
ENDROOT
BRANCH   3   9
HETATM    9  N   UNL     1      39.491 -10.086   8.083  1.00  0.00    -0.213 N 
HETATM   10  C   UNL     1      39.686  -8.699   8.536  1.00  0.00     0.169 C 
HETATM   11  C   UNL     1      41.056  -8.569   9.227  1.00  0.00     0.256 C 
HETATM   12  N   UNL     1      41.116  -9.540  10.411  1.00  0.00    -0.056 N 
HETATM   13  H   UNL     1      40.315  -9.340  11.012  1.00  0.00     0.281 HD
HETATM   14  C   UNL     1      40.871 -10.980   9.928  1.00  0.00     0.256 C 
HETATM   15  C   UNL     1      39.500 -11.049   9.210  1.00  0.00     0.169 C 
BRANCH  12  16
HETATM   16  C   UNL     1      42.340  -9.377  11.315  1.00  0.00     0.254 C 
BRANCH  16  17
HETATM   17  C   UNL     1      41.952  -9.139  12.775  1.00  0.00    -0.023 A 
HETATM   18  C   UNL     1      40.677  -8.665  13.140  1.00  0.00     0.009 A 
HETATM   19  C   UNL     1      40.355  -8.440  14.480  1.00  0.00     0.001 A 
HETATM   20  C   UNL     1      41.297  -8.686  15.475  1.00  0.00     0.000 A 
HETATM   21  C   UNL     1      42.560  -9.162  15.134  1.00  0.00     0.001 A 
HETATM   22  C   UNL     1      42.887  -9.388  13.795  1.00  0.00     0.009 A 
ENDBRANCH  16  17
BRANCH  16  23
HETATM   23  C   UNL     1      43.441 -10.435  11.092  1.00  0.00    -0.023 A 
HETATM   24  C   UNL     1      44.578 -10.200  10.292  1.00  0.00     0.009 A 
HETATM   25  C   UNL     1      45.575 -11.171  10.140  1.00  0.00     0.001 A 
HETATM   26  C   UNL     1      45.471 -12.390  10.799  1.00  0.00     0.000 A 
HETATM   27  C   UNL     1      44.382 -12.633  11.625  1.00  0.00     0.001 A 
HETATM   28  C   UNL     1      43.389 -11.664  11.783  1.00  0.00     0.009 A 
ENDBRANCH  16  23
ENDBRANCH  12  16
ENDBRANCH   3   9
BRANCH   1  29
HETATM   29  C   UNL     1      40.721 -13.952   5.701  1.00  0.00     0.246 C 
HETATM   30  N   UNL     1      42.091 -14.121   5.699  1.00  0.00    -0.325 N 
HETATM   31  H   UNL     1      42.684 -13.303   5.771  1.00  0.00     0.169 HD
HETATM   32  O   UNL     1      39.883 -14.842   5.870  1.00  0.00    -0.271 OA
BRANCH  30  33
HETATM   33  C   UNL     1      42.778 -15.356   5.699  1.00  0.00     0.035 A 
HETATM   34  C   UNL     1      42.836 -16.208   4.594  1.00  0.00     0.032 A 
HETATM   35  C   UNL     1      43.580 -17.394   4.643  1.00  0.00     0.039 A 
HETATM   36  C   UNL     1      44.269 -17.745   5.802  1.00  0.00     0.068 A 
HETATM   37  C   UNL     1      44.200 -16.902   6.911  1.00  0.00     0.039 A 
HETATM   38  C   UNL     1      43.473 -15.709   6.859  1.00  0.00     0.032 A 
BRANCH  36  39
HETATM   39  O   UNL     1      45.025 -18.868   5.978  1.00  0.00    -0.352 OA
BRANCH  39  40
HETATM   40  C   UNL     1      44.404 -20.119   5.685  1.00  0.00     0.171 C 
HETATM   41  C   UNL     1      43.732 -20.618   6.951  1.00  0.00     0.034 C 
ENDBRANCH  39  40
ENDBRANCH  36  39
ENDBRANCH  30  33
ENDBRANCH   1  29
TORSDOF 8
ENDMDL
MODEL 5
REMARK VINA RESULT:      -9.0      3.434      5.537
REMARK  8 active torsions:
REMARK  status: ('A' for Active; 'I' for Inactive)
REMARK    1  A    between atoms: C_2  and  O_3 
REMARK    2  A    between atoms: O_3  and  C_4 
REMARK    3  A    between atoms: C_7  and  N_8 
REMARK       I    between atoms: N_8  and  C_9 
REMARK    4  A    between atoms: C_9  and  C_10 
REMARK    5  A    between atoms: C_12  and  N_13 
REMARK    6  A    between atoms: N_16  and  C_18 
REMARK    7  A    between atoms: C_18  and  C_19 
REMARK    8  A    between atoms: C_18  and  C_25 
ROOT
HETATM    1  C   UNL     1      45.277 -12.686   9.271  1.00  0.00     0.200 C 
HETATM    2  N   UNL     1      44.334 -13.739   8.865  1.00  0.00    -0.211 N 
HETATM    3  C   UNL     1      44.443 -14.306   7.637  1.00  0.00     0.702 C 
HETATM    4  N   UNL     1      45.373 -14.002   6.790  1.00  0.00    -0.028 NA
HETATM    5  C   UNL     1      46.216 -12.962   7.100  1.00  0.00     0.263 C 
HETATM    6  O   UNL     1      47.339 -12.853   6.616  1.00  0.00    -0.271 OA
HETATM    7  C   UNL     1      45.686 -11.915   8.041  1.00  0.00     0.141 C 
HETATM    8  H   UNL     1      43.392 -13.487   9.168  1.00  0.00     0.178 HD
ENDROOT
BRANCH   3   9
HETATM    9  N   UNL     1      43.531 -15.306   7.364  1.00  0.00    -0.213 N 
HETATM   10  C   UNL     1      43.791 -16.739   7.578  1.00  0.00     0.169 C 
HETATM   11  C   UNL     1      44.423 -17.344   6.311  1.00  0.00     0.256 C 
HETATM   12  N   UNL     1      43.472 -17.136   5.127  1.00  0.00    -0.056 N 
HETATM   13  H   UNL     1      42.569 -17.536   5.385  1.00  0.00     0.281 HD
HETATM   14  C   UNL     1      43.179 -15.637   4.940  1.00  0.00     0.256 C 
HETATM   15  C   UNL     1      42.580 -15.069   6.252  1.00  0.00     0.169 C 
BRANCH  12  16
HETATM   16  C   UNL     1      43.876 -17.865   3.843  1.00  0.00     0.254 C 
BRANCH  16  17
HETATM   17  C   UNL     1      44.152 -19.349   4.086  1.00  0.00    -0.023 A 
HETATM   18  C   UNL     1      44.266 -19.885   5.383  1.00  0.00     0.009 A 
HETATM   19  C   UNL     1      44.537 -21.240   5.576  1.00  0.00     0.001 A 
HETATM   20  C   UNL     1      44.697 -22.083   4.480  1.00  0.00     0.000 A 
HETATM   21  C   UNL     1      44.580 -21.574   3.189  1.00  0.00     0.001 A 
HETATM   22  C   UNL     1      44.310 -20.218   2.991  1.00  0.00     0.009 A 
ENDBRANCH  16  17
BRANCH  16  23
HETATM   23  C   UNL     1      42.979 -17.554   2.626  1.00  0.00    -0.023 A 
HETATM   24  C   UNL     1      41.573 -17.645   2.669  1.00  0.00     0.009 A 
HETATM   25  C   UNL     1      40.789 -17.320   1.555  1.00  0.00     0.001 A 
HETATM   26  C   UNL     1      41.387 -16.878   0.382  1.00  0.00     0.000 A 
HETATM   27  C   UNL     1      42.768 -16.740   0.324  1.00  0.00     0.001 A 
HETATM   28  C   UNL     1      43.553 -17.058   1.436  1.00  0.00     0.009 A 
ENDBRANCH  16  23
ENDBRANCH  12  16
ENDBRANCH   3   9
BRANCH   1  29
HETATM   29  C   UNL     1      44.588 -11.828  10.352  1.00  0.00     0.246 C 
HETATM   30  N   UNL     1      43.242 -12.079  10.533  1.00  0.00    -0.325 N 
HETATM   31  H   UNL     1      42.851 -12.936  10.161  1.00  0.00     0.169 HD
HETATM   32  O   UNL     1      45.250 -10.974  10.946  1.00  0.00    -0.271 OA
BRANCH  30  33
HETATM   33  C   UNL     1      42.341 -11.288  11.280  1.00  0.00     0.035 A 
HETATM   34  C   UNL     1      42.309 -11.263  12.676  1.00  0.00     0.032 A 
HETATM   35  C   UNL     1      41.427 -10.415  13.357  1.00  0.00     0.039 A 
HETATM   36  C   UNL     1      40.559  -9.587  12.649  1.00  0.00     0.068 A 
HETATM   37  C   UNL     1      40.578  -9.622  11.254  1.00  0.00     0.039 A 
HETATM   38  C   UNL     1      41.471 -10.454  10.572  1.00  0.00     0.032 A 
BRANCH  36  39
HETATM   39  O   UNL     1      39.654  -8.720  13.191  1.00  0.00    -0.352 OA
BRANCH  39  40
HETATM   40  C   UNL     1      38.343  -8.717  12.627  1.00  0.00     0.171 C 
HETATM   41  C   UNL     1      38.025  -7.301  12.181  1.00  0.00     0.034 C 
ENDBRANCH  39  40
ENDBRANCH  36  39
ENDBRANCH  30  33
ENDBRANCH   1  29
TORSDOF 8
ENDMDL
MODEL 6
REMARK VINA RESULT:      -9.0      2.385      9.113
REMARK  8 active torsions:
REMARK  status: ('A' for Active; 'I' for Inactive)
REMARK    1  A    between atoms: C_2  and  O_3 
REMARK    2  A    between atoms: O_3  and  C_4 
REMARK    3  A    between atoms: C_7  and  N_8 
REMARK       I    between atoms: N_8  and  C_9 
REMARK    4  A    between atoms: C_9  and  C_10 
REMARK    5  A    between atoms: C_12  and  N_13 
REMARK    6  A    between atoms: N_16  and  C_18 
REMARK    7  A    between atoms: C_18  and  C_19 
REMARK    8  A    between atoms: C_18  and  C_25 
ROOT
HETATM    1  C   UNL     1      39.782 -13.756   5.240  1.00  0.00     0.200 C 
HETATM    2  N   UNL     1      39.949 -12.653   6.199  1.00  0.00    -0.211 N 
HETATM    3  C   UNL     1      39.720 -11.375   5.806  1.00  0.00     0.702 C 
HETATM    4  N   UNL     1      39.314 -11.054   4.620  1.00  0.00    -0.028 NA
HETATM    5  C   UNL     1      39.232 -12.047   3.673  1.00  0.00     0.263 C 
HETATM    6  O   UNL     1      38.499 -11.969   2.693  1.00  0.00    -0.271 OA
HETATM    7  C   UNL     1      40.126 -13.242   3.864  1.00  0.00     0.141 C 
HETATM    8  H   UNL     1      40.788 -12.814   6.758  1.00  0.00     0.178 HD
ENDROOT
BRANCH   3   9
HETATM    9  N   UNL     1      39.874 -10.417   6.788  1.00  0.00    -0.213 N 
HETATM   10  C   UNL     1      41.057  -9.550   6.916  1.00  0.00     0.169 C 
HETATM   11  C   UNL     1      42.109 -10.239   7.803  1.00  0.00     0.256 C 
HETATM   12  N   UNL     1      41.496 -10.528   9.178  1.00  0.00    -0.056 N 
HETATM   13  H   UNL     1      41.142  -9.644   9.547  1.00  0.00     0.281 HD
HETATM   14  C   UNL     1      40.240 -11.402   9.025  1.00  0.00     0.256 C 
HETATM   15  C   UNL     1      39.230 -10.682   8.097  1.00  0.00     0.169 C 
BRANCH  12  16
HETATM   16  C   UNL     1      42.489 -11.026  10.232  1.00  0.00     0.254 C 
BRANCH  16  17
HETATM   17  C   UNL     1      43.830 -11.427   9.617  1.00  0.00    -0.023 A 
HETATM   18  C   UNL     1      43.960 -12.546   8.773  1.00  0.00     0.009 A 
HETATM   19  C   UNL     1      45.200 -12.900   8.239  1.00  0.00     0.001 A 
HETATM   20  C   UNL     1      46.330 -12.142   8.537  1.00  0.00     0.000 A 
HETATM   21  C   UNL     1      46.221 -11.027   9.364  1.00  0.00     0.001 A 
HETATM   22  C   UNL     1      44.981 -10.670   9.900  1.00  0.00     0.009 A 
ENDBRANCH  16  17
BRANCH  16  23
HETATM   23  C   UNL     1      42.582 -10.136  11.489  1.00  0.00    -0.023 A 
HETATM   24  C   UNL     1      43.120 -10.590  12.710  1.00  0.00     0.009 A 
HETATM   25  C   UNL     1      43.222  -9.743  13.821  1.00  0.00     0.001 A 
HETATM   26  C   UNL     1      42.808  -8.420  13.733  1.00  0.00     0.000 A 
HETATM   27  C   UNL     1      42.311  -7.935  12.530  1.00  0.00     0.001 A 
HETATM   28  C   UNL     1      42.214  -8.775  11.419  1.00  0.00     0.009 A 
ENDBRANCH  16  23
ENDBRANCH  12  16
ENDBRANCH   3   9
BRANCH   1  29
HETATM   29  C   UNL     1      40.664 -14.929   5.713  1.00  0.00     0.246 C 
HETATM   30  N   UNL     1      41.864 -15.070   5.045  1.00  0.00    -0.325 N 
HETATM   31  H   UNL     1      42.209 -14.295   4.492  1.00  0.00     0.169 HD
HETATM   32  O   UNL     1      40.243 -15.667   6.607  1.00  0.00    -0.271 OA
BRANCH  30  33
HETATM   33  C   UNL     1      42.735 -16.180   5.124  1.00  0.00     0.035 A 
HETATM   34  C   UNL     1      43.735 -16.311   6.088  1.00  0.00     0.032 A 
HETATM   35  C   UNL     1      44.530 -17.463   6.144  1.00  0.00     0.039 A 
HETATM   36  C   UNL     1      44.337 -18.496   5.230  1.00  0.00     0.068 A 
HETATM   37  C   UNL     1      43.347 -18.361   4.256  1.00  0.00     0.039 A 
HETATM   38  C   UNL     1      42.541 -17.220   4.210  1.00  0.00     0.032 A 
BRANCH  36  39
HETATM   39  O   UNL     1      45.041 -19.664   5.177  1.00  0.00    -0.352 OA
BRANCH  39  40
HETATM   40  C   UNL     1      44.347 -20.856   5.545  1.00  0.00     0.171 C 
HETATM   41  C   UNL     1      45.189 -22.043   5.114  1.00  0.00     0.034 C 
ENDBRANCH  39  40
ENDBRANCH  36  39
ENDBRANCH  30  33
ENDBRANCH   1  29
TORSDOF 8
ENDMDL
MODEL 7
REMARK VINA RESULT:      -8.9      3.654      8.962
REMARK  8 active torsions:
REMARK  status: ('A' for Active; 'I' for Inactive)
REMARK    1  A    between atoms: C_2  and  O_3 
REMARK    2  A    between atoms: O_3  and  C_4 
REMARK    3  A    between atoms: C_7  and  N_8 
REMARK       I    between atoms: N_8  and  C_9 
REMARK    4  A    between atoms: C_9  and  C_10 
REMARK    5  A    between atoms: C_12  and  N_13 
REMARK    6  A    between atoms: N_16  and  C_18 
REMARK    7  A    between atoms: C_18  and  C_19 
REMARK    8  A    between atoms: C_18  and  C_25 
ROOT
HETATM    1  C   UNL     1      41.297 -12.792   4.396  1.00  0.00     0.200 C 
HETATM    2  N   UNL     1      40.467 -12.664   3.188  1.00  0.00    -0.211 N 
HETATM    3  C   UNL     1      39.194 -12.206   3.289  1.00  0.00     0.702 C 
HETATM    4  N   UNL     1      38.658 -11.824   4.403  1.00  0.00    -0.028 NA
HETATM    5  C   UNL     1      39.372 -12.011   5.562  1.00  0.00     0.263 C 
HETATM    6  O   UNL     1      39.178 -11.345   6.574  1.00  0.00    -0.271 OA
HETATM    7  C   UNL     1      40.394 -13.115   5.559  1.00  0.00     0.141 C 
HETATM    8  H   UNL     1      40.612 -13.479   2.590  1.00  0.00     0.178 HD
ENDROOT
BRANCH   3   9
HETATM    9  N   UNL     1      38.510 -12.094   2.094  1.00  0.00    -0.213 N 
HETATM   10  C   UNL     1      37.995 -13.242   1.329  1.00  0.00     0.169 C 
HETATM   11  C   UNL     1      39.076 -13.737   0.351  1.00  0.00     0.256 C 
HETATM   12  N   UNL     1      39.468 -12.590  -0.588  1.00  0.00    -0.056 N 
HETATM   13  H   UNL     1      38.613 -12.253  -1.033  1.00  0.00     0.281 HD
HETATM   14  C   UNL     1      39.967 -11.385   0.228  1.00  0.00     0.256 C 
HETATM   15  C   UNL     1      38.859 -10.949   1.220  1.00  0.00     0.169 C 
BRANCH  12  16
HETATM   16  C   UNL     1      40.385 -12.993  -1.745  1.00  0.00     0.254 C 
BRANCH  16  17
HETATM   17  C   UNL     1      39.804 -14.145  -2.567  1.00  0.00    -0.023 A 
HETATM   18  C   UNL     1      40.534 -15.321  -2.822  1.00  0.00     0.009 A 
HETATM   19  C   UNL     1      39.988 -16.350  -3.591  1.00  0.00     0.001 A 
HETATM   20  C   UNL     1      38.704 -16.223  -4.114  1.00  0.00     0.000 A 
HETATM   21  C   UNL     1      37.963 -15.071  -3.867  1.00  0.00     0.001 A 
HETATM   22  C   UNL     1      38.507 -14.038  -3.099  1.00  0.00     0.009 A 
ENDBRANCH  16  17
BRANCH  16  23
HETATM   23  C   UNL     1      40.926 -11.806  -2.569  1.00  0.00    -0.023 A 
HETATM   24  C   UNL     1      42.285 -11.429  -2.567  1.00  0.00     0.009 A 
HETATM   25  C   UNL     1      42.747 -10.369  -3.356  1.00  0.00     0.001 A 
HETATM   26  C   UNL     1      41.870  -9.673  -4.179  1.00  0.00     0.000 A 
HETATM   27  C   UNL     1      40.534 -10.049  -4.232  1.00  0.00     0.001 A 
HETATM   28  C   UNL     1      40.071 -11.110  -3.450  1.00  0.00     0.009 A 
ENDBRANCH  16  23
ENDBRANCH  12  16
ENDBRANCH   3   9
BRANCH   1  29
HETATM   29  C   UNL     1      42.373 -13.860   4.117  1.00  0.00     0.246 C 
HETATM   30  N   UNL     1      41.940 -14.961   3.405  1.00  0.00    -0.325 N 
HETATM   31  H   UNL     1      41.062 -14.903   2.903  1.00  0.00     0.169 HD
HETATM   32  O   UNL     1      43.511 -13.689   4.562  1.00  0.00    -0.271 OA
BRANCH  30  33
HETATM   33  C   UNL     1      42.653 -16.166   3.221  1.00  0.00     0.035 A 
HETATM   34  C   UNL     1      42.721 -17.179   4.180  1.00  0.00     0.032 A 
HETATM   35  C   UNL     1      43.400 -18.374   3.912  1.00  0.00     0.039 A 
HETATM   36  C   UNL     1      44.027 -18.567   2.684  1.00  0.00     0.068 A 
HETATM   37  C   UNL     1      43.973 -17.551   1.730  1.00  0.00     0.039 A 
HETATM   38  C   UNL     1      43.280 -16.365   1.987  1.00  0.00     0.032 A 
BRANCH  36  39
HETATM   39  O   UNL     1      44.719 -19.680   2.301  1.00  0.00    -0.352 OA
BRANCH  39  40
HETATM   40  C   UNL     1      44.312 -20.924   2.872  1.00  0.00     0.171 C 
HETATM   41  C   UNL     1      43.984 -21.877   1.737  1.00  0.00     0.034 C 
ENDBRANCH  39  40
ENDBRANCH  36  39
ENDBRANCH  30  33
ENDBRANCH   1  29
TORSDOF 8
ENDMDL
MODEL 8
REMARK VINA RESULT:      -8.8      3.519      8.690
REMARK  8 active torsions:
REMARK  status: ('A' for Active; 'I' for Inactive)
REMARK    1  A    between atoms: C_2  and  O_3 
REMARK    2  A    between atoms: O_3  and  C_4 
REMARK    3  A    between atoms: C_7  and  N_8 
REMARK       I    between atoms: N_8  and  C_9 
REMARK    4  A    between atoms: C_9  and  C_10 
REMARK    5  A    between atoms: C_12  and  N_13 
REMARK    6  A    between atoms: N_16  and  C_18 
REMARK    7  A    between atoms: C_18  and  C_19 
REMARK    8  A    between atoms: C_18  and  C_25 
ROOT
HETATM    1  C   UNL     1      42.071 -12.580   3.678  1.00  0.00     0.200 C 
HETATM    2  N   UNL     1      40.873 -12.672   2.830  1.00  0.00    -0.211 N 
HETATM    3  C   UNL     1      39.713 -12.094   3.234  1.00  0.00     0.702 C 
HETATM    4  N   UNL     1      39.597 -11.414   4.328  1.00  0.00    -0.028 NA
HETATM    5  C   UNL     1      40.670 -11.382   5.187  1.00  0.00     0.263 C 
HETATM    6  O   UNL     1      40.839 -10.480   6.002  1.00  0.00    -0.271 OA
HETATM    7  C   UNL     1      41.628 -12.539   5.120  1.00  0.00     0.141 C 
HETATM    8  H   UNL     1      40.802 -13.615   2.444  1.00  0.00     0.178 HD
ENDROOT
BRANCH   3   9
HETATM    9  N   UNL     1      38.657 -12.210   2.352  1.00  0.00    -0.213 N 
HETATM   10  C   UNL     1      38.317 -13.449   1.632  1.00  0.00     0.169 C 
HETATM   11  C   UNL     1      39.082 -13.497   0.297  1.00  0.00     0.256 C 
HETATM   12  N   UNL     1      38.715 -12.266  -0.538  1.00  0.00    -0.056 N 
HETATM   13  H   UNL     1      37.698 -12.251  -0.631  1.00  0.00     0.281 HD
HETATM   14  C   UNL     1      39.040 -10.980   0.243  1.00  0.00     0.256 C 
HETATM   15  C   UNL     1      38.275 -10.997   1.590  1.00  0.00     0.169 C 
BRANCH  12  16
HETATM   16  C   UNL     1      39.243 -12.283  -1.974  1.00  0.00     0.254 C 
BRANCH  16  17
HETATM   17  C   UNL     1      40.622 -11.631  -2.090  1.00  0.00    -0.023 A 
HETATM   18  C   UNL     1      41.717 -12.058  -1.314  1.00  0.00     0.009 A 
HETATM   19  C   UNL     1      42.960 -11.432  -1.426  1.00  0.00     0.001 A 
HETATM   20  C   UNL     1      43.131 -10.374  -2.314  1.00  0.00     0.000 A 
HETATM   21  C   UNL     1      42.062  -9.942  -3.095  1.00  0.00     0.001 A 
HETATM   22  C   UNL     1      40.816 -10.564  -2.986  1.00  0.00     0.009 A 
ENDBRANCH  16  17
BRANCH  16  23
HETATM   23  C   UNL     1      39.098 -13.643  -2.688  1.00  0.00    -0.023 A 
HETATM   24  C   UNL     1      37.873 -14.109  -3.207  1.00  0.00     0.009 A 
HETATM   25  C   UNL     1      37.786 -15.333  -3.881  1.00  0.00     0.001 A 
HETATM   26  C   UNL     1      38.921 -16.111  -4.071  1.00  0.00     0.000 A 
HETATM   27  C   UNL     1      40.149 -15.658  -3.606  1.00  0.00     0.001 A 
HETATM   28  C   UNL     1      40.240 -14.434  -2.939  1.00  0.00     0.009 A 
ENDBRANCH  16  23
ENDBRANCH  12  16
ENDBRANCH   3   9
BRANCH   1  29
HETATM   29  C   UNL     1      42.984 -13.773   3.334  1.00  0.00     0.246 C 
HETATM   30  N   UNL     1      42.333 -14.898   2.866  1.00  0.00    -0.325 N 
HETATM   31  H   UNL     1      41.378 -14.809   2.542  1.00  0.00     0.169 HD
HETATM   32  O   UNL     1      44.199 -13.668   3.523  1.00  0.00    -0.271 OA
BRANCH  30  33
HETATM   33  C   UNL     1      42.902 -16.181   2.702  1.00  0.00     0.035 A 
HETATM   34  C   UNL     1      43.324 -16.688   1.472  1.00  0.00     0.032 A 
HETATM   35  C   UNL     1      43.929 -17.948   1.385  1.00  0.00     0.039 A 
HETATM   36  C   UNL     1      44.113 -18.719   2.530  1.00  0.00     0.068 A 
HETATM   37  C   UNL     1      43.679 -18.222   3.759  1.00  0.00     0.039 A 
HETATM   38  C   UNL     1      43.091 -16.956   3.850  1.00  0.00     0.032 A 
BRANCH  36  39
HETATM   39  O   UNL     1      44.686 -19.957   2.581  1.00  0.00    -0.352 OA
BRANCH  39  40
HETATM   40  C   UNL     1      43.930 -21.043   2.045  1.00  0.00     0.171 C 
HETATM   41  C   UNL     1      44.408 -22.322   2.710  1.00  0.00     0.034 C 
ENDBRANCH  39  40
ENDBRANCH  36  39
ENDBRANCH  30  33
ENDBRANCH   1  29
TORSDOF 8
ENDMDL
MODEL 9
REMARK VINA RESULT:      -8.8      3.990      7.690
REMARK  8 active torsions:
REMARK  status: ('A' for Active; 'I' for Inactive)
REMARK    1  A    between atoms: C_2  and  O_3 
REMARK    2  A    between atoms: O_3  and  C_4 
REMARK    3  A    between atoms: C_7  and  N_8 
REMARK       I    between atoms: N_8  and  C_9 
REMARK    4  A    between atoms: C_9  and  C_10 
REMARK    5  A    between atoms: C_12  and  N_13 
REMARK    6  A    between atoms: N_16  and  C_18 
REMARK    7  A    between atoms: C_18  and  C_19 
REMARK    8  A    between atoms: C_18  and  C_25 
ROOT
HETATM    1  C   UNL     1      40.807 -12.267   0.963  1.00  0.00     0.200 C 
HETATM    2  N   UNL     1      41.047 -13.707   0.787  1.00  0.00    -0.211 N 
HETATM    3  C   UNL     1      40.898 -14.551   1.839  1.00  0.00     0.702 C 
HETATM    4  N   UNL     1      40.508 -14.169   3.011  1.00  0.00    -0.028 NA
HETATM    5  C   UNL     1      40.359 -12.821   3.237  1.00  0.00     0.263 C 
HETATM    6  O   UNL     1      39.627 -12.373   4.114  1.00  0.00    -0.271 OA
HETATM    7  C   UNL     1      41.176 -11.895   2.378  1.00  0.00     0.141 C 
HETATM    8  H   UNL     1      41.877 -13.844   0.207  1.00  0.00     0.178 HD
ENDROOT
BRANCH   3   9
HETATM    9  N   UNL     1      41.117 -15.886   1.561  1.00  0.00    -0.213 N 
HETATM   10  C   UNL     1      40.593 -16.994   2.378  1.00  0.00     0.169 C 
HETATM   11  C   UNL     1      41.603 -17.339   3.488  1.00  0.00     0.256 C 
HETATM   12  N   UNL     1      42.942 -17.722   2.848  1.00  0.00    -0.056 N 
HETATM   13  H   UNL     1      42.760 -18.479   2.187  1.00  0.00     0.281 HD
HETATM   14  C   UNL     1      43.457 -16.570   1.967  1.00  0.00     0.256 C 
HETATM   15  C   UNL     1      42.392 -16.238   0.892  1.00  0.00     0.169 C 
BRANCH  12  16
HETATM   16  C   UNL     1      43.981 -18.287   3.820  1.00  0.00     0.254 C 
BRANCH  16  17
HETATM   17  C   UNL     1      43.786 -17.759   5.242  1.00  0.00    -0.023 A 
HETATM   18  C   UNL     1      43.035 -18.462   6.203  1.00  0.00     0.009 A 
HETATM   19  C   UNL     1      42.857 -17.948   7.489  1.00  0.00     0.001 A 
HETATM   20  C   UNL     1      43.428 -16.726   7.837  1.00  0.00     0.000 A 
HETATM   21  C   UNL     1      44.180 -16.019   6.903  1.00  0.00     0.001 A 
HETATM   22  C   UNL     1      44.359 -16.529   5.615  1.00  0.00     0.009 A 
ENDBRANCH  16  17
BRANCH  16  23
HETATM   23  C   UNL     1      44.193 -19.811   3.709  1.00  0.00    -0.023 A 
HETATM   24  C   UNL     1      43.966 -20.531   2.518  1.00  0.00     0.009 A 
HETATM   25  C   UNL     1      44.204 -21.908   2.443  1.00  0.00     0.001 A 
HETATM   26  C   UNL     1      44.693 -22.596   3.547  1.00  0.00     0.000 A 
HETATM   27  C   UNL     1      44.963 -21.905   4.721  1.00  0.00     0.001 A 
HETATM   28  C   UNL     1      44.733 -20.530   4.797  1.00  0.00     0.009 A 
ENDBRANCH  16  23
ENDBRANCH  12  16
ENDBRANCH   3   9
BRANCH   1  29
HETATM   29  C   UNL     1      41.614 -11.519  -0.116  1.00  0.00     0.246 C 
HETATM   30  N   UNL     1      40.865 -10.973  -1.140  1.00  0.00    -0.325 N 
HETATM   31  H   UNL     1      39.866 -10.866  -1.010  1.00  0.00     0.169 HD
HETATM   32  O   UNL     1      42.844 -11.483  -0.022  1.00  0.00    -0.271 OA
BRANCH  30  33
HETATM   33  C   UNL     1      41.367 -10.447  -2.350  1.00  0.00     0.035 A 
HETATM   34  C   UNL     1      41.531  -9.082  -2.592  1.00  0.00     0.032 A 
HETATM   35  C   UNL     1      42.087  -8.629  -3.795  1.00  0.00     0.039 A 
HETATM   36  C   UNL     1      42.478  -9.538  -4.776  1.00  0.00     0.068 A 
HETATM   37  C   UNL     1      42.302 -10.902  -4.543  1.00  0.00     0.039 A 
HETATM   38  C   UNL     1      41.765 -11.357  -3.335  1.00  0.00     0.032 A 
BRANCH  36  39
HETATM   39  O   UNL     1      43.028  -9.227  -5.986  1.00  0.00    -0.352 OA
BRANCH  39  40
HETATM   40  C   UNL     1      42.130  -8.834  -7.024  1.00  0.00     0.171 C 
HETATM   41  C   UNL     1      42.775  -7.698  -7.798  1.00  0.00     0.034 C 
ENDBRANCH  39  40
ENDBRANCH  36  39
ENDBRANCH  30  33
ENDBRANCH   1  29
TORSDOF 8
ENDMDL
MODEL 10
REMARK VINA RESULT:      -8.7      1.920      4.002
REMARK  8 active torsions:
REMARK  status: ('A' for Active; 'I' for Inactive)
REMARK    1  A    between atoms: C_2  and  O_3 
REMARK    2  A    between atoms: O_3  and  C_4 
REMARK    3  A    between atoms: C_7  and  N_8 
REMARK       I    between atoms: N_8  and  C_9 
REMARK    4  A    between atoms: C_9  and  C_10 
REMARK    5  A    between atoms: C_12  and  N_13 
REMARK    6  A    between atoms: N_16  and  C_18 
REMARK    7  A    between atoms: C_18  and  C_19 
REMARK    8  A    between atoms: C_18  and  C_25 
ROOT
HETATM    1  C   UNL     1      41.623 -12.334   1.282  1.00  0.00     0.200 C 
HETATM    2  N   UNL     1      41.572 -13.788   1.500  1.00  0.00    -0.211 N 
HETATM    3  C   UNL     1      41.687 -14.634   0.445  1.00  0.00     0.702 C 
HETATM    4  N   UNL     1      41.884 -14.237  -0.771  1.00  0.00    -0.028 NA
HETATM    5  C   UNL     1      41.849 -12.886  -1.025  1.00  0.00     0.263 C 
HETATM    6  O   UNL     1      42.412 -12.379  -1.990  1.00  0.00    -0.271 OA
HETATM    7  C   UNL     1      41.044 -12.038  -0.079  1.00  0.00     0.141 C 
HETATM    8  H   UNL     1      40.841 -14.003   2.179  1.00  0.00     0.178 HD
ENDROOT
BRANCH   3   9
HETATM    9  N   UNL     1      41.658 -15.978   0.759  1.00  0.00    -0.213 N 
HETATM   10  C   UNL     1      40.574 -16.623   1.519  1.00  0.00     0.169 C 
HETATM   11  C   UNL     1      40.888 -16.556   3.025  1.00  0.00     0.256 C 
HETATM   12  N   UNL     1      42.227 -17.252   3.291  1.00  0.00    -0.056 N 
HETATM   13  H   UNL     1      42.161 -18.198   2.911  1.00  0.00     0.281 HD
HETATM   14  C   UNL     1      43.342 -16.592   2.461  1.00  0.00     0.256 C 
HETATM   15  C   UNL     1      42.962 -16.654   0.960  1.00  0.00     0.169 C 
BRANCH  12  16
HETATM   16  C   UNL     1      42.570 -17.442   4.771  1.00  0.00     0.254 C 
BRANCH  16  17
HETATM   17  C   UNL     1      43.313 -18.753   5.027  1.00  0.00    -0.023 A 
HETATM   18  C   UNL     1      44.107 -19.367   4.039  1.00  0.00     0.009 A 
HETATM   19  C   UNL     1      44.760 -20.574   4.293  1.00  0.00     0.001 A 
HETATM   20  C   UNL     1      44.635 -21.186   5.537  1.00  0.00     0.000 A 
HETATM   21  C   UNL     1      43.861 -20.592   6.530  1.00  0.00     0.001 A 
HETATM   22  C   UNL     1      43.205 -19.384   6.279  1.00  0.00     0.009 A 
ENDBRANCH  16  17
BRANCH  16  23
HETATM   23  C   UNL     1      43.181 -16.197   5.446  1.00  0.00    -0.023 A 
HETATM   24  C   UNL     1      42.605 -14.914   5.351  1.00  0.00     0.009 A 
HETATM   25  C   UNL     1      43.169 -13.813   6.007  1.00  0.00     0.001 A 
HETATM   26  C   UNL     1      44.306 -13.969   6.789  1.00  0.00     0.000 A 
HETATM   27  C   UNL     1      44.872 -15.229   6.933  1.00  0.00     0.001 A 
HETATM   28  C   UNL     1      44.309 -16.331   6.284  1.00  0.00     0.009 A 
ENDBRANCH  16  23
ENDBRANCH  12  16
ENDBRANCH   3   9
BRANCH   1  29
HETATM   29  C   UNL     1      40.874 -11.656   2.446  1.00  0.00     0.246 C 
HETATM   30  N   UNL     1      41.481 -11.770   3.682  1.00  0.00    -0.325 N 
HETATM   31  H   UNL     1      42.455 -12.045   3.724  1.00  0.00     0.169 HD
HETATM   32  O   UNL     1      39.796 -11.101   2.219  1.00  0.00    -0.271 OA
BRANCH  30  33
HETATM   33  C   UNL     1      40.899 -11.446   4.928  1.00  0.00     0.035 A 
HETATM   34  C   UNL     1      41.191 -10.280   5.638  1.00  0.00     0.032 A 
HETATM   35  C   UNL     1      40.538  -9.993   6.843  1.00  0.00     0.039 A 
HETATM   36  C   UNL     1      39.589 -10.874   7.356  1.00  0.00     0.068 A 
HETATM   37  C   UNL     1      39.306 -12.046   6.656  1.00  0.00     0.039 A 
HETATM   38  C   UNL     1      39.943 -12.326   5.443  1.00  0.00     0.032 A 
BRANCH  36  39
HETATM   39  O   UNL     1      38.886 -10.712   8.515  1.00  0.00    -0.352 OA
BRANCH  39  40
HETATM   40  C   UNL     1      39.511  -9.955   9.552  1.00  0.00     0.171 C 
HETATM   41  C   UNL     1      40.257 -10.921  10.455  1.00  0.00     0.034 C 
ENDBRANCH  39  40
ENDBRANCH  36  39
ENDBRANCH  30  33
ENDBRANCH   1  29
TORSDOF 8
ENDMDL
