MODEL 1
REMARK VINA RESULT:      -7.5      0.000      0.000
REMARK  5 active torsions:
REMARK  status: ('A' for Active; 'I' for Inactive)
REMARK    1  A    between atoms: C_3  and  N_4 
REMARK       I    between atoms: N_4  and  C_5 
REMARK       I    between atoms: C_5  and  N_6 
REMARK    2  A    between atoms: N_6  and  C_7 
REMARK    3  A    between atoms: C_7  and  C_8 
REMARK    4  A    between atoms: C_8  and  O_9 
REMARK    5  A    between atoms: O_9  and  C_10 
ROOT
HETATM    1  N   UNL     1      44.930 -18.949   5.114  1.00  0.00    -0.307 N 
HETATM    2  C   UNL     1      43.949 -18.225   5.756  1.00  0.00     0.320 C 
HETATM    3  N   UNL     1      44.509 -17.208   6.500  1.00  0.00    -0.340 N 
HETATM    4  O   UNL     1      42.742 -18.385   5.661  1.00  0.00    -0.247 OA
HETATM    5  H   UNL     1      45.742 -18.385   4.903  1.00  0.00     0.170 HD
HETATM    6  H   UNL     1      45.451 -17.348   6.840  1.00  0.00     0.164 HD
ENDROOT
BRANCH   3   7
HETATM    7  C   UNL     1      43.682 -16.279   7.254  1.00  0.00     0.156 C 
BRANCH   7   8
HETATM    8  C   UNL     1      43.691 -14.845   6.690  1.00  0.00     0.142 C 
HETATM    9  C   UNL     1      44.909 -14.045   7.146  1.00  0.00     0.042 C 
BRANCH   8  10
HETATM   10  O   UNL     1      43.727 -14.881   5.253  1.00  0.00    -0.345 OA
BRANCH  10  11
HETATM   11  C   UNL     1      42.550 -14.903   4.558  1.00  0.00     0.069 A 
HETATM   12  C   UNL     1      41.324 -14.389   4.982  1.00  0.00     0.038 A 
HETATM   13  C   UNL     1      40.193 -14.496   4.165  1.00  0.00     0.026 A 
HETATM   14  C   UNL     1      40.288 -15.117   2.921  1.00  0.00     0.034 A 
HETATM   15 CL   UNL     1      38.895 -15.246   1.920  1.00  0.00    -0.084 Cl
HETATM   16  C   UNL     1      41.504 -15.635   2.489  1.00  0.00     0.026 A 
HETATM   17  C   UNL     1      42.630 -15.528   3.308  1.00  0.00     0.038 A 
ENDBRANCH  10  11
ENDBRANCH   8  10
ENDBRANCH   7   8
ENDBRANCH   3   7
BRANCH   1  18
HETATM   18  C   UNL     1      44.720 -20.066   4.270  1.00  0.00     0.059 A 
HETATM   19  C   UNL     1      44.347 -20.025   2.919  1.00  0.00    -0.032 A 
HETATM   20  C   UNL     1      44.016 -18.772   2.160  1.00  0.00     0.050 C 
HETATM   21  C   UNL     1      44.245 -21.242   2.220  1.00  0.00     0.028 A 
HETATM   22  C   UNL     1      44.447 -22.437   2.891  1.00  0.00     0.117 A 
HETATM   23  N   UNL     1      44.736 -22.514   4.202  1.00  0.00    -0.271 NA
HETATM   24  C   UNL     1      44.862 -21.332   4.852  1.00  0.00     0.146 A 
ENDBRANCH   1  18
TORSDOF 5
ENDMDL
MODEL 2
REMARK VINA RESULT:      -7.4      2.542      3.823
REMARK  5 active torsions:
REMARK  status: ('A' for Active; 'I' for Inactive)
REMARK    1  A    between atoms: C_3  and  N_4 
REMARK       I    between atoms: N_4  and  C_5 
REMARK       I    between atoms: C_5  and  N_6 
REMARK    2  A    between atoms: N_6  and  C_7 
REMARK    3  A    between atoms: C_7  and  C_8 
REMARK    4  A    between atoms: C_8  and  O_9 
REMARK    5  A    between atoms: O_9  and  C_10 
ROOT
HETATM    1  N   UNL     1      44.341 -18.909   2.329  1.00  0.00    -0.307 N 
HETATM    2  C   UNL     1      43.222 -18.104   2.350  1.00  0.00     0.320 C 
HETATM    3  N   UNL     1      43.427 -16.972   1.590  1.00  0.00    -0.340 N 
HETATM    4  O   UNL     1      42.157 -18.346   2.897  1.00  0.00    -0.247 OA
HETATM    5  H   UNL     1      44.863 -18.811   1.469  1.00  0.00     0.170 HD
HETATM    6  H   UNL     1      44.380 -16.648   1.490  1.00  0.00     0.164 HD
ENDROOT
BRANCH   3   7
HETATM    7  C   UNL     1      42.384 -15.971   1.426  1.00  0.00     0.156 C 
BRANCH   7   8
HETATM    8  C   UNL     1      42.482 -14.806   2.430  1.00  0.00     0.142 C 
HETATM    9  C   UNL     1      42.239 -13.448   1.775  1.00  0.00     0.042 C 
BRANCH   8  10
HETATM   10  O   UNL     1      41.490 -14.958   3.459  1.00  0.00    -0.345 OA
BRANCH  10  11
HETATM   11  C   UNL     1      41.844 -15.538   4.645  1.00  0.00     0.069 A 
HETATM   12  C   UNL     1      41.026 -16.313   5.469  1.00  0.00     0.038 A 
HETATM   13  C   UNL     1      41.524 -16.833   6.670  1.00  0.00     0.026 A 
HETATM   14  C   UNL     1      42.842 -16.580   7.046  1.00  0.00     0.034 A 
HETATM   15 CL   UNL     1      43.448 -17.221   8.522  1.00  0.00    -0.084 Cl
HETATM   16  C   UNL     1      43.665 -15.806   6.234  1.00  0.00     0.026 A 
HETATM   17  C   UNL     1      43.164 -15.287   5.039  1.00  0.00     0.038 A 
ENDBRANCH  10  11
ENDBRANCH   8  10
ENDBRANCH   7   8
ENDBRANCH   3   7
BRANCH   1  18
HETATM   18  C   UNL     1      44.488 -20.145   3.001  1.00  0.00     0.059 A 
HETATM   19  C   UNL     1      44.722 -20.318   4.373  1.00  0.00    -0.032 A 
HETATM   20  C   UNL     1      44.950 -19.202   5.351  1.00  0.00     0.050 C 
HETATM   21  C   UNL     1      44.779 -21.631   4.877  1.00  0.00     0.028 A 
HETATM   22  C   UNL     1      44.669 -22.705   4.008  1.00  0.00     0.117 A 
HETATM   23  N   UNL     1      44.516 -22.573   2.679  1.00  0.00    -0.271 NA
HETATM   24  C   UNL     1      44.431 -21.303   2.215  1.00  0.00     0.146 A 
ENDBRANCH   1  18
TORSDOF 5
ENDMDL
MODEL 3
REMARK VINA RESULT:      -7.1      2.637      4.112
REMARK  5 active torsions:
REMARK  status: ('A' for Active; 'I' for Inactive)
REMARK    1  A    between atoms: C_3  and  N_4 
REMARK       I    between atoms: N_4  and  C_5 
REMARK       I    between atoms: C_5  and  N_6 
REMARK    2  A    between atoms: N_6  and  C_7 
REMARK    3  A    between atoms: C_7  and  C_8 
REMARK    4  A    between atoms: C_8  and  O_9 
REMARK    5  A    between atoms: O_9  and  C_10 
ROOT
HETATM    1  N   UNL     1      44.182 -18.885   2.079  1.00  0.00    -0.307 N 
HETATM    2  C   UNL     1      42.995 -18.243   1.800  1.00  0.00     0.320 C 
HETATM    3  N   UNL     1      43.181 -17.286   0.826  1.00  0.00    -0.340 N 
HETATM    4  O   UNL     1      41.898 -18.494   2.276  1.00  0.00    -0.247 OA
HETATM    5  H   UNL     1      44.797 -18.910   1.278  1.00  0.00     0.170 HD
HETATM    6  H   UNL     1      44.102 -16.873   0.752  1.00  0.00     0.164 HD
ENDROOT
BRANCH   3   7
HETATM    7  C   UNL     1      42.073 -16.484   0.330  1.00  0.00     0.156 C 
BRANCH   7   8
HETATM    8  C   UNL     1      41.975 -15.092   0.984  1.00  0.00     0.142 C 
HETATM    9  C   UNL     1      41.223 -14.089   0.112  1.00  0.00     0.042 C 
BRANCH   8  10
HETATM   10  O   UNL     1      41.263 -15.181   2.229  1.00  0.00    -0.345 OA
BRANCH  10  11
HETATM   11  C   UNL     1      41.945 -14.999   3.400  1.00  0.00     0.069 A 
HETATM   12  C   UNL     1      41.599 -15.511   4.652  1.00  0.00     0.038 A 
HETATM   13  C   UNL     1      42.389 -15.228   5.773  1.00  0.00     0.026 A 
HETATM   14  C   UNL     1      43.528 -14.436   5.642  1.00  0.00     0.034 A 
HETATM   15 CL   UNL     1      44.494 -14.092   7.022  1.00  0.00    -0.084 Cl
HETATM   16  C   UNL     1      43.880 -13.918   4.399  1.00  0.00     0.026 A 
HETATM   17  C   UNL     1      43.088 -14.200   3.284  1.00  0.00     0.038 A 
ENDBRANCH  10  11
ENDBRANCH   8  10
ENDBRANCH   7   8
ENDBRANCH   3   7
BRANCH   1  18
HETATM   18  C   UNL     1      44.364 -19.918   3.030  1.00  0.00     0.059 A 
HETATM   19  C   UNL     1      44.375 -21.295   2.763  1.00  0.00    -0.032 A 
HETATM   20  C   UNL     1      44.100 -21.910   1.422  1.00  0.00     0.050 C 
HETATM   21  C   UNL     1      44.634 -22.176   3.830  1.00  0.00     0.028 A 
HETATM   22  C   UNL     1      44.803 -21.672   5.110  1.00  0.00     0.117 A 
HETATM   23  N   UNL     1      44.727 -20.364   5.410  1.00  0.00    -0.271 NA
HETATM   24  C   UNL     1      44.510 -19.528   4.367  1.00  0.00     0.146 A 
ENDBRANCH   1  18
TORSDOF 5
ENDMDL
MODEL 4
REMARK VINA RESULT:      -7.0      1.640      2.363
REMARK  5 active torsions:
REMARK  status: ('A' for Active; 'I' for Inactive)
REMARK    1  A    between atoms: C_3  and  N_4 
REMARK       I    between atoms: N_4  and  C_5 
REMARK       I    between atoms: C_5  and  N_6 
REMARK    2  A    between atoms: N_6  and  C_7 
REMARK    3  A    between atoms: C_7  and  C_8 
REMARK    4  A    between atoms: C_8  and  O_9 
REMARK    5  A    between atoms: O_9  and  C_10 
ROOT
HETATM    1  N   UNL     1      44.299 -18.579   4.647  1.00  0.00    -0.307 N 
HETATM    2  C   UNL     1      43.161 -17.953   5.106  1.00  0.00     0.320 C 
HETATM    3  N   UNL     1      43.437 -16.651   5.467  1.00  0.00    -0.340 N 
HETATM    4  O   UNL     1      42.034 -18.424   5.147  1.00  0.00    -0.247 OA
HETATM    5  H   UNL     1      44.944 -17.928   4.221  1.00  0.00     0.170 HD
HETATM    6  H   UNL     1      44.380 -16.445   5.767  1.00  0.00     0.164 HD
ENDROOT
BRANCH   3   7
HETATM    7  C   UNL     1      42.393 -15.765   5.959  1.00  0.00     0.156 C 
BRANCH   7   8
HETATM    8  C   UNL     1      41.558 -15.112   4.841  1.00  0.00     0.142 C 
HETATM    9  C   UNL     1      40.827 -13.857   5.314  1.00  0.00     0.042 C 
BRANCH   8  10
HETATM   10  O   UNL     1      42.413 -14.714   3.756  1.00  0.00    -0.345 OA
BRANCH  10  11
HETATM   11  C   UNL     1      42.066 -15.050   2.477  1.00  0.00     0.069 A 
HETATM   12  C   UNL     1      41.840 -16.338   1.988  1.00  0.00     0.038 A 
HETATM   13  C   UNL     1      41.502 -16.533   0.644  1.00  0.00     0.026 A 
HETATM   14  C   UNL     1      41.390 -15.441  -0.213  1.00  0.00     0.034 A 
HETATM   15 CL   UNL     1      40.975 -15.687  -1.864  1.00  0.00    -0.084 Cl
HETATM   16  C   UNL     1      41.616 -14.153   0.263  1.00  0.00     0.026 A 
HETATM   17  C   UNL     1      41.955 -13.962   1.604  1.00  0.00     0.038 A 
ENDBRANCH  10  11
ENDBRANCH   8  10
ENDBRANCH   7   8
ENDBRANCH   3   7
BRANCH   1  18
HETATM   18  C   UNL     1      44.389 -19.918   4.198  1.00  0.00     0.059 A 
HETATM   19  C   UNL     1      44.140 -20.372   2.895  1.00  0.00    -0.032 A 
HETATM   20  C   UNL     1      43.643 -19.513   1.768  1.00  0.00     0.050 C 
HETATM   21  C   UNL     1      44.340 -21.737   2.617  1.00  0.00     0.028 A 
HETATM   22  C   UNL     1      44.709 -22.598   3.639  1.00  0.00     0.117 A 
HETATM   23  N   UNL     1      44.885 -22.207   4.914  1.00  0.00    -0.271 NA
HETATM   24  C   UNL     1      44.720 -20.884   5.156  1.00  0.00     0.146 A 
ENDBRANCH   1  18
TORSDOF 5
ENDMDL
MODEL 5
REMARK VINA RESULT:      -6.6      3.361      6.219
REMARK  5 active torsions:
REMARK  status: ('A' for Active; 'I' for Inactive)
REMARK    1  A    between atoms: C_3  and  N_4 
REMARK       I    between atoms: N_4  and  C_5 
REMARK       I    between atoms: C_5  and  N_6 
REMARK    2  A    between atoms: N_6  and  C_7 
REMARK    3  A    between atoms: C_7  and  C_8 
REMARK    4  A    between atoms: C_8  and  O_9 
REMARK    5  A    between atoms: O_9  and  C_10 
ROOT
HETATM    1  N   UNL     1      40.396 -16.402   2.768  1.00  0.00    -0.307 N 
HETATM    2  C   UNL     1      41.164 -16.037   3.852  1.00  0.00     0.320 C 
HETATM    3  N   UNL     1      40.883 -16.842   4.936  1.00  0.00    -0.340 N 
HETATM    4  O   UNL     1      42.027 -15.173   3.879  1.00  0.00    -0.247 OA
HETATM    5  H   UNL     1      40.163 -17.385   2.781  1.00  0.00     0.170 HD
HETATM    6  H   UNL     1      39.958 -17.247   4.984  1.00  0.00     0.164 HD
ENDROOT
BRANCH   3   7
HETATM    7  C   UNL     1      41.583 -16.679   6.201  1.00  0.00     0.156 C 
BRANCH   7   8
HETATM    8  C   UNL     1      43.099 -16.938   6.106  1.00  0.00     0.142 C 
HETATM    9  C   UNL     1      43.889 -16.183   7.174  1.00  0.00     0.042 C 
BRANCH   8  10
HETATM   10  O   UNL     1      43.373 -18.336   6.293  1.00  0.00    -0.345 OA
BRANCH  10  11
HETATM   11  C   UNL     1      43.701 -19.101   5.209  1.00  0.00     0.069 A 
HETATM   12  C   UNL     1      43.464 -18.789   3.869  1.00  0.00     0.038 A 
HETATM   13  C   UNL     1      43.845 -19.680   2.859  1.00  0.00     0.026 A 
HETATM   14  C   UNL     1      44.465 -20.884   3.187  1.00  0.00     0.034 A 
HETATM   15 CL   UNL     1      44.930 -21.975   1.942  1.00  0.00    -0.084 Cl
HETATM   16  C   UNL     1      44.703 -21.206   4.519  1.00  0.00     0.026 A 
HETATM   17  C   UNL     1      44.320 -20.316   5.525  1.00  0.00     0.038 A 
ENDBRANCH  10  11
ENDBRANCH   8  10
ENDBRANCH   7   8
ENDBRANCH   3   7
BRANCH   1  18
HETATM   18  C   UNL     1      40.416 -15.791   1.491  1.00  0.00     0.059 A 
HETATM   19  C   UNL     1      39.723 -14.631   1.118  1.00  0.00    -0.032 A 
HETATM   20  C   UNL     1      38.760 -13.888   1.998  1.00  0.00     0.050 C 
HETATM   21  C   UNL     1      39.913 -14.133  -0.184  1.00  0.00     0.028 A 
HETATM   22  C   UNL     1      40.718 -14.828  -1.074  1.00  0.00     0.117 A 
HETATM   23  N   UNL     1      41.339 -15.981  -0.769  1.00  0.00    -0.271 NA
HETATM   24  C   UNL     1      41.170 -16.428   0.498  1.00  0.00     0.146 A 
ENDBRANCH   1  18
TORSDOF 5
ENDMDL
MODEL 6
REMARK VINA RESULT:      -6.6      4.340      7.179
REMARK  5 active torsions:
REMARK  status: ('A' for Active; 'I' for Inactive)
REMARK    1  A    between atoms: C_3  and  N_4 
REMARK       I    between atoms: N_4  and  C_5 
REMARK       I    between atoms: C_5  and  N_6 
REMARK    2  A    between atoms: N_6  and  C_7 
REMARK    3  A    between atoms: C_7  and  C_8 
REMARK    4  A    between atoms: C_8  and  O_9 
REMARK    5  A    between atoms: O_9  and  C_10 
ROOT
HETATM    1  N   UNL     1      40.394 -14.096   1.274  1.00  0.00    -0.307 N 
HETATM    2  C   UNL     1      40.515 -15.172   2.127  1.00  0.00     0.320 C 
HETATM    3  N   UNL     1      41.102 -14.784   3.313  1.00  0.00    -0.340 N 
HETATM    4  O   UNL     1      40.118 -16.310   1.929  1.00  0.00    -0.247 OA
HETATM    5  H   UNL     1      40.291 -13.225   1.775  1.00  0.00     0.170 HD
HETATM    6  H   UNL     1      41.724 -13.988   3.283  1.00  0.00     0.164 HD
ENDROOT
BRANCH   3   7
HETATM    7  C   UNL     1      41.317 -15.732   4.396  1.00  0.00     0.156 C 
BRANCH   7   8
HETATM    8  C   UNL     1      42.766 -16.246   4.490  1.00  0.00     0.142 C 
HETATM    9  C   UNL     1      43.649 -15.351   5.357  1.00  0.00     0.042 C 
BRANCH   8  10
HETATM   10  O   UNL     1      42.787 -17.555   5.083  1.00  0.00    -0.345 OA
BRANCH  10  11
HETATM   11  C   UNL     1      43.288 -18.604   4.363  1.00  0.00     0.069 A 
HETATM   12  C   UNL     1      44.222 -19.544   4.802  1.00  0.00     0.038 A 
HETATM   13  C   UNL     1      44.657 -20.562   3.945  1.00  0.00     0.026 A 
HETATM   14  C   UNL     1      44.156 -20.642   2.647  1.00  0.00     0.034 A 
HETATM   15 CL   UNL     1      44.693 -21.894   1.598  1.00  0.00    -0.084 Cl
HETATM   16  C   UNL     1      43.227 -19.709   2.198  1.00  0.00     0.026 A 
HETATM   17  C   UNL     1      42.797 -18.693   3.055  1.00  0.00     0.038 A 
ENDBRANCH  10  11
ENDBRANCH   8  10
ENDBRANCH   7   8
ENDBRANCH   3   7
BRANCH   1  18
HETATM   18  C   UNL     1      39.844 -14.127  -0.029  1.00  0.00     0.059 A 
HETATM   19  C   UNL     1      38.492 -13.961  -0.361  1.00  0.00    -0.032 A 
HETATM   20  C   UNL     1      37.378 -13.812   0.635  1.00  0.00     0.050 C 
HETATM   21  C   UNL     1      38.136 -13.960  -1.722  1.00  0.00     0.028 A 
HETATM   22  C   UNL     1      39.108 -14.187  -2.685  1.00  0.00     0.117 A 
HETATM   23  N   UNL     1      40.400 -14.420  -2.396  1.00  0.00    -0.271 NA
HETATM   24  C   UNL     1      40.730 -14.385  -1.083  1.00  0.00     0.146 A 
ENDBRANCH   1  18
TORSDOF 5
ENDMDL
MODEL 7
REMARK VINA RESULT:      -6.6      2.681      3.879
REMARK  5 active torsions:
REMARK  status: ('A' for Active; 'I' for Inactive)
REMARK    1  A    between atoms: C_3  and  N_4 
REMARK       I    between atoms: N_4  and  C_5 
REMARK       I    between atoms: C_5  and  N_6 
REMARK    2  A    between atoms: N_6  and  C_7 
REMARK    3  A    between atoms: C_7  and  C_8 
REMARK    4  A    between atoms: C_8  and  O_9 
REMARK    5  A    between atoms: O_9  and  C_10 
ROOT
HETATM    1  N   UNL     1      41.712 -17.786   4.547  1.00  0.00    -0.307 N 
HETATM    2  C   UNL     1      41.764 -16.409   4.562  1.00  0.00     0.320 C 
HETATM    3  N   UNL     1      40.494 -15.878   4.638  1.00  0.00    -0.340 N 
HETATM    4  O   UNL     1      42.770 -15.716   4.571  1.00  0.00    -0.247 OA
HETATM    5  H   UNL     1      40.907 -18.141   5.045  1.00  0.00     0.170 HD
HETATM    6  H   UNL     1      39.738 -16.431   4.257  1.00  0.00     0.164 HD
ENDROOT
BRANCH   3   7
HETATM    7  C   UNL     1      40.277 -14.441   4.696  1.00  0.00     0.156 C 
BRANCH   7   8
HETATM    8  C   UNL     1      39.900 -13.816   3.339  1.00  0.00     0.142 C 
HETATM    9  C   UNL     1      39.274 -12.431   3.487  1.00  0.00     0.042 C 
BRANCH   8  10
HETATM   10  O   UNL     1      41.074 -13.660   2.525  1.00  0.00    -0.345 OA
BRANCH  10  11
HETATM   11  C   UNL     1      41.034 -14.053   1.216  1.00  0.00     0.069 A 
HETATM   12  C   UNL     1      40.732 -13.249   0.116  1.00  0.00     0.038 A 
HETATM   13  C   UNL     1      40.715 -13.794  -1.174  1.00  0.00     0.026 A 
HETATM   14  C   UNL     1      41.002 -15.145  -1.364  1.00  0.00     0.034 A 
HETATM   15 CL   UNL     1      40.979 -15.809  -2.949  1.00  0.00    -0.084 Cl
HETATM   16  C   UNL     1      41.301 -15.956  -0.274  1.00  0.00     0.026 A 
HETATM   17  C   UNL     1      41.315 -15.409   1.011  1.00  0.00     0.038 A 
ENDBRANCH  10  11
ENDBRANCH   8  10
ENDBRANCH   7   8
ENDBRANCH   3   7
BRANCH   1  18
HETATM   18  C   UNL     1      42.823 -18.659   4.469  1.00  0.00     0.059 A 
HETATM   19  C   UNL     1      43.424 -19.131   3.293  1.00  0.00    -0.032 A 
HETATM   20  C   UNL     1      42.923 -18.856   1.905  1.00  0.00     0.050 C 
HETATM   21  C   UNL     1      44.564 -19.947   3.411  1.00  0.00     0.028 A 
HETATM   22  C   UNL     1      45.019 -20.313   4.668  1.00  0.00     0.117 A 
HETATM   23  N   UNL     1      44.423 -19.936   5.813  1.00  0.00    -0.271 NA
HETATM   24  C   UNL     1      43.346 -19.125   5.682  1.00  0.00     0.146 A 
ENDBRANCH   1  18
TORSDOF 5
ENDMDL
MODEL 8
REMARK VINA RESULT:      -6.5      3.984      7.733
REMARK  5 active torsions:
REMARK  status: ('A' for Active; 'I' for Inactive)
REMARK    1  A    between atoms: C_3  and  N_4 
REMARK       I    between atoms: N_4  and  C_5 
REMARK       I    between atoms: C_5  and  N_6 
REMARK    2  A    between atoms: N_6  and  C_7 
REMARK    3  A    between atoms: C_7  and  C_8 
REMARK    4  A    between atoms: C_8  and  O_9 
REMARK    5  A    between atoms: O_9  and  C_10 
ROOT
HETATM    1  N   UNL     1      39.965 -15.053   3.010  1.00  0.00    -0.307 N 
HETATM    2  C   UNL     1      41.060 -15.195   2.186  1.00  0.00     0.320 C 
HETATM    3  N   UNL     1      40.958 -16.351   1.441  1.00  0.00    -0.340 N 
HETATM    4  O   UNL     1      41.983 -14.406   2.053  1.00  0.00    -0.247 OA
HETATM    5  H   UNL     1      39.138 -15.482   2.619  1.00  0.00     0.170 HD
HETATM    6  H   UNL     1      40.421 -17.111   1.837  1.00  0.00     0.164 HD
ENDROOT
BRANCH   3   7
HETATM    7  C   UNL     1      41.977 -16.718   0.469  1.00  0.00     0.156 C 
BRANCH   7   8
HETATM    8  C   UNL     1      43.023 -17.708   1.014  1.00  0.00     0.142 C 
HETATM    9  C   UNL     1      44.314 -17.015   1.448  1.00  0.00     0.042 C 
BRANCH   8  10
HETATM   10  O   UNL     1      42.504 -18.387   2.170  1.00  0.00    -0.345 OA
BRANCH  10  11
HETATM   11  C   UNL     1      43.239 -19.391   2.738  1.00  0.00     0.069 A 
HETATM   12  C   UNL     1      43.635 -20.580   2.124  1.00  0.00     0.038 A 
HETATM   13  C   UNL     1      44.378 -21.529   2.838  1.00  0.00     0.026 A 
HETATM   14  C   UNL     1      44.725 -21.288   4.165  1.00  0.00     0.034 A 
HETATM   15 CL   UNL     1      45.637 -22.456   5.037  1.00  0.00    -0.084 Cl
HETATM   16  C   UNL     1      44.333 -20.107   4.787  1.00  0.00     0.026 A 
HETATM   17  C   UNL     1      43.590 -19.164   4.073  1.00  0.00     0.038 A 
ENDBRANCH  10  11
ENDBRANCH   8  10
ENDBRANCH   7   8
ENDBRANCH   3   7
BRANCH   1  18
HETATM   18  C   UNL     1      39.739 -13.990   3.916  1.00  0.00     0.059 A 
HETATM   19  C   UNL     1      39.236 -12.721   3.593  1.00  0.00    -0.032 A 
HETATM   20  C   UNL     1      38.936 -12.247   2.201  1.00  0.00     0.050 C 
HETATM   21  C   UNL     1      39.018 -11.807   4.641  1.00  0.00     0.028 A 
HETATM   22  C   UNL     1      39.363 -12.154   5.937  1.00  0.00     0.117 A 
HETATM   23  N   UNL     1      39.914 -13.335   6.269  1.00  0.00    -0.271 NA
HETATM   24  C   UNL     1      40.087 -14.215   5.254  1.00  0.00     0.146 A 
ENDBRANCH   1  18
TORSDOF 5
ENDMDL
MODEL 9
REMARK VINA RESULT:      -6.3      4.557      5.968
REMARK  5 active torsions:
REMARK  status: ('A' for Active; 'I' for Inactive)
REMARK    1  A    between atoms: C_3  and  N_4 
REMARK       I    between atoms: N_4  and  C_5 
REMARK       I    between atoms: C_5  and  N_6 
REMARK    2  A    between atoms: N_6  and  C_7 
REMARK    3  A    between atoms: C_7  and  C_8 
REMARK    4  A    between atoms: C_8  and  O_9 
REMARK    5  A    between atoms: O_9  and  C_10 
ROOT
HETATM    1  N   UNL     1      43.565 -17.228   2.321  1.00  0.00    -0.307 N 
HETATM    2  C   UNL     1      42.374 -17.155   1.633  1.00  0.00     0.320 C 
HETATM    3  N   UNL     1      42.514 -16.374   0.506  1.00  0.00    -0.340 N 
HETATM    4  O   UNL     1      41.333 -17.733   1.909  1.00  0.00    -0.247 OA
HETATM    5  H   UNL     1      44.363 -17.141   1.708  1.00  0.00     0.170 HD
HETATM    6  H   UNL     1      43.222 -15.653   0.528  1.00  0.00     0.164 HD
ENDROOT
BRANCH   3   7
HETATM    7  C   UNL     1      41.403 -16.162  -0.410  1.00  0.00     0.156 C 
BRANCH   7   8
HETATM    8  C   UNL     1      40.863 -14.719  -0.404  1.00  0.00     0.142 C 
HETATM    9  C   UNL     1      39.926 -14.450   0.771  1.00  0.00     0.042 C 
BRANCH   8  10
HETATM   10  O   UNL     1      41.952 -13.786  -0.294  1.00  0.00    -0.345 OA
BRANCH  10  11
HETATM   11  C   UNL     1      42.157 -12.881  -1.298  1.00  0.00     0.069 A 
HETATM   12  C   UNL     1      42.763 -11.629  -1.177  1.00  0.00     0.038 A 
HETATM   13  C   UNL     1      42.894 -10.797  -2.296  1.00  0.00     0.026 A 
HETATM   14  C   UNL     1      42.421 -11.219  -3.537  1.00  0.00     0.034 A 
HETATM   15 CL   UNL     1      42.585 -10.194  -4.908  1.00  0.00    -0.084 Cl
HETATM   16  C   UNL     1      41.814 -12.464  -3.668  1.00  0.00     0.026 A 
HETATM   17  C   UNL     1      41.683 -13.289  -2.549  1.00  0.00     0.038 A 
ENDBRANCH  10  11
ENDBRANCH   8  10
ENDBRANCH   7   8
ENDBRANCH   3   7
BRANCH   1  18
HETATM   18  C   UNL     1      43.788 -17.937   3.525  1.00  0.00     0.059 A 
HETATM   19  C   UNL     1      44.126 -19.294   3.636  1.00  0.00    -0.032 A 
HETATM   20  C   UNL     1      44.219 -20.251   2.483  1.00  0.00     0.050 C 
HETATM   21  C   UNL     1      44.370 -19.815   4.921  1.00  0.00     0.028 A 
HETATM   22  C   UNL     1      44.209 -19.003   6.032  1.00  0.00     0.117 A 
HETATM   23  N   UNL     1      43.816 -17.719   5.964  1.00  0.00    -0.271 NA
HETATM   24  C   UNL     1      43.617 -17.225   4.719  1.00  0.00     0.146 A 
ENDBRANCH   1  18
TORSDOF 5
ENDMDL
MODEL 10
REMARK VINA RESULT:      -6.2      2.643      3.862
REMARK  5 active torsions:
REMARK  status: ('A' for Active; 'I' for Inactive)
REMARK    1  A    between atoms: C_3  and  N_4 
REMARK       I    between atoms: N_4  and  C_5 
REMARK       I    between atoms: C_5  and  N_6 
REMARK    2  A    between atoms: N_6  and  C_7 
REMARK    3  A    between atoms: C_7  and  C_8 
REMARK    4  A    between atoms: C_8  and  O_9 
REMARK    5  A    between atoms: O_9  and  C_10 
ROOT
HETATM    1  N   UNL     1      43.578 -17.084   3.972  1.00  0.00    -0.307 N 
HETATM    2  C   UNL     1      42.312 -16.646   4.296  1.00  0.00     0.320 C 
HETATM    3  N   UNL     1      42.272 -15.268   4.332  1.00  0.00    -0.340 N 
HETATM    4  O   UNL     1      41.322 -17.339   4.474  1.00  0.00    -0.247 OA
HETATM    5  H   UNL     1      44.070 -16.422   3.388  1.00  0.00     0.170 HD
HETATM    6  H   UNL     1      43.132 -14.786   4.552  1.00  0.00     0.164 HD
ENDROOT
BRANCH   3   7
HETATM    7  C   UNL     1      41.038 -14.554   4.624  1.00  0.00     0.156 C 
BRANCH   7   8
HETATM    8  C   UNL     1      40.318 -14.023   3.369  1.00  0.00     0.142 C 
HETATM    9  C   UNL     1      39.506 -12.761   3.651  1.00  0.00     0.042 C 
BRANCH   8  10
HETATM   10  O   UNL     1      41.280 -13.684   2.356  1.00  0.00    -0.345 OA
BRANCH  10  11
HETATM   11  C   UNL     1      41.190 -14.277   1.127  1.00  0.00     0.069 A 
HETATM   12  C   UNL     1      41.479 -15.608   0.824  1.00  0.00     0.038 A 
HETATM   13  C   UNL     1      41.354 -16.076  -0.490  1.00  0.00     0.026 A 
HETATM   14  C   UNL     1      40.939 -15.212  -1.501  1.00  0.00     0.034 A 
HETATM   15 CL   UNL     1      40.788 -15.792  -3.113  1.00  0.00    -0.084 Cl
HETATM   16  C   UNL     1      40.651 -13.883  -1.210  1.00  0.00     0.026 A 
HETATM   17  C   UNL     1      40.779 -13.419   0.101  1.00  0.00     0.038 A 
ENDBRANCH  10  11
ENDBRANCH   8  10
ENDBRANCH   7   8
ENDBRANCH   3   7
BRANCH   1  18
HETATM   18  C   UNL     1      43.985 -18.434   3.852  1.00  0.00     0.059 A 
HETATM   19  C   UNL     1      44.519 -19.231   4.874  1.00  0.00    -0.032 A 
HETATM   20  C   UNL     1      44.835 -18.748   6.261  1.00  0.00     0.050 C 
HETATM   21  C   UNL     1      44.810 -20.577   4.584  1.00  0.00     0.028 A 
HETATM   22  C   UNL     1      44.627 -21.056   3.296  1.00  0.00     0.117 A 
HETATM   23  N   UNL     1      44.185 -20.299   2.277  1.00  0.00    -0.271 NA
HETATM   24  C   UNL     1      43.879 -19.015   2.582  1.00  0.00     0.146 A 
ENDBRANCH   1  18
TORSDOF 5
ENDMDL
