MODEL 1
REMARK VINA RESULT:      -9.5      0.000      0.000
REMARK  5 active torsions:
REMARK  status: ('A' for Active; 'I' for Inactive)
REMARK    1  A    between atoms: C_2  and  C_3 
REMARK    2  A    between atoms: N_12  and  N_13 
REMARK       I    between atoms: N_13  and  C_14 
REMARK    3  A    between atoms: C_14  and  C_15 
REMARK    4  A    between atoms: C_15  and  N_16 
REMARK       I    between atoms: N_16  and  C_17 
REMARK    5  A    between atoms: C_17  and  C_18 
ROOT
HETATM    1  N   UNL     1      44.123 -15.534   6.072  1.00  0.00    -0.255 N 
HETATM    2  C   UNL     1      44.253 -15.040   7.358  1.00  0.00     0.254 C 
HETATM    3  O   UNL     1      43.951 -15.657   8.377  1.00  0.00    -0.270 OA
HETATM    4  H   UNL     1      44.825 -15.231   5.389  1.00  0.00     0.191 HD
ENDROOT
BRANCH   1   5
HETATM    5  N   UNL     1      43.661 -16.833   5.931  1.00  0.00    -0.167 N 
HETATM    6  C   UNL     1      42.354 -17.159   5.702  1.00  0.00     0.345 C 
HETATM    7  N   UNL     1      42.274 -18.535   5.605  1.00  0.00    -0.319 N 
HETATM    8  O   UNL     1      41.396 -16.410   5.602  1.00  0.00    -0.245 OA
HETATM    9  C   UNL     1      43.586 -19.162   5.603  1.00  0.00     0.141 C 
HETATM   10  H   UNL     1      41.423 -18.969   5.276  1.00  0.00     0.166 HD
HETATM   11  C   UNL     1      43.724 -20.144   6.773  1.00  0.00     0.055 C 
HETATM   12  C   UNL     1      44.481 -17.937   5.918  1.00  0.00     0.279 C 
HETATM   13  O   UNL     1      45.689 -17.963   6.123  1.00  0.00    -0.268 OA
BRANCH   9  14
HETATM   14  C   UNL     1      43.830 -19.812   4.243  1.00  0.00    -0.021 A 
HETATM   15  C   UNL     1      44.484 -21.059   4.166  1.00  0.00     0.010 A 
HETATM   16  C   UNL     1      44.695 -21.694   2.939  1.00  0.00     0.001 A 
HETATM   17  C   UNL     1      44.249 -21.101   1.763  1.00  0.00     0.000 A 
HETATM   18  C   UNL     1      43.590 -19.876   1.815  1.00  0.00     0.001 A 
HETATM   19  C   UNL     1      43.378 -19.239   3.042  1.00  0.00     0.010 A 
ENDBRANCH   9  14
ENDBRANCH   1   5
BRANCH   2  20
HETATM   20  C   UNL     1      44.866 -13.642   7.398  1.00  0.00     0.227 C 
BRANCH  20  21
HETATM   21  N   UNL     1      44.050 -12.719   8.164  1.00  0.00    -0.348 N 
HETATM   22  C   UNL     1      44.479 -12.257   9.390  1.00  0.00     0.252 C 
HETATM   23  O   UNL     1      45.501 -12.695   9.913  1.00  0.00    -0.268 OA
HETATM   24  H   UNL     1      43.256 -12.308   7.695  1.00  0.00     0.163 HD
BRANCH  22  25
HETATM   25  C   UNL     1      43.675 -11.185  10.050  1.00  0.00     0.033 A 
HETATM   26  C   UNL     1      43.864 -10.805  11.384  1.00  0.00     0.036 A 
HETATM   27  C   UNL     1      43.047  -9.818  11.944  1.00  0.00     0.012 A 
HETATM   28 BR   UNL     1      43.288  -9.325  13.755  1.00  0.00    -0.051 Br
HETATM   29  C   UNL     1      42.058  -9.195  11.188  1.00  0.00     0.019 A 
HETATM   30  C   UNL     1      41.882  -9.553   9.853  1.00  0.00     0.002 A 
HETATM   31  C   UNL     1      42.688 -10.544   9.286  1.00  0.00     0.017 A 
ENDBRANCH  22  25
ENDBRANCH  20  21
ENDBRANCH   2  20
TORSDOF 5
ENDMDL
MODEL 2
REMARK VINA RESULT:      -9.2      2.096      2.726
REMARK  5 active torsions:
REMARK  status: ('A' for Active; 'I' for Inactive)
REMARK    1  A    between atoms: C_2  and  C_3 
REMARK    2  A    between atoms: N_12  and  N_13 
REMARK       I    between atoms: N_13  and  C_14 
REMARK    3  A    between atoms: C_14  and  C_15 
REMARK    4  A    between atoms: C_15  and  N_16 
REMARK       I    between atoms: N_16  and  C_17 
REMARK    5  A    between atoms: C_17  and  C_18 
ROOT
HETATM    1  N   UNL     1      43.813 -14.211   7.473  1.00  0.00    -0.255 N 
HETATM    2  C   UNL     1      45.006 -13.652   7.050  1.00  0.00     0.254 C 
HETATM    3  O   UNL     1      45.445 -13.727   5.904  1.00  0.00    -0.270 OA
HETATM    4  H   UNL     1      43.298 -13.701   8.198  1.00  0.00     0.191 HD
ENDROOT
BRANCH   1   5
HETATM    5  N   UNL     1      43.041 -14.860   6.523  1.00  0.00    -0.167 N 
HETATM    6  C   UNL     1      42.278 -14.218   5.588  1.00  0.00     0.345 C 
HETATM    7  N   UNL     1      41.665 -15.182   4.811  1.00  0.00    -0.319 N 
HETATM    8  O   UNL     1      42.125 -13.017   5.435  1.00  0.00    -0.245 OA
HETATM    9  C   UNL     1      42.148 -16.520   5.112  1.00  0.00     0.141 C 
HETATM   10  H   UNL     1      41.187 -14.915   3.962  1.00  0.00     0.166 HD
HETATM   11  C   UNL     1      40.999 -17.427   5.566  1.00  0.00     0.055 C 
HETATM   12  C   UNL     1      43.025 -16.225   6.356  1.00  0.00     0.279 C 
HETATM   13  O   UNL     1      43.585 -17.061   7.056  1.00  0.00    -0.268 OA
BRANCH   9  14
HETATM   14  C   UNL     1      42.902 -17.066   3.902  1.00  0.00    -0.021 A 
HETATM   15  C   UNL     1      43.236 -18.435   3.839  1.00  0.00     0.010 A 
HETATM   16  C   UNL     1      43.897 -18.971   2.732  1.00  0.00     0.001 A 
HETATM   17  C   UNL     1      44.233 -18.153   1.659  1.00  0.00     0.000 A 
HETATM   18  C   UNL     1      43.902 -16.802   1.691  1.00  0.00     0.001 A 
HETATM   19  C   UNL     1      43.240 -16.263   2.799  1.00  0.00     0.010 A 
ENDBRANCH   9  14
ENDBRANCH   1   5
BRANCH   2  20
HETATM   20  C   UNL     1      45.722 -12.875   8.153  1.00  0.00     0.227 C 
BRANCH  20  21
HETATM   21  N   UNL     1      44.800 -12.427   9.180  1.00  0.00    -0.348 N 
HETATM   22  C   UNL     1      44.887 -11.149   9.689  1.00  0.00     0.252 C 
HETATM   23  O   UNL     1      45.806 -10.398   9.372  1.00  0.00    -0.268 OA
HETATM   24  H   UNL     1      44.006 -13.019   9.376  1.00  0.00     0.163 HD
BRANCH  22  25
HETATM   25  C   UNL     1      43.809 -10.696  10.619  1.00  0.00     0.033 A 
HETATM   26  C   UNL     1      42.465 -10.601  10.237  1.00  0.00     0.036 A 
HETATM   27  C   UNL     1      41.517 -10.133  11.152  1.00  0.00     0.012 A 
HETATM   28 BR   UNL     1      39.707  -9.983  10.624  1.00  0.00    -0.051 Br
HETATM   29  C   UNL     1      41.888  -9.775  12.446  1.00  0.00     0.019 A 
HETATM   30  C   UNL     1      43.221  -9.890  12.837  1.00  0.00     0.002 A 
HETATM   31  C   UNL     1      44.177 -10.349  11.928  1.00  0.00     0.017 A 
ENDBRANCH  22  25
ENDBRANCH  20  21
ENDBRANCH   2  20
TORSDOF 5
ENDMDL
MODEL 3
REMARK VINA RESULT:      -9.0      2.511      3.621
REMARK  5 active torsions:
REMARK  status: ('A' for Active; 'I' for Inactive)
REMARK    1  A    between atoms: C_2  and  C_3 
REMARK    2  A    between atoms: N_12  and  N_13 
REMARK       I    between atoms: N_13  and  C_14 
REMARK    3  A    between atoms: C_14  and  C_15 
REMARK    4  A    between atoms: C_15  and  N_16 
REMARK       I    between atoms: N_16  and  C_17 
REMARK    5  A    between atoms: C_17  and  C_18 
ROOT
HETATM    1  N   UNL     1      41.918 -13.571   5.669  1.00  0.00    -0.255 N 
HETATM    2  C   UNL     1      40.970 -12.624   5.324  1.00  0.00     0.254 C 
HETATM    3  O   UNL     1      40.412 -12.560   4.231  1.00  0.00    -0.270 OA
HETATM    4  H   UNL     1      41.929 -13.877   6.647  1.00  0.00     0.191 HD
ENDROOT
BRANCH   1   5
HETATM    5  N   UNL     1      42.224 -14.540   4.726  1.00  0.00    -0.167 N 
HETATM    6  C   UNL     1      43.183 -14.395   3.764  1.00  0.00     0.345 C 
HETATM    7  N   UNL     1      43.215 -15.560   3.022  1.00  0.00    -0.319 N 
HETATM    8  O   UNL     1      43.900 -13.430   3.552  1.00  0.00    -0.245 OA
HETATM    9  C   UNL     1      42.370 -16.597   3.592  1.00  0.00     0.141 C 
HETATM   10  H   UNL     1      43.966 -15.719   2.366  1.00  0.00     0.166 HD
HETATM   11  C   UNL     1      41.298 -17.041   2.590  1.00  0.00     0.055 C 
HETATM   12  C   UNL     1      41.657 -15.792   4.708  1.00  0.00     0.279 C 
HETATM   13  O   UNL     1      40.753 -16.205   5.427  1.00  0.00    -0.268 OA
BRANCH   9  14
HETATM   14  C   UNL     1      43.247 -17.748   4.080  1.00  0.00    -0.021 A 
HETATM   15  C   UNL     1      43.472 -18.864   3.248  1.00  0.00     0.010 A 
HETATM   16  C   UNL     1      44.293 -19.918   3.654  1.00  0.00     0.001 A 
HETATM   17  C   UNL     1      44.916 -19.877   4.897  1.00  0.00     0.000 A 
HETATM   18  C   UNL     1      44.720 -18.779   5.730  1.00  0.00     0.001 A 
HETATM   19  C   UNL     1      43.898 -17.723   5.326  1.00  0.00     0.010 A 
ENDBRANCH   9  14
ENDBRANCH   1   5
BRANCH   2  20
HETATM   20  C   UNL     1      40.637 -11.672   6.471  1.00  0.00     0.227 C 
BRANCH  20  21
HETATM   21  N   UNL     1      41.619 -11.750   7.537  1.00  0.00    -0.348 N 
HETATM   22  C   UNL     1      42.211 -10.606   8.029  1.00  0.00     0.252 C 
HETATM   23  O   UNL     1      42.008  -9.511   7.510  1.00  0.00    -0.268 OA
HETATM   24  H   UNL     1      41.721 -12.639   8.005  1.00  0.00     0.163 HD
BRANCH  22  25
HETATM   25  C   UNL     1      43.085 -10.738   9.233  1.00  0.00     0.033 A 
HETATM   26  C   UNL     1      42.751 -10.194  10.479  1.00  0.00     0.036 A 
HETATM   27  C   UNL     1      43.637 -10.327  11.551  1.00  0.00     0.012 A 
HETATM   28 BR   UNL     1      43.194  -9.569  13.227  1.00  0.00    -0.051 Br
HETATM   29  C   UNL     1      44.844 -11.007  11.403  1.00  0.00     0.019 A 
HETATM   30  C   UNL     1      45.170 -11.570  10.171  1.00  0.00     0.002 A 
HETATM   31  C   UNL     1      44.294 -11.437   9.090  1.00  0.00     0.017 A 
ENDBRANCH  22  25
ENDBRANCH  20  21
ENDBRANCH   2  20
TORSDOF 5
ENDMDL
MODEL 4
REMARK VINA RESULT:      -9.0      1.523      2.274
REMARK  5 active torsions:
REMARK  status: ('A' for Active; 'I' for Inactive)
REMARK    1  A    between atoms: C_2  and  C_3 
REMARK    2  A    between atoms: N_12  and  N_13 
REMARK       I    between atoms: N_13  and  C_14 
REMARK    3  A    between atoms: C_14  and  C_15 
REMARK    4  A    between atoms: C_15  and  N_16 
REMARK       I    between atoms: N_16  and  C_17 
REMARK    5  A    between atoms: C_17  and  C_18 
ROOT
HETATM    1  N   UNL     1      43.371 -13.969   6.792  1.00  0.00    -0.255 N 
HETATM    2  C   UNL     1      44.720 -14.153   7.039  1.00  0.00     0.254 C 
HETATM    3  O   UNL     1      45.386 -15.093   6.612  1.00  0.00    -0.270 OA
HETATM    4  H   UNL     1      43.045 -13.000   6.716  1.00  0.00     0.191 HD
ENDROOT
BRANCH   1   5
HETATM    5  N   UNL     1      42.742 -14.888   5.967  1.00  0.00    -0.167 N 
HETATM    6  C   UNL     1      42.410 -14.644   4.665  1.00  0.00     0.345 C 
HETATM    7  N   UNL     1      41.816 -15.784   4.161  1.00  0.00    -0.319 N 
HETATM    8  O   UNL     1      42.577 -13.620   4.022  1.00  0.00    -0.245 OA
HETATM    9  C   UNL     1      41.890 -16.899   5.091  1.00  0.00     0.141 C 
HETATM   10  H   UNL     1      41.644 -15.868   3.169  1.00  0.00     0.166 HD
HETATM   11  C   UNL     1      40.488 -17.404   5.453  1.00  0.00     0.055 C 
HETATM   12  C   UNL     1      42.462 -16.181   6.340  1.00  0.00     0.279 C 
HETATM   13  O   UNL     1      42.619 -16.682   7.448  1.00  0.00    -0.268 OA
BRANCH   9  14
HETATM   14  C   UNL     1      42.785 -17.987   4.502  1.00  0.00    -0.021 A 
HETATM   15  C   UNL     1      42.677 -18.325   3.137  1.00  0.00     0.010 A 
HETATM   16  C   UNL     1      43.503 -19.294   2.562  1.00  0.00     0.001 A 
HETATM   17  C   UNL     1      44.461 -19.941   3.335  1.00  0.00     0.000 A 
HETATM   18  C   UNL     1      44.595 -19.615   4.681  1.00  0.00     0.001 A 
HETATM   19  C   UNL     1      43.770 -18.645   5.259  1.00  0.00     0.010 A 
ENDBRANCH   9  14
ENDBRANCH   1   5
BRANCH   2  20
HETATM   20  C   UNL     1      45.330 -13.028   7.873  1.00  0.00     0.227 C 
BRANCH  20  21
HETATM   21  N   UNL     1      44.383 -12.498   8.835  1.00  0.00    -0.348 N 
HETATM   22  C   UNL     1      44.631 -11.302   9.475  1.00  0.00     0.252 C 
HETATM   23  O   UNL     1      45.700 -10.714   9.334  1.00  0.00    -0.268 OA
HETATM   24  H   UNL     1      43.479 -12.945   8.886  1.00  0.00     0.163 HD
BRANCH  22  25
HETATM   25  C   UNL     1      43.544 -10.730  10.326  1.00  0.00     0.033 A 
HETATM   26  C   UNL     1      43.753 -10.304  11.643  1.00  0.00     0.036 A 
HETATM   27  C   UNL     1      42.679  -9.813  12.390  1.00  0.00     0.012 A 
HETATM   28 BR   UNL     1      42.961  -9.262  14.178  1.00  0.00    -0.051 Br
HETATM   29  C   UNL     1      41.403  -9.727  11.838  1.00  0.00     0.019 A 
HETATM   30  C   UNL     1      41.195 -10.128  10.520  1.00  0.00     0.002 A 
HETATM   31  C   UNL     1      42.261 -10.627   9.767  1.00  0.00     0.017 A 
ENDBRANCH  22  25
ENDBRANCH  20  21
ENDBRANCH   2  20
TORSDOF 5
ENDMDL
MODEL 5
REMARK VINA RESULT:      -8.9      2.166      3.007
REMARK  5 active torsions:
REMARK  status: ('A' for Active; 'I' for Inactive)
REMARK    1  A    between atoms: C_2  and  C_3 
REMARK    2  A    between atoms: N_12  and  N_13 
REMARK       I    between atoms: N_13  and  C_14 
REMARK    3  A    between atoms: C_14  and  C_15 
REMARK    4  A    between atoms: C_15  and  N_16 
REMARK       I    between atoms: N_16  and  C_17 
REMARK    5  A    between atoms: C_17  and  C_18 
ROOT
HETATM    1  N   UNL     1      43.461 -13.746   6.487  1.00  0.00    -0.255 N 
HETATM    2  C   UNL     1      44.685 -13.948   7.098  1.00  0.00     0.254 C 
HETATM    3  O   UNL     1      45.452 -14.872   6.837  1.00  0.00    -0.270 OA
HETATM    4  H   UNL     1      43.163 -12.772   6.363  1.00  0.00     0.191 HD
ENDROOT
BRANCH   1   5
HETATM    5  N   UNL     1      43.098 -14.625   5.478  1.00  0.00    -0.167 N 
HETATM    6  C   UNL     1      43.426 -14.456   4.163  1.00  0.00     0.345 C 
HETATM    7  N   UNL     1      42.911 -15.527   3.459  1.00  0.00    -0.319 N 
HETATM    8  O   UNL     1      44.050 -13.539   3.652  1.00  0.00    -0.245 OA
HETATM    9  C   UNL     1      42.356 -16.545   4.337  1.00  0.00     0.141 C 
HETATM   10  H   UNL     1      43.182 -15.676   2.497  1.00  0.00     0.166 HD
HETATM   11  C   UNL     1      40.870 -16.776   4.035  1.00  0.00     0.055 C 
HETATM   12  C   UNL     1      42.443 -15.813   5.700  1.00  0.00     0.279 C 
HETATM   13  O   UNL     1      41.999 -16.224   6.767  1.00  0.00    -0.268 OA
BRANCH   9  14
HETATM   14  C   UNL     1      43.195 -17.815   4.228  1.00  0.00    -0.021 A 
HETATM   15  C   UNL     1      43.243 -18.525   3.010  1.00  0.00     0.010 A 
HETATM   16  C   UNL     1      44.025 -19.674   2.870  1.00  0.00     0.001 A 
HETATM   17  C   UNL     1      44.784 -20.134   3.940  1.00  0.00     0.000 A 
HETATM   18  C   UNL     1      44.764 -19.443   5.147  1.00  0.00     0.001 A 
HETATM   19  C   UNL     1      43.981 -18.293   5.290  1.00  0.00     0.010 A 
ENDBRANCH   9  14
ENDBRANCH   1   5
BRANCH   2  20
HETATM   20  C   UNL     1      45.026 -12.864   8.119  1.00  0.00     0.227 C 
BRANCH  20  21
HETATM   21  N   UNL     1      43.908 -12.585   9.000  1.00  0.00    -0.348 N 
HETATM   22  C   UNL     1      43.822 -11.379   9.661  1.00  0.00     0.252 C 
HETATM   23  O   UNL     1      44.735 -10.558   9.611  1.00  0.00    -0.268 OA
HETATM   24  H   UNL     1      43.130 -13.228   8.974  1.00  0.00     0.163 HD
BRANCH  22  25
HETATM   25  C   UNL     1      42.568 -11.089  10.420  1.00  0.00     0.033 A 
HETATM   26  C   UNL     1      41.401 -10.613   9.809  1.00  0.00     0.036 A 
HETATM   27  C   UNL     1      40.278 -10.329  10.589  1.00  0.00     0.012 A 
HETATM   28 BR   UNL     1      38.712  -9.662   9.763  1.00  0.00    -0.051 Br
HETATM   29  C   UNL     1      40.295 -10.530  11.968  1.00  0.00     0.019 A 
HETATM   30  C   UNL     1      41.445 -11.026  12.577  1.00  0.00     0.002 A 
HETATM   31  C   UNL     1      42.577 -11.306  11.806  1.00  0.00     0.017 A 
ENDBRANCH  22  25
ENDBRANCH  20  21
ENDBRANCH   2  20
TORSDOF 5
ENDMDL
MODEL 6
REMARK VINA RESULT:      -8.6      3.394      4.373
REMARK  5 active torsions:
REMARK  status: ('A' for Active; 'I' for Inactive)
REMARK    1  A    between atoms: C_2  and  C_3 
REMARK    2  A    between atoms: N_12  and  N_13 
REMARK       I    between atoms: N_13  and  C_14 
REMARK    3  A    between atoms: C_14  and  C_15 
REMARK    4  A    between atoms: C_15  and  N_16 
REMARK       I    between atoms: N_16  and  C_17 
REMARK    5  A    between atoms: C_17  and  C_18 
ROOT
HETATM    1  N   UNL     1      43.176 -14.305   5.518  1.00  0.00    -0.255 N 
HETATM    2  C   UNL     1      44.056 -14.974   6.349  1.00  0.00     0.254 C 
HETATM    3  O   UNL     1      44.106 -16.196   6.474  1.00  0.00    -0.270 OA
HETATM    4  H   UNL     1      43.517 -13.438   5.089  1.00  0.00     0.191 HD
ENDROOT
BRANCH   1   5
HETATM    5  N   UNL     1      42.323 -15.073   4.741  1.00  0.00    -0.167 N 
HETATM    6  C   UNL     1      41.113 -15.542   5.168  1.00  0.00     0.345 C 
HETATM    7  N   UNL     1      40.544 -16.249   4.127  1.00  0.00    -0.319 N 
HETATM    8  O   UNL     1      40.592 -15.399   6.262  1.00  0.00    -0.245 OA
HETATM    9  C   UNL     1      41.308 -16.123   2.895  1.00  0.00     0.141 C 
HETATM   10  H   UNL     1      39.578 -16.540   4.183  1.00  0.00     0.166 HD
HETATM   11  C   UNL     1      41.772 -17.497   2.397  1.00  0.00     0.055 C 
HETATM   12  C   UNL     1      42.558 -15.374   3.420  1.00  0.00     0.279 C 
HETATM   13  O   UNL     1      43.565 -15.113   2.771  1.00  0.00    -0.268 OA
BRANCH   9  14
HETATM   14  C   UNL     1      40.478 -15.361   1.865  1.00  0.00    -0.021 A 
HETATM   15  C   UNL     1      41.020 -15.080   0.594  1.00  0.00     0.010 A 
HETATM   16  C   UNL     1      40.275 -14.411  -0.380  1.00  0.00     0.001 A 
HETATM   17  C   UNL     1      38.969 -14.016  -0.110  1.00  0.00     0.000 A 
HETATM   18  C   UNL     1      38.408 -14.294   1.133  1.00  0.00     0.001 A 
HETATM   19  C   UNL     1      39.153 -14.964   2.110  1.00  0.00     0.010 A 
ENDBRANCH   9  14
ENDBRANCH   1   5
BRANCH   2  20
HETATM   20  C   UNL     1      45.015 -14.035   7.079  1.00  0.00     0.227 C 
BRANCH  20  21
HETATM   21  N   UNL     1      44.334 -13.257   8.096  1.00  0.00    -0.348 N 
HETATM   22  C   UNL     1      44.978 -12.213   8.726  1.00  0.00     0.252 C 
HETATM   23  O   UNL     1      46.169 -11.986   8.526  1.00  0.00    -0.268 OA
HETATM   24  H   UNL     1      43.340 -13.400   8.197  1.00  0.00     0.163 HD
BRANCH  22  25
HETATM   25  C   UNL     1      44.172 -11.349   9.640  1.00  0.00     0.033 A 
HETATM   26  C   UNL     1      42.952 -10.773   9.264  1.00  0.00     0.036 A 
HETATM   27  C   UNL     1      42.273  -9.945  10.161  1.00  0.00     0.012 A 
HETATM   28 BR   UNL     1      40.638  -9.149   9.640  1.00  0.00    -0.051 Br
HETATM   29  C   UNL     1      42.783  -9.697  11.434  1.00  0.00     0.019 A 
HETATM   30  C   UNL     1      43.985 -10.287  11.821  1.00  0.00     0.002 A 
HETATM   31  C   UNL     1      44.676 -11.110  10.928  1.00  0.00     0.017 A 
ENDBRANCH  22  25
ENDBRANCH  20  21
ENDBRANCH   2  20
TORSDOF 5
ENDMDL
MODEL 7
REMARK VINA RESULT:      -8.6      5.980      8.926
REMARK  5 active torsions:
REMARK  status: ('A' for Active; 'I' for Inactive)
REMARK    1  A    between atoms: C_2  and  C_3 
REMARK    2  A    between atoms: N_12  and  N_13 
REMARK       I    between atoms: N_13  and  C_14 
REMARK    3  A    between atoms: C_14  and  C_15 
REMARK    4  A    between atoms: C_15  and  N_16 
REMARK       I    between atoms: N_16  and  C_17 
REMARK    5  A    between atoms: C_17  and  C_18 
ROOT
HETATM    1  N   UNL     1      40.837 -15.036   4.296  1.00  0.00    -0.255 N 
HETATM    2  C   UNL     1      40.333 -15.440   3.072  1.00  0.00     0.254 C 
HETATM    3  O   UNL     1      40.601 -16.508   2.525  1.00  0.00    -0.270 OA
HETATM    4  H   UNL     1      40.219 -14.465   4.882  1.00  0.00     0.191 HD
ENDROOT
BRANCH   1   5
HETATM    5  N   UNL     1      41.666 -15.920   4.968  1.00  0.00    -0.167 N 
HETATM    6  C   UNL     1      41.234 -16.801   5.919  1.00  0.00     0.345 C 
HETATM    7  N   UNL     1      42.329 -17.522   6.354  1.00  0.00    -0.319 N 
HETATM    8  O   UNL     1      40.101 -16.954   6.346  1.00  0.00    -0.245 OA
HETATM    9  C   UNL     1      43.518 -17.245   5.564  1.00  0.00     0.141 C 
HETATM   10  H   UNL     1      42.197 -18.335   6.938  1.00  0.00     0.166 HD
HETATM   11  C   UNL     1      44.646 -16.699   6.447  1.00  0.00     0.055 C 
HETATM   12  C   UNL     1      43.004 -16.073   4.691  1.00  0.00     0.279 C 
HETATM   13  O   UNL     1      43.677 -15.408   3.910  1.00  0.00    -0.268 OA
BRANCH   9  14
HETATM   14  C   UNL     1      43.914 -18.502   4.794  1.00  0.00    -0.021 A 
HETATM   15  C   UNL     1      43.529 -18.654   3.446  1.00  0.00     0.010 A 
HETATM   16  C   UNL     1      43.902 -19.779   2.707  1.00  0.00     0.001 A 
HETATM   17  C   UNL     1      44.676 -20.773   3.295  1.00  0.00     0.000 A 
HETATM   18  C   UNL     1      45.080 -20.640   4.620  1.00  0.00     0.001 A 
HETATM   19  C   UNL     1      44.707 -19.514   5.362  1.00  0.00     0.010 A 
ENDBRANCH   9  14
ENDBRANCH   1   5
BRANCH   2  20
HETATM   20  C   UNL     1      39.353 -14.434   2.472  1.00  0.00     0.227 C 
BRANCH  20  21
HETATM   21  N   UNL     1      39.101 -14.702   1.069  1.00  0.00    -0.348 N 
HETATM   22  C   UNL     1      39.814 -14.042   0.091  1.00  0.00     0.252 C 
HETATM   23  O   UNL     1      40.597 -13.138   0.374  1.00  0.00    -0.268 OA
HETATM   24  H   UNL     1      38.516 -15.495   0.849  1.00  0.00     0.163 HD
BRANCH  22  25
HETATM   25  C   UNL     1      39.624 -14.482  -1.325  1.00  0.00     0.033 A 
HETATM   26  C   UNL     1      38.448 -14.240  -2.045  1.00  0.00     0.036 A 
HETATM   27  C   UNL     1      38.329 -14.715  -3.354  1.00  0.00     0.012 A 
HETATM   28 BR   UNL     1      36.729 -14.409  -4.315  1.00  0.00    -0.051 Br
HETATM   29  C   UNL     1      39.373 -15.410  -3.961  1.00  0.00     0.019 A 
HETATM   30  C   UNL     1      40.554 -15.632  -3.256  1.00  0.00     0.002 A 
HETATM   31  C   UNL     1      40.680 -15.169  -1.943  1.00  0.00     0.017 A 
ENDBRANCH  22  25
ENDBRANCH  20  21
ENDBRANCH   2  20
TORSDOF 5
ENDMDL
MODEL 8
REMARK VINA RESULT:      -8.5      6.049      7.606
REMARK  5 active torsions:
REMARK  status: ('A' for Active; 'I' for Inactive)
REMARK    1  A    between atoms: C_2  and  C_3 
REMARK    2  A    between atoms: N_12  and  N_13 
REMARK       I    between atoms: N_13  and  C_14 
REMARK    3  A    between atoms: C_14  and  C_15 
REMARK    4  A    between atoms: C_15  and  N_16 
REMARK       I    between atoms: N_16  and  C_17 
REMARK    5  A    between atoms: C_17  and  C_18 
ROOT
HETATM    1  N   UNL     1      41.048 -15.898   3.511  1.00  0.00    -0.255 N 
HETATM    2  C   UNL     1      40.358 -16.274   2.372  1.00  0.00     0.254 C 
HETATM    3  O   UNL     1      40.435 -17.380   1.842  1.00  0.00    -0.270 OA
HETATM    4  H   UNL     1      40.573 -15.243   4.141  1.00  0.00     0.191 HD
ENDROOT
BRANCH   1   5
HETATM    5  N   UNL     1      41.845 -16.855   4.119  1.00  0.00    -0.167 N 
HETATM    6  C   UNL     1      41.402 -17.725   5.075  1.00  0.00     0.345 C 
HETATM    7  N   UNL     1      42.463 -18.533   5.434  1.00  0.00    -0.319 N 
HETATM    8  O   UNL     1      40.286 -17.806   5.562  1.00  0.00    -0.245 OA
HETATM    9  C   UNL     1      43.625 -18.323   4.584  1.00  0.00     0.141 C 
HETATM   10  H   UNL     1      42.305 -19.348   6.008  1.00  0.00     0.166 HD
HETATM   11  C   UNL     1      44.836 -17.880   5.414  1.00  0.00     0.055 C 
HETATM   12  C   UNL     1      43.151 -17.097   3.764  1.00  0.00     0.279 C 
HETATM   13  O   UNL     1      43.828 -16.464   2.960  1.00  0.00    -0.268 OA
BRANCH   9  14
HETATM   14  C   UNL     1      43.886 -19.587   3.769  1.00  0.00    -0.021 A 
HETATM   15  C   UNL     1      44.577 -20.670   4.351  1.00  0.00     0.010 A 
HETATM   16  C   UNL     1      44.805 -21.851   3.641  1.00  0.00     0.001 A 
HETATM   17  C   UNL     1      44.339 -21.981   2.337  1.00  0.00     0.000 A 
HETATM   18  C   UNL     1      43.643 -20.931   1.746  1.00  0.00     0.001 A 
HETATM   19  C   UNL     1      43.414 -19.748   2.455  1.00  0.00     0.010 A 
ENDBRANCH   9  14
ENDBRANCH   1   5
BRANCH   2  20
HETATM   20  C   UNL     1      39.434 -15.176   1.848  1.00  0.00     0.227 C 
BRANCH  20  21
HETATM   21  N   UNL     1      40.021 -14.469   0.726  1.00  0.00    -0.348 N 
HETATM   22  C   UNL     1      40.949 -13.471   0.936  1.00  0.00     0.252 C 
HETATM   23  O   UNL     1      41.220 -13.081   2.069  1.00  0.00    -0.268 OA
HETATM   24  H   UNL     1      39.853 -14.846  -0.195  1.00  0.00     0.163 HD
BRANCH  22  25
HETATM   25  C   UNL     1      41.637 -12.898  -0.260  1.00  0.00     0.033 A 
HETATM   26  C   UNL     1      42.308 -11.669  -0.235  1.00  0.00     0.036 A 
HETATM   27  C   UNL     1      42.897 -11.180  -1.404  1.00  0.00     0.012 A 
HETATM   28 BR   UNL     1      43.781  -9.507  -1.374  1.00  0.00    -0.051 Br
HETATM   29  C   UNL     1      42.841 -11.905  -2.592  1.00  0.00     0.019 A 
HETATM   30  C   UNL     1      42.194 -13.139  -2.616  1.00  0.00     0.002 A 
HETATM   31  C   UNL     1      41.595 -13.634  -1.454  1.00  0.00     0.017 A 
ENDBRANCH  22  25
ENDBRANCH  20  21
ENDBRANCH   2  20
TORSDOF 5
ENDMDL
MODEL 9
REMARK VINA RESULT:      -8.5      3.176      4.104
REMARK  5 active torsions:
REMARK  status: ('A' for Active; 'I' for Inactive)
REMARK    1  A    between atoms: C_2  and  C_3 
REMARK    2  A    between atoms: N_12  and  N_13 
REMARK       I    between atoms: N_13  and  C_14 
REMARK    3  A    between atoms: C_14  and  C_15 
REMARK    4  A    between atoms: C_15  and  N_16 
REMARK       I    between atoms: N_16  and  C_17 
REMARK    5  A    between atoms: C_17  and  C_18 
ROOT
HETATM    1  N   UNL     1      43.116 -14.291   5.703  1.00  0.00    -0.255 N 
HETATM    2  C   UNL     1      44.067 -14.921   6.486  1.00  0.00     0.254 C 
HETATM    3  O   UNL     1      44.250 -16.136   6.519  1.00  0.00    -0.270 OA
HETATM    4  H   UNL     1      43.358 -13.363   5.343  1.00  0.00     0.191 HD
ENDROOT
BRANCH   1   5
HETATM    5  N   UNL     1      42.349 -15.087   4.866  1.00  0.00    -0.167 N 
HETATM    6  C   UNL     1      41.178 -15.683   5.240  1.00  0.00     0.345 C 
HETATM    7  N   UNL     1      40.693 -16.378   4.149  1.00  0.00    -0.319 N 
HETATM    8  O   UNL     1      40.625 -15.646   6.327  1.00  0.00    -0.245 OA
HETATM    9  C   UNL     1      41.466 -16.119   2.945  1.00  0.00     0.141 C 
HETATM   10  H   UNL     1      39.756 -16.755   4.167  1.00  0.00     0.166 HD
HETATM   11  C   UNL     1      42.058 -17.418   2.385  1.00  0.00     0.055 C 
HETATM   12  C   UNL     1      42.635 -15.293   3.538  1.00  0.00     0.279 C 
HETATM   13  O   UNL     1      43.627 -14.910   2.927  1.00  0.00    -0.268 OA
BRANCH   9  14
HETATM   14  C   UNL     1      40.592 -15.376   1.937  1.00  0.00    -0.021 A 
HETATM   15  C   UNL     1      41.095 -15.076   0.654  1.00  0.00     0.010 A 
HETATM   16  C   UNL     1      40.309 -14.425  -0.300  1.00  0.00     0.001 A 
HETATM   17  C   UNL     1      39.000 -14.067   0.003  1.00  0.00     0.000 A 
HETATM   18  C   UNL     1      38.477 -14.364   1.258  1.00  0.00     0.001 A 
HETATM   19  C   UNL     1      39.262 -15.016   2.215  1.00  0.00     0.010 A 
ENDBRANCH   9  14
ENDBRANCH   1   5
BRANCH   2  20
HETATM   20  C   UNL     1      44.920 -13.941   7.288  1.00  0.00     0.227 C 
BRANCH  20  21
HETATM   21  N   UNL     1      44.108 -13.104   8.152  1.00  0.00    -0.348 N 
HETATM   22  C   UNL     1      44.686 -12.094   8.891  1.00  0.00     0.252 C 
HETATM   23  O   UNL     1      45.905 -11.947   8.925  1.00  0.00    -0.268 OA
HETATM   24  H   UNL     1      43.106 -13.182   8.058  1.00  0.00     0.163 HD
BRANCH  22  25
HETATM   25  C   UNL     1      43.777 -11.165   9.628  1.00  0.00     0.033 A 
HETATM   26  C   UNL     1      43.987 -10.795  10.963  1.00  0.00     0.036 A 
HETATM   27  C   UNL     1      43.073  -9.951  11.598  1.00  0.00     0.012 A 
HETATM   28 BR   UNL     1      43.347  -9.474  13.408  1.00  0.00    -0.051 Br
HETATM   29  C   UNL     1      41.963  -9.457  10.918  1.00  0.00     0.019 A 
HETATM   30  C   UNL     1      41.762  -9.803   9.583  1.00  0.00     0.002 A 
HETATM   31  C   UNL     1      42.667 -10.653   8.941  1.00  0.00     0.017 A 
ENDBRANCH  22  25
ENDBRANCH  20  21
ENDBRANCH   2  20
TORSDOF 5
ENDMDL
MODEL 10
REMARK VINA RESULT:      -8.4      3.000      4.071
REMARK  5 active torsions:
REMARK  status: ('A' for Active; 'I' for Inactive)
REMARK    1  A    between atoms: C_2  and  C_3 
REMARK    2  A    between atoms: N_12  and  N_13 
REMARK       I    between atoms: N_13  and  C_14 
REMARK    3  A    between atoms: C_14  and  C_15 
REMARK    4  A    between atoms: C_15  and  N_16 
REMARK       I    between atoms: N_16  and  C_17 
REMARK    5  A    between atoms: C_17  and  C_18 
ROOT
HETATM    1  N   UNL     1      40.951 -14.232   3.821  1.00  0.00    -0.255 N 
HETATM    2  C   UNL     1      40.804 -14.281   5.196  1.00  0.00     0.254 C 
HETATM    3  O   UNL     1      41.460 -15.004   5.943  1.00  0.00    -0.270 OA
HETATM    4  H   UNL     1      40.792 -13.323   3.374  1.00  0.00     0.191 HD
ENDROOT
BRANCH   1   5
HETATM    5  N   UNL     1      41.940 -15.022   3.256  1.00  0.00    -0.167 N 
HETATM    6  C   UNL     1      43.247 -14.643   3.139  1.00  0.00     0.345 C 
HETATM    7  N   UNL     1      43.935 -15.683   2.544  1.00  0.00    -0.319 N 
HETATM    8  O   UNL     1      43.760 -13.588   3.473  1.00  0.00    -0.245 OA
HETATM    9  C   UNL     1      43.112 -16.874   2.399  1.00  0.00     0.141 C 
HETATM   10  H   UNL     1      44.945 -15.669   2.516  1.00  0.00     0.166 HD
HETATM   11  C   UNL     1      43.001 -17.285   0.926  1.00  0.00     0.055 C 
HETATM   12  C   UNL     1      41.734 -16.313   2.830  1.00  0.00     0.279 C 
HETATM   13  O   UNL     1      40.666 -16.915   2.785  1.00  0.00    -0.268 OA
BRANCH   9  14
HETATM   14  C   UNL     1      43.669 -17.982   3.289  1.00  0.00    -0.021 A 
HETATM   15  C   UNL     1      44.071 -19.208   2.721  1.00  0.00     0.010 A 
HETATM   16  C   UNL     1      44.613 -20.229   3.504  1.00  0.00     0.001 A 
HETATM   17  C   UNL     1      44.774 -20.045   4.873  1.00  0.00     0.000 A 
HETATM   18  C   UNL     1      44.397 -18.839   5.456  1.00  0.00     0.001 A 
HETATM   19  C   UNL     1      43.854 -17.815   4.673  1.00  0.00     0.010 A 
ENDBRANCH   9  14
ENDBRANCH   1   5
BRANCH   2  20
HETATM   20  C   UNL     1      39.760 -13.296   5.718  1.00  0.00     0.227 C 
BRANCH  20  21
HETATM   21  N   UNL     1      40.209 -12.626   6.923  1.00  0.00    -0.348 N 
HETATM   22  C   UNL     1      39.745 -11.366   7.237  1.00  0.00     0.252 C 
HETATM   23  O   UNL     1      39.034 -10.737   6.458  1.00  0.00    -0.268 OA
HETATM   24  H   UNL     1      40.728 -13.177   7.591  1.00  0.00     0.163 HD
BRANCH  22  25
HETATM   25  C   UNL     1      40.115 -10.802   8.570  1.00  0.00     0.033 A 
HETATM   26  C   UNL     1      41.434 -10.755   9.038  1.00  0.00     0.036 A 
HETATM   27  C   UNL     1      41.698 -10.246  10.312  1.00  0.00     0.012 A 
HETATM   28 BR   UNL     1      43.479 -10.209  10.951  1.00  0.00    -0.051 Br
HETATM   29  C   UNL     1      40.669  -9.767  11.119  1.00  0.00     0.019 A 
HETATM   30  C   UNL     1      39.357  -9.789  10.649  1.00  0.00     0.002 A 
HETATM   31  C   UNL     1      39.082 -10.303   9.379  1.00  0.00     0.017 A 
ENDBRANCH  22  25
ENDBRANCH  20  21
ENDBRANCH   2  20
TORSDOF 5
ENDMDL
