MODEL 1
REMARK VINA RESULT:      -9.2      0.000      0.000
REMARK  6 active torsions:
REMARK  status: ('A' for Active; 'I' for Inactive)
REMARK    1  A    between atoms: C_5  and  C_6 
REMARK    2  A    between atoms: C_12  and  C_13 
REMARK       I    between atoms: C_13  and  N_14 
REMARK    3  A    between atoms: N_14  and  C_15 
REMARK    4  A    between atoms: C_18  and  C_19 
REMARK    5  A    between atoms: C_19  and  O_20 
REMARK    6  A    between atoms: C_25  and  C_26 
ROOT
HETATM    1  C   UNL     1      40.674 -16.373   2.930  1.00  0.00     0.118 C 
HETATM    2  N   UNL     1      40.341 -15.798   1.615  1.00  0.00    -0.365 N 
HETATM    3  C   UNL     1      40.992 -14.683   1.169  1.00  0.00     0.138 A 
HETATM    4  N   UNL     1      41.840 -13.975   1.991  1.00  0.00    -0.240 N 
HETATM    5  N   UNL     1      42.313 -12.846   1.441  1.00  0.00    -0.181 NA
HETATM    6  C   UNL     1      41.813 -12.875   0.205  1.00  0.00     0.160 A 
HETATM    7  C   UNL     1      40.970 -13.991  -0.031  1.00  0.00     0.096 A 
HETATM    8  C   UNL     1      42.051 -14.247   3.401  1.00  0.00     0.221 C 
HETATM    9  C   UNL     1      40.996 -15.240   3.919  1.00  0.00     0.066 C 
HETATM   10  H   UNL     1      39.340 -15.863   1.423  1.00  0.00     0.161 HD
ENDROOT
BRANCH   7  11
HETATM   11  C   UNL     1      40.255 -14.256  -1.273  1.00  0.00     0.261 C 
HETATM   12  N   UNL     1      38.915 -13.918  -1.241  1.00  0.00    -0.323 N 
HETATM   13  H   UNL     1      38.559 -13.642  -0.333  1.00  0.00     0.169 HD
HETATM   14  O   UNL     1      40.854 -14.716  -2.239  1.00  0.00    -0.267 OA
BRANCH  12  15
HETATM   15  C   UNL     1      38.021 -13.850  -2.329  1.00  0.00     0.035 A 
HETATM   16  C   UNL     1      37.677 -14.943  -3.123  1.00  0.00     0.030 A 
HETATM   17  C   UNL     1      36.835 -14.786  -4.230  1.00  0.00     0.012 A 
HETATM   18  C   UNL     1      36.326 -13.528  -4.573  1.00  0.00    -0.030 A 
HETATM   19  C   UNL     1      36.667 -12.431  -3.769  1.00  0.00     0.012 A 
HETATM   20  C   UNL     1      37.492 -12.594  -2.649  1.00  0.00     0.030 A 
BRANCH  18  21
HETATM   21  C   UNL     1      35.478 -13.372  -5.816  1.00  0.00     0.147 C 
HETATM   22  C   UNL     1      34.265 -12.487  -5.566  1.00  0.00     0.044 C 
BRANCH  21  23
HETATM   23  O   UNL     1      35.033 -14.641  -6.289  1.00  0.00    -0.391 OA
HETATM   24  H   UNL     1      35.315 -14.706  -7.219  1.00  0.00     0.210 HD
ENDBRANCH  21  23
ENDBRANCH  18  21
ENDBRANCH  12  15
ENDBRANCH   7  11
BRANCH   1  25
HETATM   25  C   UNL     1      41.729 -17.465   2.863  1.00  0.00    -0.035 A 
HETATM   26  C   UNL     1      42.252 -17.953   1.656  1.00  0.00     0.010 A 
HETATM   27  C   UNL     1      43.270 -18.915   1.645  1.00  0.00     0.007 A 
HETATM   28  C   UNL     1      43.780 -19.424   2.841  1.00  0.00    -0.062 A 
HETATM   29  C   UNL     1      44.892 -20.430   2.841  1.00  0.00     0.048 C 
HETATM   30  C   UNL     1      43.232 -18.984   4.048  1.00  0.00     0.007 A 
HETATM   31  C   UNL     1      42.219 -18.021   4.059  1.00  0.00     0.010 A 
ENDBRANCH   1  25
BRANCH   8  32
HETATM   32  C   UNL     1      43.486 -14.656   3.654  1.00  0.00     0.409 C 
HETATM   33  F   UNL     1      44.027 -15.405   2.678  1.00  0.00    -0.169 F 
HETATM   34  F   UNL     1      44.291 -13.583   3.832  1.00  0.00    -0.169 F 
HETATM   35  F   UNL     1      43.566 -15.376   4.805  1.00  0.00    -0.169 F 
ENDBRANCH   8  32
TORSDOF 6
ENDMDL
MODEL 2
REMARK VINA RESULT:      -8.7      5.655      9.791
REMARK  6 active torsions:
REMARK  status: ('A' for Active; 'I' for Inactive)
REMARK    1  A    between atoms: C_5  and  C_6 
REMARK    2  A    between atoms: C_12  and  C_13 
REMARK       I    between atoms: C_13  and  N_14 
REMARK    3  A    between atoms: N_14  and  C_15 
REMARK    4  A    between atoms: C_18  and  C_19 
REMARK    5  A    between atoms: C_19  and  O_20 
REMARK    6  A    between atoms: C_25  and  C_26 
ROOT
HETATM    1  C   UNL     1      43.341 -14.904   2.290  1.00  0.00     0.118 C 
HETATM    2  N   UNL     1      43.270 -14.149   3.554  1.00  0.00    -0.365 N 
HETATM    3  C   UNL     1      42.063 -13.935   4.158  1.00  0.00     0.138 A 
HETATM    4  N   UNL     1      40.883 -14.260   3.528  1.00  0.00    -0.240 N 
HETATM    5  N   UNL     1      39.786 -13.886   4.204  1.00  0.00    -0.181 NA
HETATM    6  C   UNL     1      40.281 -13.376   5.333  1.00  0.00     0.160 A 
HETATM    7  C   UNL     1      41.698 -13.366   5.367  1.00  0.00     0.096 A 
HETATM    8  C   UNL     1      40.773 -14.745   2.165  1.00  0.00     0.221 C 
HETATM    9  C   UNL     1      42.112 -14.576   1.426  1.00  0.00     0.066 C 
HETATM   10  H   UNL     1      43.942 -13.380   3.567  1.00  0.00     0.161 HD
ENDROOT
BRANCH   7  11
HETATM   11  C   UNL     1      42.509 -12.830   6.453  1.00  0.00     0.261 C 
HETATM   12  N   UNL     1      41.937 -11.758   7.113  1.00  0.00    -0.323 N 
HETATM   13  H   UNL     1      41.088 -11.395   6.697  1.00  0.00     0.169 HD
HETATM   14  O   UNL     1      43.587 -13.346   6.726  1.00  0.00    -0.267 OA
BRANCH  12  15
HETATM   15  C   UNL     1      42.362 -11.170   8.322  1.00  0.00     0.035 A 
HETATM   16  C   UNL     1      43.631 -11.349   8.871  1.00  0.00     0.030 A 
HETATM   17  C   UNL     1      43.960 -10.789  10.111  1.00  0.00     0.012 A 
HETATM   18  C   UNL     1      43.022 -10.044  10.834  1.00  0.00    -0.030 A 
HETATM   19  C   UNL     1      41.749  -9.858  10.277  1.00  0.00     0.012 A 
HETATM   20  C   UNL     1      41.429 -10.402   9.026  1.00  0.00     0.030 A 
BRANCH  18  21
HETATM   21  C   UNL     1      43.378  -9.511  12.205  1.00  0.00     0.147 C 
HETATM   22  C   UNL     1      42.899 -10.437  13.314  1.00  0.00     0.044 C 
BRANCH  21  23
HETATM   23  O   UNL     1      42.813  -8.218  12.408  1.00  0.00    -0.391 OA
HETATM   24  H   UNL     1      43.196  -7.638  11.727  1.00  0.00     0.210 HD
ENDBRANCH  21  23
ENDBRANCH  18  21
ENDBRANCH  12  15
ENDBRANCH   7  11
BRANCH   1  25
HETATM   25  C   UNL     1      43.590 -16.390   2.487  1.00  0.00    -0.035 A 
HETATM   26  C   UNL     1      43.614 -17.004   3.748  1.00  0.00     0.010 A 
HETATM   27  C   UNL     1      43.784 -18.388   3.876  1.00  0.00     0.007 A 
HETATM   28  C   UNL     1      43.948 -19.192   2.746  1.00  0.00    -0.062 A 
HETATM   29  C   UNL     1      44.097 -20.679   2.871  1.00  0.00     0.048 C 
HETATM   30  C   UNL     1      43.977 -18.587   1.488  1.00  0.00     0.007 A 
HETATM   31  C   UNL     1      43.804 -17.206   1.360  1.00  0.00     0.010 A 
ENDBRANCH   1  25
BRANCH   8  32
HETATM   32  C   UNL     1      40.210 -16.150   2.144  1.00  0.00     0.409 C 
HETATM   33  F   UNL     1      40.517 -16.884   3.227  1.00  0.00    -0.169 F 
HETATM   34  F   UNL     1      38.862 -16.149   2.026  1.00  0.00    -0.169 F 
HETATM   35  F   UNL     1      40.679 -16.820   1.057  1.00  0.00    -0.169 F 
ENDBRANCH   8  32
TORSDOF 6
ENDMDL
MODEL 3
REMARK VINA RESULT:      -8.6      2.044      3.325
REMARK  6 active torsions:
REMARK  status: ('A' for Active; 'I' for Inactive)
REMARK    1  A    between atoms: C_5  and  C_6 
REMARK    2  A    between atoms: C_12  and  C_13 
REMARK       I    between atoms: C_13  and  N_14 
REMARK    3  A    between atoms: N_14  and  C_15 
REMARK    4  A    between atoms: C_18  and  C_19 
REMARK    5  A    between atoms: C_19  and  O_20 
REMARK    6  A    between atoms: C_25  and  C_26 
ROOT
HETATM    1  C   UNL     1      41.221 -17.250   5.282  1.00  0.00     0.118 C 
HETATM    2  N   UNL     1      40.699 -16.311   4.273  1.00  0.00    -0.365 N 
HETATM    3  C   UNL     1      41.222 -15.053   4.170  1.00  0.00     0.138 A 
HETATM    4  N   UNL     1      42.117 -14.575   5.101  1.00  0.00    -0.240 N 
HETATM    5  N   UNL     1      42.450 -13.288   4.922  1.00  0.00    -0.181 NA
HETATM    6  C   UNL     1      41.809 -12.959   3.798  1.00  0.00     0.160 A 
HETATM    7  C   UNL     1      41.015 -14.012   3.280  1.00  0.00     0.096 A 
HETATM    8  C   UNL     1      42.510 -15.271   6.311  1.00  0.00     0.221 C 
HETATM    9  C   UNL     1      41.588 -16.478   6.560  1.00  0.00     0.066 C 
HETATM   10  H   UNL     1      39.688 -16.407   4.162  1.00  0.00     0.161 HD
ENDROOT
BRANCH   7  11
HETATM   11  C   UNL     1      40.175 -13.924   2.092  1.00  0.00     0.261 C 
HETATM   12  N   UNL     1      40.851 -14.117   0.902  1.00  0.00    -0.323 N 
HETATM   13  H   UNL     1      41.858 -14.177   0.980  1.00  0.00     0.169 HD
HETATM   14  O   UNL     1      38.972 -13.719   2.207  1.00  0.00    -0.267 OA
BRANCH  12  15
HETATM   15  C   UNL     1      40.294 -14.307  -0.379  1.00  0.00     0.035 A 
HETATM   16  C   UNL     1      39.128 -13.683  -0.822  1.00  0.00     0.030 A 
HETATM   17  C   UNL     1      38.596 -13.973  -2.084  1.00  0.00     0.012 A 
HETATM   18  C   UNL     1      39.215 -14.902  -2.928  1.00  0.00    -0.030 A 
HETATM   19  C   UNL     1      40.391 -15.523  -2.485  1.00  0.00     0.012 A 
HETATM   20  C   UNL     1      40.933 -15.216  -1.231  1.00  0.00     0.030 A 
BRANCH  18  21
HETATM   21  C   UNL     1      38.580 -15.252  -4.256  1.00  0.00     0.147 C 
HETATM   22  C   UNL     1      37.097 -14.910  -4.283  1.00  0.00     0.044 C 
BRANCH  21  23
HETATM   23  O   UNL     1      38.738 -16.639  -4.543  1.00  0.00    -0.391 OA
HETATM   24  H   UNL     1      37.894 -17.068  -4.315  1.00  0.00     0.210 HD
ENDBRANCH  21  23
ENDBRANCH  18  21
ENDBRANCH  12  15
ENDBRANCH   7  11
BRANCH   1  25
HETATM   25  C   UNL     1      42.326 -18.150   4.755  1.00  0.00    -0.035 A 
HETATM   26  C   UNL     1      43.107 -18.971   5.583  1.00  0.00     0.010 A 
HETATM   27  C   UNL     1      44.071 -19.832   5.045  1.00  0.00     0.007 A 
HETATM   28  C   UNL     1      44.290 -19.883   3.667  1.00  0.00    -0.062 A 
HETATM   29  C   UNL     1      45.298 -20.825   3.078  1.00  0.00     0.048 C 
HETATM   30  C   UNL     1      43.556 -19.033   2.837  1.00  0.00     0.007 A 
HETATM   31  C   UNL     1      42.590 -18.177   3.373  1.00  0.00     0.010 A 
ENDBRANCH   1  25
BRANCH   8  32
HETATM   32  C   UNL     1      43.988 -15.598   6.280  1.00  0.00     0.409 C 
HETATM   33  F   UNL     1      44.786 -14.585   6.656  1.00  0.00    -0.169 F 
HETATM   34  F   UNL     1      44.284 -16.659   7.066  1.00  0.00    -0.169 F 
HETATM   35  F   UNL     1      44.356 -15.955   5.020  1.00  0.00    -0.169 F 
ENDBRANCH   8  32
TORSDOF 6
ENDMDL
MODEL 4
REMARK VINA RESULT:      -8.5      1.745      2.398
REMARK  6 active torsions:
REMARK  status: ('A' for Active; 'I' for Inactive)
REMARK    1  A    between atoms: C_5  and  C_6 
REMARK    2  A    between atoms: C_12  and  C_13 
REMARK       I    between atoms: C_13  and  N_14 
REMARK    3  A    between atoms: N_14  and  C_15 
REMARK    4  A    between atoms: C_18  and  C_19 
REMARK    5  A    between atoms: C_19  and  O_20 
REMARK    6  A    between atoms: C_25  and  C_26 
ROOT
HETATM    1  C   UNL     1      40.962 -16.726   5.042  1.00  0.00     0.118 C 
HETATM    2  N   UNL     1      40.253 -15.965   3.999  1.00  0.00    -0.365 N 
HETATM    3  C   UNL     1      40.686 -14.719   3.644  1.00  0.00     0.138 A 
HETATM    4  N   UNL     1      41.675 -14.078   4.358  1.00  0.00    -0.240 N 
HETATM    5  N   UNL     1      41.908 -12.820   3.952  1.00  0.00    -0.181 NA
HETATM    6  C   UNL     1      41.099 -12.683   2.900  1.00  0.00     0.160 A 
HETATM    7  C   UNL     1      40.299 -13.828   2.657  1.00  0.00     0.096 A 
HETATM    8  C   UNL     1      42.272 -14.575   5.583  1.00  0.00     0.221 C 
HETATM    9  C   UNL     1      41.462 -15.762   6.131  1.00  0.00     0.066 C 
HETATM   10  H   UNL     1      39.243 -16.110   4.053  1.00  0.00     0.161 HD
ENDROOT
BRANCH   7  11
HETATM   11  C   UNL     1      39.297 -13.944   1.605  1.00  0.00     0.261 C 
HETATM   12  N   UNL     1      39.466 -13.058   0.558  1.00  0.00    -0.323 N 
HETATM   13  H   UNL     1      40.185 -12.358   0.694  1.00  0.00     0.169 HD
HETATM   14  O   UNL     1      38.417 -14.794   1.689  1.00  0.00    -0.267 OA
BRANCH  12  15
HETATM   15  C   UNL     1      38.806 -13.067  -0.688  1.00  0.00     0.035 A 
HETATM   16  C   UNL     1      37.758 -12.209  -1.019  1.00  0.00     0.030 A 
HETATM   17  C   UNL     1      37.104 -12.322  -2.252  1.00  0.00     0.012 A 
HETATM   18  C   UNL     1      37.479 -13.303  -3.177  1.00  0.00    -0.030 A 
HETATM   19  C   UNL     1      38.538 -14.159  -2.846  1.00  0.00     0.012 A 
HETATM   20  C   UNL     1      39.205 -14.031  -1.621  1.00  0.00     0.030 A 
BRANCH  18  21
HETATM   21  C   UNL     1      36.709 -13.451  -4.472  1.00  0.00     0.147 C 
HETATM   22  C   UNL     1      35.589 -12.426  -4.585  1.00  0.00     0.044 C 
BRANCH  21  23
HETATM   23  O   UNL     1      36.151 -14.758  -4.581  1.00  0.00    -0.391 OA
HETATM   24  H   UNL     1      36.786 -15.368  -4.166  1.00  0.00     0.210 HD
ENDBRANCH  21  23
ENDBRANCH  18  21
ENDBRANCH  12  15
ENDBRANCH   7  11
BRANCH   1  25
HETATM   25  C   UNL     1      42.030 -17.656   4.491  1.00  0.00    -0.035 A 
HETATM   26  C   UNL     1      42.882 -18.416   5.307  1.00  0.00     0.010 A 
HETATM   27  C   UNL     1      43.809 -19.308   4.753  1.00  0.00     0.007 A 
HETATM   28  C   UNL     1      43.918 -19.451   3.369  1.00  0.00    -0.062 A 
HETATM   29  C   UNL     1      44.885 -20.427   2.766  1.00  0.00     0.048 C 
HETATM   30  C   UNL     1      43.112 -18.662   2.544  1.00  0.00     0.007 A 
HETATM   31  C   UNL     1      42.185 -17.775   3.098  1.00  0.00     0.010 A 
ENDBRANCH   1  25
BRANCH   8  32
HETATM   32  C   UNL     1      43.746 -14.852   5.381  1.00  0.00     0.409 C 
HETATM   33  F   UNL     1      44.059 -15.311   4.157  1.00  0.00    -0.169 F 
HETATM   34  F   UNL     1      44.500 -13.750   5.604  1.00  0.00    -0.169 F 
HETATM   35  F   UNL     1      44.170 -15.781   6.279  1.00  0.00    -0.169 F 
ENDBRANCH   8  32
TORSDOF 6
ENDMDL
MODEL 5
REMARK VINA RESULT:      -8.2      3.334      9.117
REMARK  6 active torsions:
REMARK  status: ('A' for Active; 'I' for Inactive)
REMARK    1  A    between atoms: C_5  and  C_6 
REMARK    2  A    between atoms: C_12  and  C_13 
REMARK       I    between atoms: C_13  and  N_14 
REMARK    3  A    between atoms: N_14  and  C_15 
REMARK    4  A    between atoms: C_18  and  C_19 
REMARK    5  A    between atoms: C_19  and  O_20 
REMARK    6  A    between atoms: C_25  and  C_26 
ROOT
HETATM    1  C   UNL     1      41.928 -13.405  -1.725  1.00  0.00     0.118 C 
HETATM    2  N   UNL     1      42.055 -14.338  -0.591  1.00  0.00    -0.365 N 
HETATM    3  C   UNL     1      41.924 -13.882   0.691  1.00  0.00     0.138 A 
HETATM    4  N   UNL     1      41.844 -12.535   0.964  1.00  0.00    -0.240 N 
HETATM    5  N   UNL     1      41.832 -12.247   2.274  1.00  0.00    -0.181 NA
HETATM    6  C   UNL     1      41.827 -13.449   2.852  1.00  0.00     0.160 A 
HETATM    7  C   UNL     1      41.893 -14.517   1.922  1.00  0.00     0.096 A 
HETATM    8  C   UNL     1      41.994 -11.477  -0.017  1.00  0.00     0.221 C 
HETATM    9  C   UNL     1      42.535 -12.045  -1.341  1.00  0.00     0.066 C 
HETATM   10  H   UNL     1      42.775 -15.041  -0.766  1.00  0.00     0.161 HD
ENDROOT
BRANCH   7  11
HETATM   11  C   UNL     1      41.946 -15.931   2.268  1.00  0.00     0.261 C 
HETATM   12  N   UNL     1      43.222 -16.416   2.488  1.00  0.00    -0.323 N 
HETATM   13  H   UNL     1      43.973 -15.773   2.268  1.00  0.00     0.169 HD
HETATM   14  O   UNL     1      40.908 -16.577   2.367  1.00  0.00    -0.267 OA
BRANCH  12  15
HETATM   15  C   UNL     1      43.583 -17.661   3.041  1.00  0.00     0.035 A 
HETATM   16  C   UNL     1      43.747 -17.888   4.407  1.00  0.00     0.030 A 
HETATM   17  C   UNL     1      44.174 -19.134   4.879  1.00  0.00     0.012 A 
HETATM   18  C   UNL     1      44.455 -20.180   3.993  1.00  0.00    -0.030 A 
HETATM   19  C   UNL     1      44.282 -19.953   2.621  1.00  0.00     0.012 A 
HETATM   20  C   UNL     1      43.834 -18.712   2.152  1.00  0.00     0.030 A 
BRANCH  18  21
HETATM   21  C   UNL     1      44.986 -21.495   4.523  1.00  0.00     0.147 C 
HETATM   22  C   UNL     1      44.627 -22.659   3.610  1.00  0.00     0.044 C 
BRANCH  21  23
HETATM   23  O   UNL     1      44.475 -21.758   5.828  1.00  0.00    -0.391 OA
HETATM   24  H   UNL     1      43.653 -21.243   5.914  1.00  0.00     0.210 HD
ENDBRANCH  21  23
ENDBRANCH  18  21
ENDBRANCH  12  15
ENDBRANCH   7  11
BRANCH   1  25
HETATM   25  C   UNL     1      40.518 -13.325  -2.286  1.00  0.00    -0.035 A 
HETATM   26  C   UNL     1      39.452 -14.097  -1.798  1.00  0.00     0.010 A 
HETATM   27  C   UNL     1      38.156 -13.943  -2.305  1.00  0.00     0.007 A 
HETATM   28  C   UNL     1      37.895 -13.024  -3.323  1.00  0.00    -0.062 A 
HETATM   29  C   UNL     1      36.504 -12.828  -3.851  1.00  0.00     0.048 C 
HETATM   30  C   UNL     1      38.956 -12.287  -3.854  1.00  0.00     0.007 A 
HETATM   31  C   UNL     1      40.249 -12.439  -3.345  1.00  0.00     0.010 A 
ENDBRANCH   1  25
BRANCH   8  32
HETATM   32  C   UNL     1      40.710 -10.685  -0.144  1.00  0.00     0.409 C 
HETATM   33  F   UNL     1      39.593 -11.413   0.023  1.00  0.00    -0.169 F 
HETATM   34  F   UNL     1      40.662  -9.661   0.741  1.00  0.00    -0.169 F 
HETATM   35  F   UNL     1      40.639 -10.115  -1.377  1.00  0.00    -0.169 F 
ENDBRANCH   8  32
TORSDOF 6
ENDMDL
MODEL 6
REMARK VINA RESULT:      -8.1      4.013      8.858
REMARK  6 active torsions:
REMARK  status: ('A' for Active; 'I' for Inactive)
REMARK    1  A    between atoms: C_5  and  C_6 
REMARK    2  A    between atoms: C_12  and  C_13 
REMARK       I    between atoms: C_13  and  N_14 
REMARK    3  A    between atoms: N_14  and  C_15 
REMARK    4  A    between atoms: C_18  and  C_19 
REMARK    5  A    between atoms: C_19  and  O_20 
REMARK    6  A    between atoms: C_25  and  C_26 
ROOT
HETATM    1  C   UNL     1      41.627 -12.938  -0.365  1.00  0.00     0.118 C 
HETATM    2  N   UNL     1      42.041 -13.697   0.829  1.00  0.00    -0.365 N 
HETATM    3  C   UNL     1      41.188 -13.831   1.887  1.00  0.00     0.138 A 
HETATM    4  N   UNL     1      40.005 -13.129   1.943  1.00  0.00    -0.240 N 
HETATM    5  N   UNL     1      39.335 -13.284   3.095  1.00  0.00    -0.181 NA
HETATM    6  C   UNL     1      40.075 -14.171   3.762  1.00  0.00     0.160 A 
HETATM    7  C   UNL     1      41.254 -14.549   3.070  1.00  0.00     0.096 A 
HETATM    8  C   UNL     1      39.588 -12.123   0.983  1.00  0.00     0.221 C 
HETATM    9  C   UNL     1      40.761 -11.741   0.063  1.00  0.00     0.066 C 
HETATM   10  H   UNL     1      43.029 -13.547   1.041  1.00  0.00     0.161 HD
ENDROOT
BRANCH   7  11
HETATM   11  C   UNL     1      42.267 -15.465   3.576  1.00  0.00     0.261 C 
HETATM   12  N   UNL     1      41.917 -16.800   3.499  1.00  0.00    -0.323 N 
HETATM   13  H   UNL     1      40.962 -16.981   3.215  1.00  0.00     0.169 HD
HETATM   14  O   UNL     1      43.332 -15.028   3.998  1.00  0.00    -0.267 OA
BRANCH  12  15
HETATM   15  C   UNL     1      42.751 -17.918   3.699  1.00  0.00     0.035 A 
HETATM   16  C   UNL     1      43.287 -18.685   2.665  1.00  0.00     0.030 A 
HETATM   17  C   UNL     1      44.052 -19.825   2.942  1.00  0.00     0.012 A 
HETATM   18  C   UNL     1      44.290 -20.227   4.261  1.00  0.00    -0.030 A 
HETATM   19  C   UNL     1      43.757 -19.451   5.300  1.00  0.00     0.012 A 
HETATM   20  C   UNL     1      43.010 -18.299   5.021  1.00  0.00     0.030 A 
BRANCH  18  21
HETATM   21  C   UNL     1      45.058 -21.502   4.533  1.00  0.00     0.147 C 
HETATM   22  C   UNL     1      44.693 -22.604   3.547  1.00  0.00     0.044 C 
BRANCH  21  23
HETATM   23  O   UNL     1      44.812 -21.970   5.857  1.00  0.00    -0.391 OA
HETATM   24  H   UNL     1      43.941 -22.403   5.841  1.00  0.00     0.210 HD
ENDBRANCH  21  23
ENDBRANCH  18  21
ENDBRANCH  12  15
ENDBRANCH   7  11
BRANCH   1  25
HETATM   25  C   UNL     1      41.006 -13.805  -1.447  1.00  0.00    -0.035 A 
HETATM   26  C   UNL     1      41.013 -15.208  -1.405  1.00  0.00     0.010 A 
HETATM   27  C   UNL     1      40.372 -15.964  -2.393  1.00  0.00     0.007 A 
HETATM   28  C   UNL     1      39.720 -15.338  -3.458  1.00  0.00    -0.062 A 
HETATM   29  C   UNL     1      39.003 -16.138  -4.504  1.00  0.00     0.048 C 
HETATM   30  C   UNL     1      39.750 -13.944  -3.539  1.00  0.00     0.007 A 
HETATM   31  C   UNL     1      40.387 -13.189  -2.550  1.00  0.00     0.010 A 
ENDBRANCH   1  25
BRANCH   8  32
HETATM   32  C   UNL     1      38.333 -12.565   0.261  1.00  0.00     0.409 C 
HETATM   33  F   UNL     1      38.287 -13.880  -0.012  1.00  0.00    -0.169 F 
HETATM   34  F   UNL     1      37.216 -12.260   0.962  1.00  0.00    -0.169 F 
HETATM   35  F   UNL     1      38.223 -11.904  -0.922  1.00  0.00    -0.169 F 
ENDBRANCH   8  32
TORSDOF 6
ENDMDL
MODEL 7
REMARK VINA RESULT:      -8.0      6.969     10.426
REMARK  6 active torsions:
REMARK  status: ('A' for Active; 'I' for Inactive)
REMARK    1  A    between atoms: C_5  and  C_6 
REMARK    2  A    between atoms: C_12  and  C_13 
REMARK       I    between atoms: C_13  and  N_14 
REMARK    3  A    between atoms: N_14  and  C_15 
REMARK    4  A    between atoms: C_18  and  C_19 
REMARK    5  A    between atoms: C_19  and  O_20 
REMARK    6  A    between atoms: C_25  and  C_26 
ROOT
HETATM    1  C   UNL     1      39.361 -10.988   9.005  1.00  0.00     0.118 C 
HETATM    2  N   UNL     1      39.800 -12.014   8.042  1.00  0.00    -0.365 N 
HETATM    3  C   UNL     1      40.425 -11.646   6.884  1.00  0.00     0.138 A 
HETATM    4  N   UNL     1      40.508 -10.324   6.508  1.00  0.00    -0.240 N 
HETATM    5  N   UNL     1      41.052 -10.139   5.295  1.00  0.00    -0.181 NA
HETATM    6  C   UNL     1      41.396 -11.373   4.922  1.00  0.00     0.160 A 
HETATM    7  C   UNL     1      41.025 -12.365   5.864  1.00  0.00     0.096 A 
HETATM    8  C   UNL     1      39.875  -9.220   7.203  1.00  0.00     0.221 C 
HETATM    9  C   UNL     1      38.870  -9.746   8.243  1.00  0.00     0.066 C 
HETATM   10  H   UNL     1      39.130 -12.784   7.987  1.00  0.00     0.161 HD
ENDROOT
BRANCH   7  11
HETATM   11  C   UNL     1      41.235 -13.798   5.700  1.00  0.00     0.261 C 
HETATM   12  N   UNL     1      42.510 -14.144   5.294  1.00  0.00    -0.323 N 
HETATM   13  H   UNL     1      43.110 -13.368   5.043  1.00  0.00     0.169 HD
HETATM   14  O   UNL     1      40.324 -14.582   5.943  1.00  0.00    -0.267 OA
BRANCH  12  15
HETATM   15  C   UNL     1      43.078 -15.433   5.259  1.00  0.00     0.035 A 
HETATM   16  C   UNL     1      42.884 -16.342   4.219  1.00  0.00     0.030 A 
HETATM   17  C   UNL     1      43.425 -17.631   4.285  1.00  0.00     0.012 A 
HETATM   18  C   UNL     1      44.166 -18.043   5.398  1.00  0.00    -0.030 A 
HETATM   19  C   UNL     1      44.367 -17.126   6.439  1.00  0.00     0.012 A 
HETATM   20  C   UNL     1      43.843 -15.829   6.362  1.00  0.00     0.030 A 
BRANCH  18  21
HETATM   21  C   UNL     1      44.678 -19.465   5.479  1.00  0.00     0.147 C 
HETATM   22  C   UNL     1      44.683 -20.143   4.115  1.00  0.00     0.044 C 
BRANCH  21  23
HETATM   23  O   UNL     1      43.886 -20.239   6.376  1.00  0.00    -0.391 OA
HETATM   24  H   UNL     1      44.051 -21.173   6.157  1.00  0.00     0.210 HD
ENDBRANCH  21  23
ENDBRANCH  18  21
ENDBRANCH  12  15
ENDBRANCH   7  11
BRANCH   1  25
HETATM   25  C   UNL     1      40.389 -10.695  10.085  1.00  0.00    -0.035 A 
HETATM   26  C   UNL     1      41.739 -11.060   9.979  1.00  0.00     0.010 A 
HETATM   27  C   UNL     1      42.662 -10.712  10.973  1.00  0.00     0.007 A 
HETATM   28  C   UNL     1      42.256 -10.002  12.104  1.00  0.00    -0.062 A 
HETATM   29  C   UNL     1      43.243  -9.595  13.158  1.00  0.00     0.048 C 
HETATM   30  C   UNL     1      40.905  -9.677  12.246  1.00  0.00     0.007 A 
HETATM   31  C   UNL     1      39.984 -10.022  11.253  1.00  0.00     0.010 A 
ENDBRANCH   1  25
BRANCH   8  32
HETATM   32  C   UNL     1      40.918  -8.270   7.753  1.00  0.00     0.409 C 
HETATM   33  F   UNL     1      40.575  -7.685   8.913  1.00  0.00    -0.169 F 
HETATM   34  F   UNL     1      42.106  -8.887   7.947  1.00  0.00    -0.169 F 
HETATM   35  F   UNL     1      41.156  -7.276   6.856  1.00  0.00    -0.169 F 
ENDBRANCH   8  32
TORSDOF 6
ENDMDL
MODEL 8
REMARK VINA RESULT:      -8.0      6.367     10.165
REMARK  6 active torsions:
REMARK  status: ('A' for Active; 'I' for Inactive)
REMARK    1  A    between atoms: C_5  and  C_6 
REMARK    2  A    between atoms: C_12  and  C_13 
REMARK       I    between atoms: C_13  and  N_14 
REMARK    3  A    between atoms: N_14  and  C_15 
REMARK    4  A    between atoms: C_18  and  C_19 
REMARK    5  A    between atoms: C_19  and  O_20 
REMARK    6  A    between atoms: C_25  and  C_26 
ROOT
HETATM    1  C   UNL     1      43.141 -13.753   3.237  1.00  0.00     0.118 C 
HETATM    2  N   UNL     1      42.840 -12.991   4.463  1.00  0.00    -0.365 N 
HETATM    3  C   UNL     1      41.544 -12.758   4.826  1.00  0.00     0.138 A 
HETATM    4  N   UNL     1      40.500 -13.072   3.983  1.00  0.00    -0.240 N 
HETATM    5  N   UNL     1      39.300 -12.680   4.437  1.00  0.00    -0.181 NA
HETATM    6  C   UNL     1      39.578 -12.171   5.639  1.00  0.00     0.160 A 
HETATM    7  C   UNL     1      40.963 -12.179   5.942  1.00  0.00     0.096 A 
HETATM    8  C   UNL     1      40.645 -13.562   2.625  1.00  0.00     0.221 C 
HETATM    9  C   UNL     1      42.103 -13.413   2.155  1.00  0.00     0.066 C 
HETATM   10  H   UNL     1      43.508 -12.231   4.602  1.00  0.00     0.161 HD
ENDROOT
BRANCH   7  11
HETATM   11  C   UNL     1      41.559 -11.648   7.161  1.00  0.00     0.261 C 
HETATM   12  N   UNL     1      40.656 -11.060   8.027  1.00  0.00    -0.323 N 
HETATM   13  H   UNL     1      39.715 -10.958   7.667  1.00  0.00     0.169 HD
HETATM   14  O   UNL     1      42.764 -11.767   7.356  1.00  0.00    -0.267 OA
BRANCH  12  15
HETATM   15  C   UNL     1      40.882 -10.657   9.358  1.00  0.00     0.035 A 
HETATM   16  C   UNL     1      40.240 -11.220  10.461  1.00  0.00     0.030 A 
HETATM   17  C   UNL     1      40.464 -10.722  11.750  1.00  0.00     0.012 A 
HETATM   18  C   UNL     1      41.329  -9.643  11.963  1.00  0.00    -0.030 A 
HETATM   19  C   UNL     1      41.980  -9.083  10.854  1.00  0.00     0.012 A 
HETATM   20  C   UNL     1      41.771  -9.597   9.568  1.00  0.00     0.030 A 
BRANCH  18  21
HETATM   21  C   UNL     1      41.498  -9.076  13.356  1.00  0.00     0.147 C 
HETATM   22  C   UNL     1      42.216 -10.049  14.280  1.00  0.00     0.044 C 
BRANCH  21  23
HETATM   23  O   UNL     1      40.233  -8.748  13.926  1.00  0.00    -0.391 OA
HETATM   24  H   UNL     1      39.906  -9.555  14.360  1.00  0.00     0.210 HD
ENDBRANCH  21  23
ENDBRANCH  18  21
ENDBRANCH  12  15
ENDBRANCH   7  11
BRANCH   1  25
HETATM   25  C   UNL     1      43.327 -15.241   3.481  1.00  0.00    -0.035 A 
HETATM   26  C   UNL     1      43.593 -16.160   2.454  1.00  0.00     0.010 A 
HETATM   27  C   UNL     1      43.820 -17.512   2.735  1.00  0.00     0.007 A 
HETATM   28  C   UNL     1      43.773 -17.984   4.048  1.00  0.00    -0.062 A 
HETATM   29  C   UNL     1      44.048 -19.425   4.363  1.00  0.00     0.048 C 
HETATM   30  C   UNL     1      43.458 -17.090   5.074  1.00  0.00     0.007 A 
HETATM   31  C   UNL     1      43.235 -15.739   4.794  1.00  0.00     0.010 A 
ENDBRANCH   1  25
BRANCH   8  32
HETATM   32  C   UNL     1      40.078 -14.959   2.501  1.00  0.00     0.409 C 
HETATM   33  F   UNL     1      40.236 -15.719   3.598  1.00  0.00    -0.169 F 
HETATM   34  F   UNL     1      38.756 -14.940   2.211  1.00  0.00    -0.169 F 
HETATM   35  F   UNL     1      40.676 -15.611   1.469  1.00  0.00    -0.169 F 
ENDBRANCH   8  32
TORSDOF 6
ENDMDL
MODEL 9
REMARK VINA RESULT:      -7.9      3.839      4.404
REMARK  6 active torsions:
REMARK  status: ('A' for Active; 'I' for Inactive)
REMARK    1  A    between atoms: C_5  and  C_6 
REMARK    2  A    between atoms: C_12  and  C_13 
REMARK       I    between atoms: C_13  and  N_14 
REMARK    3  A    between atoms: N_14  and  C_15 
REMARK    4  A    between atoms: C_18  and  C_19 
REMARK    5  A    between atoms: C_19  and  O_20 
REMARK    6  A    between atoms: C_25  and  C_26 
ROOT
HETATM    1  C   UNL     1      40.954 -16.861   4.507  1.00  0.00     0.118 C 
HETATM    2  N   UNL     1      40.881 -15.725   3.572  1.00  0.00    -0.365 N 
HETATM    3  C   UNL     1      41.500 -14.545   3.876  1.00  0.00     0.138 A 
HETATM    4  N   UNL     1      42.054 -14.329   5.118  1.00  0.00    -0.240 N 
HETATM    5  N   UNL     1      42.523 -13.085   5.294  1.00  0.00    -0.181 NA
HETATM    6  C   UNL     1      42.332 -12.514   4.104  1.00  0.00     0.160 A 
HETATM    7  C   UNL     1      41.688 -13.367   3.172  1.00  0.00     0.096 A 
HETATM    8  C   UNL     1      41.956 -15.241   6.242  1.00  0.00     0.221 C 
HETATM    9  C   UNL     1      40.917 -16.339   5.953  1.00  0.00     0.066 C 
HETATM   10  H   UNL     1      39.965 -15.670   3.124  1.00  0.00     0.161 HD
ENDROOT
BRANCH   7  11
HETATM   11  C   UNL     1      41.314 -12.996   1.813  1.00  0.00     0.261 C 
HETATM   12  N   UNL     1      42.181 -12.105   1.208  1.00  0.00    -0.323 N 
HETATM   13  H   UNL     1      42.899 -11.723   1.810  1.00  0.00     0.169 HD
HETATM   14  O   UNL     1      40.317 -13.488   1.296  1.00  0.00    -0.267 OA
BRANCH  12  15
HETATM   15  C   UNL     1      42.215 -11.731  -0.150  1.00  0.00     0.035 A 
HETATM   16  C   UNL     1      42.457 -12.620  -1.197  1.00  0.00     0.030 A 
HETATM   17  C   UNL     1      42.544 -12.164  -2.518  1.00  0.00     0.012 A 
HETATM   18  C   UNL     1      42.401 -10.805  -2.819  1.00  0.00    -0.030 A 
HETATM   19  C   UNL     1      42.150  -9.913  -1.767  1.00  0.00     0.012 A 
HETATM   20  C   UNL     1      42.041 -10.375  -0.449  1.00  0.00     0.030 A 
BRANCH  18  21
HETATM   21  C   UNL     1      42.572 -10.327  -4.245  1.00  0.00     0.147 C 
HETATM   22  C   UNL     1      41.387  -9.492  -4.708  1.00  0.00     0.044 C 
BRANCH  21  23
HETATM   23  O   UNL     1      42.734 -11.431  -5.133  1.00  0.00    -0.391 OA
HETATM   24  H   UNL     1      43.281 -12.086  -4.665  1.00  0.00     0.210 HD
ENDBRANCH  21  23
ENDBRANCH  18  21
ENDBRANCH  12  15
ENDBRANCH   7  11
BRANCH   1  25
HETATM   25  C   UNL     1      42.103 -17.812   4.214  1.00  0.00    -0.035 A 
HETATM   26  C   UNL     1      42.587 -18.742   5.147  1.00  0.00     0.010 A 
HETATM   27  C   UNL     1      43.606 -19.642   4.809  1.00  0.00     0.007 A 
HETATM   28  C   UNL     1      44.177 -19.624   3.535  1.00  0.00    -0.062 A 
HETATM   29  C   UNL     1      45.246 -20.604   3.153  1.00  0.00     0.048 C 
HETATM   30  C   UNL     1      43.741 -18.669   2.614  1.00  0.00     0.007 A 
HETATM   31  C   UNL     1      42.721 -17.774   2.950  1.00  0.00     0.010 A 
ENDBRANCH   1  25
BRANCH   8  32
HETATM   32  C   UNL     1      43.326 -15.751   6.634  1.00  0.00     0.409 C 
HETATM   33  F   UNL     1      43.311 -16.907   7.319  1.00  0.00    -0.169 F 
HETATM   34  F   UNL     1      44.122 -15.934   5.554  1.00  0.00    -0.169 F 
HETATM   35  F   UNL     1      43.958 -14.831   7.410  1.00  0.00    -0.169 F 
ENDBRANCH   8  32
TORSDOF 6
ENDMDL
MODEL 10
REMARK VINA RESULT:      -7.8      5.672      8.769
REMARK  6 active torsions:
REMARK  status: ('A' for Active; 'I' for Inactive)
REMARK    1  A    between atoms: C_5  and  C_6 
REMARK    2  A    between atoms: C_12  and  C_13 
REMARK       I    between atoms: C_13  and  N_14 
REMARK    3  A    between atoms: N_14  and  C_15 
REMARK    4  A    between atoms: C_18  and  C_19 
REMARK    5  A    between atoms: C_19  and  O_20 
REMARK    6  A    between atoms: C_25  and  C_26 
ROOT
HETATM    1  C   UNL     1      43.701 -15.727   3.800  1.00  0.00     0.118 C 
HETATM    2  N   UNL     1      43.014 -14.602   4.460  1.00  0.00    -0.365 N 
HETATM    3  C   UNL     1      41.707 -14.332   4.170  1.00  0.00     0.138 A 
HETATM    4  N   UNL     1      41.055 -14.979   3.144  1.00  0.00    -0.240 N 
HETATM    5  N   UNL     1      39.814 -14.523   2.915  1.00  0.00    -0.181 NA
HETATM    6  C   UNL     1      39.642 -13.610   3.873  1.00  0.00     0.160 A 
HETATM    7  C   UNL     1      40.789 -13.432   4.688  1.00  0.00     0.096 A 
HETATM    8  C   UNL     1      41.677 -15.905   2.216  1.00  0.00     0.221 C 
HETATM    9  C   UNL     1      43.209 -15.848   2.348  1.00  0.00     0.066 C 
HETATM   10  H   UNL     1      43.640 -13.805   4.584  1.00  0.00     0.161 HD
ENDROOT
BRANCH   7  11
HETATM   11  C   UNL     1      40.904 -12.474   5.780  1.00  0.00     0.261 C 
HETATM   12  N   UNL     1      39.711 -11.871   6.135  1.00  0.00    -0.323 N 
HETATM   13  H   UNL     1      38.927 -12.070   5.525  1.00  0.00     0.169 HD
HETATM   14  O   UNL     1      41.990 -12.282   6.315  1.00  0.00    -0.267 OA
BRANCH  12  15
HETATM   15  C   UNL     1      39.456 -11.080   7.273  1.00  0.00     0.035 A 
HETATM   16  C   UNL     1      39.413  -9.686   7.258  1.00  0.00     0.030 A 
HETATM   17  C   UNL     1      39.222  -8.964   8.441  1.00  0.00     0.012 A 
HETATM   18  C   UNL     1      39.079  -9.620   9.669  1.00  0.00    -0.030 A 
HETATM   19  C   UNL     1      39.114 -11.022   9.681  1.00  0.00     0.012 A 
HETATM   20  C   UNL     1      39.284 -11.744   8.493  1.00  0.00     0.030 A 
BRANCH  18  21
HETATM   21  C   UNL     1      38.947  -8.815  10.943  1.00  0.00     0.147 C 
HETATM   22  C   UNL     1      40.286  -8.650  11.649  1.00  0.00     0.044 C 
BRANCH  21  23
HETATM   23  O   UNL     1      38.027  -9.433  11.840  1.00  0.00    -0.391 OA
HETATM   24  H   UNL     1      38.484 -10.205  12.219  1.00  0.00     0.210 HD
ENDBRANCH  21  23
ENDBRANCH  18  21
ENDBRANCH  12  15
ENDBRANCH   7  11
BRANCH   1  25
HETATM   25  C   UNL     1      43.640 -17.022   4.592  1.00  0.00    -0.035 A 
HETATM   26  C   UNL     1      44.092 -18.251   4.089  1.00  0.00     0.010 A 
HETATM   27  C   UNL     1      44.074 -19.407   4.880  1.00  0.00     0.007 A 
HETATM   28  C   UNL     1      43.588 -19.365   6.189  1.00  0.00    -0.062 A 
HETATM   29  C   UNL     1      43.594 -20.590   7.055  1.00  0.00     0.048 C 
HETATM   30  C   UNL     1      43.087 -18.159   6.683  1.00  0.00     0.007 A 
HETATM   31  C   UNL     1      43.109 -17.005   5.895  1.00  0.00     0.010 A 
ENDBRANCH   1  25
BRANCH   8  32
HETATM   32  C   UNL     1      41.079 -17.288   2.363  1.00  0.00     0.409 C 
HETATM   33  F   UNL     1      41.866 -18.280   1.915  1.00  0.00    -0.169 F 
HETATM   34  F   UNL     1      40.769 -17.567   3.651  1.00  0.00    -0.169 F 
HETATM   35  F   UNL     1      39.908 -17.360   1.674  1.00  0.00    -0.169 F 
ENDBRANCH   8  32
TORSDOF 6
ENDMDL
